#    Name: 3o73_O73_1_INTS_M
#    Modification time : Tue Mar 25 03:18:26 2014

@<TRIPOS>MOLECULE
3o73_O73_1_INTS_M
   56     0     6     0     0
SMALL
NO_CHARGES


@<TRIPOS>ATOM
      1 CA         -9.6980    8.1625   10.9810 C.3       2 GLC5        0.0000 
      2 CA         -8.8080    6.8400   12.1330 C.3       6 GLL5        0.0000 
      3 CA        -10.5880    9.4850    9.8290 C.3       4 GLP5        0.0000 
      4 CA         -4.4140    7.9845   12.4720 C.3       2 GLC5        0.0000 
      5 CA         -4.2760    7.6420   14.6880 C.3       6 GLL5        0.0000 
      6 CA         -4.5520    8.3270   10.2560 C.3       4 GLP5        0.0000 
      7 CA         -1.4940    6.9700   14.6450 C.3       2 GLC5        0.0000 
      8 CA         -2.1810    6.3570   16.2320 C.3       6 GLL5        0.0000 
      9 CA         -0.8070    7.5830   13.0580 C.3       4 GLP5        0.0000 
     10 CA         -2.5410    5.6945   13.6555 C.3       2 GLC5        0.0000 
     11 CA         -3.0850    5.5570   15.5230 C.3       6 GLL5        0.0000 
     12 CA         -1.9970    5.8320   11.7880 C.3       4 GLP5        0.0000 
     13 CA         -6.5865   12.6360   13.7480 C.3       2 GLC5        0.0000 
     14 CA         -5.2030   11.3190   14.1700 C.3       6 GLL5        0.0000 
     15 CA         -7.9700   13.9530   13.3260 C.3       4 GLP5        0.0000 
     16 CA         -3.3090   11.1485   17.3970 C.3       2 GLC5        0.0000 
     17 CA         -2.8170   10.9120   15.9070 C.3       6 GLL5        0.0000 
     18 CA         -3.8010   11.3850   18.8870 C.3       4 GLP5        0.0000 
     19 CA         -0.8215    3.2880   15.2285 C.3       2 GLC5        0.0000 
     20 CA         -2.0780    3.5170   16.4500 C.3       6 GLL5        0.0000 
     21 CA          0.4350    3.0590   14.0070 C.3       4 GLP5        0.0000 
     22 CA         -2.7470    0.6815   15.4800 C.3       2 GLC5        0.0000 
     23 CA         -2.5170    2.1020   16.8160 C.3       6 GLL5        0.0000 
     24 CA         -2.9770   -0.7390   14.1440 C.3       4 GLP5        0.0000 
     25 CA         -1.1520    1.8390   15.2670 C.3       2 GLC5        0.0000 
     26 CA          0.2130    1.5760   13.7180 C.3       4 GLP5        0.0000 
     27 CA          0.9515   -0.7815   16.6675 C.3       2 GLC5        0.0000 
     28 CA         -0.4480    0.6790   17.4190 C.3       6 GLL5        0.0000 
     29 CA          2.3510   -2.2420   15.9160 C.3       4 GLP5        0.0000 
     30 CA         -1.7125   -0.0300   15.7815 C.3       2 GLC5        0.0000 
     31 O           2.1680    0.7155   18.3940 O.2       1 ALC1        0.0000 
     32 O           0.7320    0.7090   18.3090 O.2       5 ALL1        0.0000 
     33 O           3.6040    0.7220   18.4790 O.2       3 ALP1        0.0000 
     34 CA         -8.3870    4.4745    8.8900 C.3       2 GLC5        0.0000 
     35 CA         -8.0370    4.5030   10.7590 C.3       6 GLL5        0.0000 
     36 CA         -8.0890    4.1750    7.1170 C.3       4 GLP5        0.0000 
     37 CA         -5.9352    7.0228   11.1128 C.3       2 GLC5        0.0000 
     38 CA         -7.1240    5.1290   11.6260 C.3       6 GLL5        0.0000 
     39 CA        -10.3540    7.0410    9.9117 C.3       2 GLC5        0.0000 
     40 CA         -9.7010    6.2130   11.2620 C.3       6 GLL5        0.0000 
     41 CA        -11.1910    8.4530    8.9090 C.3       4 GLP5        0.0000 
     42 CA         -5.1653    8.4105   11.9360 C.3       2 GLC5        0.0000 
     43 CA         -6.3790    8.3500   13.1730 C.3       6 GLL5        0.0000 
     44 CA         -5.6263   10.2340   12.3360 C.3       2 GLC5        0.0000 
     45 CA         -5.4740   11.9740   11.0560 C.3       4 GLP5        0.0000 
     46 CA         -5.1980   11.3072   12.6995 C.3       2 GLC5        0.0000 
     47 CA         -2.3033    7.8123   14.0683 C.3       2 GLC5        0.0000 
     48 CA         -3.7317    1.6525   18.5285 C.3       2 GLC5        0.0000 
     49 CA         -5.4150    1.4610   19.6930 C.3       4 GLP5        0.0000 
     50 CA         -0.9805    0.8422   19.5252 C.3       2 GLC5        0.0000 
     51 CA         -1.5800    1.5860   17.9120 C.3       6 GLL5        0.0000 
     52 CA         -0.9470    0.5520   21.3850 C.3       4 GLP5        0.0000 
     53 CA         -2.6659    3.4624   18.2482 C.3       2 GLC5        0.0000 
     54 CA         -3.3930    4.7270   19.2240 C.3       4 GLP5        0.0000 
     55 CA          0.6025    1.8007   16.6837 C.3       2 GLC5        0.0000 
     56 CA          2.2190    2.4690   15.7020 C.3       4 GLP5        0.0000 
@<TRIPOS>BOND
@<TRIPOS>SUBSTRUCTURE
     1 ALC1       31 GROUP        1 X    ALC  0     ROOT ALC X 1
     2 GLC5        1 GROUP        1 X    GLC  0     **** GLC X 6
     3 ALP1       33 GROUP        1 Y    ALP  0     ROOT ALP Y 8
     4 GLP5        3 GROUP        1 Y    GLP  0     **** GLP Y 13
     5 ALL1       32 GROUP        1 Z    ALL  0     ROOT ALL Z 15
     6 GLL5        2 GROUP        1 Z    GLL  0     **** GLL Z 20
@<TRIPOS>SET

