#    Name: 3o73_O73_1_ligand
#    Modification time : Tue Mar 25 03:18:26 2014

@<TRIPOS>MOLECULE
3o73_O73_1_ligand
   55    57     1     0     0
SMALL
NO_CHARGES


@<TRIPOS>ATOM
      1 C1         -8.0370    4.5030   10.7590 C.ar      1 O73239      0.0000 
      2 C2         -7.1240    5.1290   11.6260 C.ar      1 O73239      0.0000 
      3 C3         -7.5130    6.3080   12.3130 C.ar      1 O73239      0.0000 
      4 C4         -8.8080    6.8400   12.1330 C.ar      1 O73239      0.0000 
      5 C5         -9.7010    6.2130   11.2620 C.ar      1 O73239      0.0000 
      6 C6         -9.3330    5.0450   10.5670 C.ar      1 O73239      0.0000 
      7 N7        -10.2840    4.4430    9.6910 N.pl3     1 O73239      0.0000 
      8 O8        -11.4920    4.6160    9.8480 O.2       1 O73239      0.0000 
      9 O9         -9.9190    3.7500    8.7440 O.2       1 O73239      0.0000 
     10 O10        -6.6320    6.9340   13.1730 O.3       1 O73239      0.0000 
     11 C11        -6.3790    8.3500   13.1730 C.3       1 O73239      0.0000 
     12 C12        -5.1780    8.6380   14.0590 C.2       1 O73239      0.0000 
     13 C13        -4.6410    9.9620   14.5160 C.2       1 O73239      0.0000 
     14 N14        -3.5610    9.7660   15.3190 N.pl3     1 O73239      0.0000 
     15 C15        -3.3230    8.4410   15.4690 C.2       1 O73239      0.0000 
     16 C16        -4.2760    7.6420   14.6880 C.2       1 O73239      0.0000 
     17 C17        -2.2540    7.7460   16.2360 C.2       1 O73239      0.0000 
     18 C18        -2.1810    6.3570   16.2320 C.2       1 O73239      0.0000 
     19 C19        -3.0850    5.5570   15.5230 C.2       1 O73239      0.0000 
     20 C20        -4.1660    6.1610   14.7150 C.2       1 O73239      0.0000 
     21 C21        -5.2030   11.3190   14.1700 C.3       1 O73239      0.0000 
     22 C22        -2.8170   10.9120   15.9070 C.3       1 O73239      0.0000 
     23 O23        -1.4100    8.3760   16.8780 O.2       1 O73239      0.0000 
     24 O24        -4.9630    5.4100   14.0800 O.2       1 O73239      0.0000 
     25 N25        -3.0080    4.1930   15.5510 N.pl3     1 O73239      0.0000 
     26 C26        -2.0780    3.5170   16.4500 C.3       1 O73239      0.0000 
     27 C27        -2.5170    2.1020   16.8160 C.3       1 O73239      0.0000 
     28 C28        -1.5800    1.5860   17.9120 C.3       1 O73239      0.0000 
     29 C29        -0.4480    0.6790   17.4190 C.3       1 O73239      0.0000 
     30 N30         0.7320    0.7090   18.3090 N.4       1 O73239      0.0000 
     31 H          -7.7689    3.6493   10.2603 H         1 O73239      0.0000 
     32 H          -6.1928    4.7451   11.7632 H         1 O73239      0.0000 
     33 H          -9.0847    7.6824   12.6422 H         1 O73239      0.0000 
     34 H         -10.6434    6.6063   11.1223 H         1 O73239      0.0000 
     35 H          -7.2326    8.9090   13.5634 H         1 O73239      0.0000 
     36 H          -6.1572    8.7169   12.1681 H         1 O73239      0.0000 
     37 H          -1.4234    5.8888   16.7782 H         1 O73239      0.0000 
     38 H          -3.5931    3.6014   14.9493 H         1 O73239      0.0000 
     39 H          -1.9585    4.0905   17.3893 H         1 O73239      0.0000 
     40 H          -1.0715    3.4543   15.9934 H         1 O73239      0.0000 
     41 H          -2.4413    1.4649   15.9515 H         1 O73239      0.0000 
     42 H          -3.5267    2.1217   17.1887 H         1 O73239      0.0000 
     43 H          -2.1777    1.0338   18.6607 H         1 O73239      0.0000 
     44 H          -1.1381    2.4516   18.4394 H         1 O73239      0.0000 
     45 H          -0.1687    0.9995   16.4029 H         1 O73239      0.0000 
     46 H          -0.8402   -0.3471   17.3386 H         1 O73239      0.0000 
     47 H          -4.6772   12.0574   14.5922 H         1 O73239      0.0000 
     48 H          -5.1979   11.4826   13.1835 H         1 O73239      0.0000 
     49 H          -6.1489   11.4190   14.4788 H         1 O73239      0.0000 
     50 H          -2.0489   10.6066   16.4698 H         1 O73239      0.0000 
     51 H          -2.4423   11.5130   15.2010 H         1 O73239      0.0000 
     52 H          -3.4025   11.4747   16.4905 H         1 O73239      0.0000 
     53 H           1.5809    0.5466   17.8059 H         1 O73239      0.0000 
     54 H           0.8281    1.5918   18.7687 H         1 O73239      0.0000 
     55 H           0.6764    0.0112   19.0231 H         1 O73239      0.0000 
@<TRIPOS>BOND
     1    2    1 ar   
     2    6    1 ar   
     3   31    1 1    
     4    3    2 ar   
     5   32    2 1    
     6    4    3 ar   
     7   10    3 1    
     8    5    4 ar   
     9   33    4 1    
    10    6    5 ar   
    11   34    5 1    
    12    7    6 1    
    13    8    7 2    
    14    9    7 2    
    15   11   10 1    
    16   12   11 1    
    17   35   11 1    
    18   36   11 1    
    19   13   12 2    
    20   16   12 1    
    21   14   13 1    
    22   21   13 1    
    23   15   14 1    
    24   22   14 1    
    25   16   15 2    
    26   17   15 1    
    27   20   16 1    
    28   18   17 1    
    29   23   17 2    
    30   19   18 2    
    31   37   18 1    
    32   20   19 1    
    33   25   19 1    
    34   24   20 2    
    35   47   21 1    
    36   48   21 1    
    37   49   21 1    
    38   50   22 1    
    39   51   22 1    
    40   52   22 1    
    41   26   25 1    
    42   38   25 1    
    43   27   26 1    
    44   39   26 1    
    45   40   26 1    
    46   28   27 1    
    47   41   27 1    
    48   42   27 1    
    49   29   28 1    
    50   43   28 1    
    51   44   28 1    
    52   30   29 1    
    53   45   29 1    
    54   46   29 1    
    55   53   30 1    
    56   54   30 1    
    57   55   30 1    
@<TRIPOS>SUBSTRUCTURE
     1 O73239      1 GROUP   
@<TRIPOS>SET

