#    Name: 4blw_SAH_2_INTS_M
#    Modification time : Tue Mar 25 07:56:06 2014

@<TRIPOS>MOLECULE
4blw_SAH_2_INTS_M
   83     0    15     0     0
SMALL
NO_CHARGES


@<TRIPOS>ATOM
      1 OD1        34.2815  -33.7640   37.6350 O.co2     3 ASC3        0.0000 
      2 OD1        32.5320  -34.1160   38.4600 O.co2    13 ASL3        0.0000 
      3 OD1        36.0310  -33.4120   36.8100 O.co2     8 ASP3        0.0000 
      4 OD1        32.2860  -33.9670   39.6710 O.co2     3 ASC3        0.0000 
      5 OD1        32.0400  -33.8180   40.8820 O.co2     8 ASP3        0.0000 
      6 O          33.5270  -35.1325   38.2125 O.2       1 ALC1        0.0000 
      7 O          32.5320  -34.1160   38.4600 O.2      11 ALL1        0.0000 
      8 O          34.5220  -36.1490   37.9650 O.2       6 ALP1        0.0000 
      9 O          32.6245  -32.9880   37.4695 O.2       1 ALC1        0.0000 
     10 O          32.7170  -31.8600   36.4790 O.2       6 ALP1        0.0000 
     11 O          32.2860  -33.9670   39.6710 O.2       1 ALC1        0.0000 
     12 O          32.0400  -33.8180   40.8820 O.2       6 ALP1        0.0000 
     13 CA         31.7810  -32.5490   37.2130 C.3       5 GLC5        0.0000 
     14 CA         31.2940  -34.5760   37.8240 C.3      15 GLL5        0.0000 
     15 CA         32.2680  -30.5220   36.6020 C.3      10 GLP5        0.0000 
     16 CA         28.8870  -36.5935   38.7710 C.3       5 GLC5        0.0000 
     17 CA         30.6670  -35.7710   38.5470 C.3      15 GLL5        0.0000 
     18 CA         27.1070  -37.4160   38.9950 C.3      10 GLP5        0.0000 
     19 CA         28.9830  -37.7905   39.4770 C.3       5 GLC5        0.0000 
     20 CA         30.8590  -38.1650   39.9590 C.3      15 GLL5        0.0000 
     21 N          29.7655  -32.2045   36.1530 N.am      2 SEC2        0.0000 
     22 N          29.4190  -33.4450   36.8720 N.am     12 SEL2        0.0000 
     23 N          30.1120  -30.9640   35.4340 N.am      7 SEP2        0.0000 
     24 NZ         29.9685  -32.8260   40.1540 N.4       4 LYC4        0.0000 
     25 NZ         30.2990  -32.5170   38.5390 N.4      14 LYL4        0.0000 
     26 NZ         29.6380  -33.1350   41.7690 N.4       9 LYP4        0.0000 
     27 N          29.5750  -31.2565   38.4815 N.am      2 SEC2        0.0000 
     28 N          30.2990  -32.5170   38.5390 N.am     12 SEL2        0.0000 
     29 N          28.8510  -29.9960   38.4240 N.am      7 SEP2        0.0000 
     30 N          30.2055  -31.7405   36.9865 N.am      2 SEC2        0.0000 
     31 CA         33.8205  -38.7635   41.8475 C.3       5 GLC5        0.0000 
     32 CA         32.4040  -39.1060   40.1960 C.3      15 GLL5        0.0000 
     33 CA         35.2370  -38.4210   43.4990 C.3      10 GLP5        0.0000 
     34 O          32.4625  -40.6295   36.4140 O.2       1 ALC1        0.0000 
     35 O          31.3990  -40.8710   37.4100 O.2      11 ALL1        0.0000 
     36 O          33.5260  -40.3880   35.4180 O.2       6 ALP1        0.0000 
     37 O          33.0055  -42.8715   36.3755 O.2       1 ALC1        0.0000 
     38 O          32.5950  -43.1690   37.5140 O.2      11 ALL1        0.0000 
     39 O          33.4160  -42.5740   35.2370 O.2       6 ALP1        0.0000 
     40 CA         35.6555  -40.7610   39.6450 C.3       5 GLC5        0.0000 
     41 CA         34.2220  -41.7070   38.4550 C.3      15 GLL5        0.0000 
     42 CA         37.0890  -39.8150   40.8350 C.3      10 GLP5        0.0000 
     43 CA         40.7435  -42.7700   38.1035 C.3       5 GLC5        0.0000 
     44 CA         38.8860  -42.6170   39.1350 C.3      15 GLL5        0.0000 
     45 CA         42.6010  -42.9230   37.0720 C.3      10 GLP5        0.0000 
     46 O          41.1550  -42.9695   39.8845 O.2       1 ALC1        0.0000 
     47 O          39.7910  -43.2150   39.8960 O.2      11 ALL1        0.0000 
     48 O          42.5190  -42.7240   39.8730 O.2       6 ALP1        0.0000 
     49 N          40.5665  -41.3240   37.8860 N.am      2 SEC2        0.0000 
     50 N          39.2910  -41.9100   38.0230 N.am     12 SEL2        0.0000 
     51 N          41.8420  -40.7380   37.7490 N.am      7 SEP2        0.0000 
     52 CA         37.4490  -39.3695   37.6725 C.3       5 GLC5        0.0000 
     53 CA         38.3870  -41.2830   37.2070 C.3      15 GLL5        0.0000 
     54 CA         36.5110  -37.4560   38.1380 C.3      10 GLP5        0.0000 
     55 CA         37.4330  -41.1045   35.4785 C.3       5 GLC5        0.0000 
     56 CA         36.4790  -40.9260   33.7500 C.3      10 GLP5        0.0000 
     57 CA         38.6010  -43.0620   36.6890 C.3       5 GLC5        0.0000 
     58 CA         38.8150  -44.8410   36.1710 C.3      10 GLP5        0.0000 
     59 CA         40.1440  -40.2915   37.5690 C.3       5 GLC5        0.0000 
     60 CA         41.9010  -39.3000   37.9310 C.3      10 GLP5        0.0000 
     61 N          36.7890  -42.2925   36.0510 N.am      2 SEC2        0.0000 
     62 N          37.0520  -41.3820   37.5120 N.am     12 SEL2        0.0000 
     63 N          36.5260  -43.2030   34.5900 N.am      7 SEP2        0.0000 
     64 CA         36.3640  -39.9325   39.0835 C.3       5 GLC5        0.0000 
     65 CA         36.6470  -42.0830   38.5950 C.3      15 GLL5        0.0000 
     66 CA         36.0810  -37.7820   39.5720 C.3      10 GLP5        0.0000 
     67 CA         36.9975  -43.6095   37.2260 C.3       5 GLC5        0.0000 
     68 CA         37.3480  -45.1360   35.8570 C.3      10 GLP5        0.0000 
     69 CA         31.2948  -37.2027   36.8235 C.3       5 GLC5        0.0000 
     70 CA         31.6480  -36.8860   38.9430 C.3      15 GLL5        0.0000 
     71 CA         31.4320  -38.0770   34.9020 C.3      10 GLP5        0.0000 
     72 CA         30.1813  -39.7623   40.6298 C.3       5 GLC5        0.0000 
     73 CA         28.7310  -40.8890   41.1820 C.3      10 GLP5        0.0000 
     74 CA         34.3530  -38.6538   39.5855 C.3       5 GLC5        0.0000 
     75 CA         33.3580  -40.2892   41.3055 C.3       5 GLC5        0.0000 
     76 CA         32.8460  -39.9450   39.0020 C.3      15 GLL5        0.0000 
     77 CA         34.0910  -41.0530   43.0120 C.3      10 GLP5        0.0000 
     78 CA         30.7437  -41.9682   39.8580 C.3       5 GLC5        0.0000 
     79 CA         31.9420  -41.1270   38.6830 C.3      15 GLL5        0.0000 
     80 CA         29.0890  -42.2010   41.0610 C.3      10 GLP5        0.0000 
     81 CA         38.6870  -44.0155   38.4125 C.3       5 GLC5        0.0000 
     82 CA         37.5380  -42.7170   39.4290 C.3      15 GLL5        0.0000 
     83 CA         39.1620  -45.3640   37.5430 C.3      10 GLP5        0.0000 
@<TRIPOS>BOND
@<TRIPOS>SUBSTRUCTURE
     1 ALC1        6 GROUP        1 X    ALC  0     ROOT ALC X 1
     2 SEC2       21 GROUP        1 X    SEC  0     **** SEC X 2
     3 ASC3        1 GROUP        1 X    ASC  0     **** ASC X 3
     4 LYC4       24 GROUP        1 X    LYC  0     **** LYC X 4
     5 GLC5       13 GROUP        1 X    GLC  0     **** GLC X 6
     6 ALP1        8 GROUP        1 Y    ALP  0     ROOT ALP Y 8
     7 SEP2       23 GROUP        1 Y    SEP  0     **** SEP Y 9
     8 ASP3        3 GROUP        1 Y    ASP  0     **** ASP Y 10
     9 LYP4       26 GROUP        1 Y    LYP  0     **** LYP Y 11
    10 GLP5       15 GROUP        1 Y    GLP  0     **** GLP Y 13
    11 ALL1        7 GROUP        1 Z    ALL  0     ROOT ALL Z 15
    12 SEL2       22 GROUP        1 Z    SEL  0     **** SEL Z 16
    13 ASL3        2 GROUP        1 Z    ASL  0     **** ASL Z 17
    14 LYL4       25 GROUP        1 Z    LYL  0     **** LYL Z 18
    15 GLL5       14 GROUP        1 Z    GLL  0     **** GLL Z 20
@<TRIPOS>SET

