#    Name: 4blw_SAH_2_ligand
#    Modification time : Tue Mar 25 07:56:06 2014

@<TRIPOS>MOLECULE
4blw_SAH_2_ligand
   46    48     1     0     0
SMALL
NO_CHARGES


@<TRIPOS>ATOM
      1 N          32.5320  -34.1160   38.4600 N.4       1 SAH1281     0.0000 
      2 CA         31.2940  -34.5760   37.8240 C.3       1 SAH1281     0.0000 
      3 CB         30.6670  -35.7710   38.5470 C.3       1 SAH1281     0.0000 
      4 CG         31.6480  -36.8860   38.9430 C.3       1 SAH1281     0.0000 
      5 SD         30.8590  -38.1650   39.9590 S.3       1 SAH1281     0.0000 
      6 C          30.2810  -33.4460   37.7410 C.2       1 SAH1281     0.0000 
      7 O          29.4190  -33.4450   36.8720 O.co2     1 SAH1281     0.0000 
      8 OXT        30.2990  -32.5170   38.5390 O.co2     1 SAH1281     0.0000 
      9 C5'        32.4040  -39.1060   40.1960 C.3       1 SAH1281     0.0000 
     10 C4'        32.8460  -39.9450   39.0020 C.3       1 SAH1281     0.0000 
     11 O4'        34.1160  -40.5230   39.2190 O.3       1 SAH1281     0.0000 
     12 C3'        31.9420  -41.1270   38.6830 C.3       1 SAH1281     0.0000 
     13 O3'        31.3990  -40.8710   37.4100 O.3       1 SAH1281     0.0000 
     14 C2'        32.8550  -42.3440   38.6270 C.3       1 SAH1281     0.0000 
     15 O2'        32.5950  -43.1690   37.5140 O.3       1 SAH1281     0.0000 
     16 C1'        34.2220  -41.7070   38.4550 C.3       1 SAH1281     0.0000 
     17 N9         35.3940  -42.3200   39.0790 N.pl3     1 SAH1281     0.0000 
     18 C8         35.5070  -43.0710   40.2200 C.2       1 SAH1281     0.0000 
     19 N7         36.8280  -43.3170   40.4160 N.2       1 SAH1281     0.0000 
     20 C5         37.5380  -42.7170   39.4290 C.ar      1 SAH1281     0.0000 
     21 C6         38.8860  -42.6170   39.1350 C.ar      1 SAH1281     0.0000 
     22 N6         39.7910  -43.2150   39.8960 N.pl3     1 SAH1281     0.0000 
     23 N1         39.2910  -41.9100   38.0230 N.ar      1 SAH1281     0.0000 
     24 C2         38.3870  -41.2830   37.2070 C.ar      1 SAH1281     0.0000 
     25 N3         37.0520  -41.3820   37.5120 N.ar      1 SAH1281     0.0000 
     26 C4         36.6470  -42.0830   38.5950 C.ar      1 SAH1281     0.0000 
     27 H          31.5061  -34.8941   36.7937 H         1 SAH1281     0.0000 
     28 H          29.8798  -36.2061   37.9020 H         1 SAH1281     0.0000 
     29 H          30.1570  -35.4088   39.4601 H         1 SAH1281     0.0000 
     30 H          32.4425  -36.5472   39.5735 H         1 SAH1281     0.0000 
     31 H          32.0125  -37.4460   38.1081 H         1 SAH1281     0.0000 
     32 H          32.1741  -39.6951   41.0770 H         1 SAH1281     0.0000 
     33 H          33.1059  -38.3215   40.4566 H         1 SAH1281     0.0000 
     34 H          32.8764  -39.3124   38.1152 H         1 SAH1281     0.0000 
     35 H          31.2385  -41.2366   39.4406 H         1 SAH1281     0.0000 
     36 H          32.8349  -42.8310   39.5581 H         1 SAH1281     0.0000 
     37 H          34.3947  -41.4538   37.4458 H         1 SAH1281     0.0000 
     38 H          34.7853  -43.3635   40.7704 H         1 SAH1281     0.0000 
     39 H          40.7458  -43.0855   39.6284 H         1 SAH1281     0.0000 
     40 H          39.4373  -43.7416   40.6690 H         1 SAH1281     0.0000 
     41 H          38.6981  -40.7524   36.3883 H         1 SAH1281     0.0000 
     42 H          33.2288  -34.8330   38.4781 H         1 SAH1281     0.0000 
     43 H          32.9284  -33.3341   37.9789 H         1 SAH1281     0.0000 
     44 H          32.3797  -33.8313   39.4064 H         1 SAH1281     0.0000 
     45 H          32.1157  -40.3771   36.9176 H         1 SAH1281     0.0000 
     46 H          33.3580  -43.0072   36.8882 H         1 SAH1281     0.0000 
@<TRIPOS>BOND
     1    2    1 1    
     2   42    1 1    
     3   43    1 1    
     4   44    1 1    
     5    3    2 1    
     6    6    2 1    
     7   27    2 1    
     8    4    3 1    
     9   28    3 1    
    10   29    3 1    
    11    5    4 1    
    12   30    4 1    
    13   31    4 1    
    14    9    5 1    
    15    7    6 ar   
    16    8    6 ar   
    17   10    9 1    
    18   32    9 1    
    19   33    9 1    
    20   11   10 1    
    21   12   10 1    
    22   34   10 1    
    23   16   11 1    
    24   13   12 1    
    25   14   12 1    
    26   35   12 1    
    27   45   13 1    
    28   15   14 1    
    29   16   14 1    
    30   36   14 1    
    31   46   15 1    
    32   17   16 1    
    33   37   16 1    
    34   18   17 1    
    35   26   17 1    
    36   19   18 2    
    37   38   18 1    
    38   20   19 1    
    39   21   20 ar   
    40   26   20 ar   
    41   22   21 1    
    42   23   21 ar   
    43   39   22 1    
    44   40   22 1    
    45   24   23 ar   
    46   25   24 ar   
    47   41   24 1    
    48   26   25 ar   
@<TRIPOS>SUBSTRUCTURE
     1 SAH1281     1 GROUP   
@<TRIPOS>SET

