#    Name: 2gmj_FAD_7_INTS_M
#    Modification time : Tue Mar 25 14:44:28 2014

@<TRIPOS>MOLECULE
2gmj_FAD_7_INTS_M
  126     0     9     0     0
SMALL
NO_CHARGES


@<TRIPOS>ATOM
      1 CA         56.2225   26.2705   52.3535 C.3       3 GLC5        0.0000 
      2 CA         56.0070   27.8820   53.7580 C.3       9 GLL5        0.0000 
      3 CA         56.4380   24.6590   50.9490 C.3       6 GLP5        0.0000 
      4 CA         56.6385   26.0940   54.1940 C.3       3 GLC5        0.0000 
      5 CA         57.2700   24.3060   54.6300 C.3       6 GLP5        0.0000 
      6 CA         56.0060   29.1025   50.9840 C.3       3 GLC5        0.0000 
      7 CA         55.2530   28.9030   52.8740 C.3       9 GLL5        0.0000 
      8 CA         56.7590   29.3020   49.0940 C.3       6 GLP5        0.0000 
      9 O          52.9480   31.0035   52.0345 O.2       1 ALC1        0.0000 
     10 O          53.8000   30.7720   53.4880 O.2       7 ALL1        0.0000 
     11 O          52.0960   31.2350   50.5810 O.2       4 ALP1        0.0000 
     12 O          53.9215   31.4025   52.3255 O.2       1 ALC1        0.0000 
     13 O          54.0430   32.0330   51.1630 O.2       4 ALP1        0.0000 
     14 O          51.9140   30.3280   51.4905 O.2       1 ALC1        0.0000 
     15 O          51.7320   29.4210   52.4000 O.2       7 ALL1        0.0000 
     16 CA         55.2110   28.9490   50.1485 C.3       3 GLC5        0.0000 
     17 CA         53.6630   28.5960   51.2030 C.3       9 GLL5        0.0000 
     18 CA         52.7835   25.8735   45.1920 C.3       3 GLC5        0.0000 
     19 CA         52.3880   25.9560   47.3430 C.3       9 GLL5        0.0000 
     20 CA         53.1790   25.7910   43.0410 C.3       6 GLP5        0.0000 
     21 CA         50.2540   25.2595   47.4515 C.3       3 GLC5        0.0000 
     22 CA         48.1200   24.5630   47.5600 C.3       6 GLP5        0.0000 
     23 O          51.4770   24.5600   45.4480 O.2       1 ALC1        0.0000 
     24 O          52.0990   24.7790   46.8710 O.2       7 ALL1        0.0000 
     25 O          50.8550   24.3410   44.0250 O.2       4 ALP1        0.0000 
     26 O          52.9785   23.5850   47.2615 O.2       1 ALC1        0.0000 
     27 O          53.8580   22.3910   47.6520 O.2       4 ALP1        0.0000 
     28 N          51.8060   27.0490   45.0720 N.am      2 SEC2        0.0000 
     29 N          52.3900   27.0410   46.5210 N.am      8 SEL2        0.0000 
     30 N          51.2220   27.0570   43.6230 N.am      5 SEP2        0.0000 
     31 CA         54.3255   27.1465   46.3940 C.3       3 GLC5        0.0000 
     32 CA         52.6930   28.2780   47.0150 C.3       9 GLL5        0.0000 
     33 CA         55.9580   26.0150   45.7730 C.3       6 GLP5        0.0000 
     34 CA         53.8580   29.0010   45.3590 C.3       3 GLC5        0.0000 
     35 CA         55.0230   29.7240   43.7030 C.3       6 GLP5        0.0000 
     36 CA         52.8200   30.1770   47.2030 C.3       3 GLC5        0.0000 
     37 CA         52.9470   32.0760   47.3910 C.3       6 GLP5        0.0000 
     38 CA         51.2190   28.2585   47.9955 C.3       3 GLC5        0.0000 
     39 CA         49.7450   28.2390   48.9760 C.3       6 GLP5        0.0000 
     40 CA         51.1760   28.4865   45.7295 C.3       3 GLC5        0.0000 
     41 CA         49.6590   28.6950   44.4440 C.3       6 GLP5        0.0000 
     42 N          51.9845   29.7745   48.2685 N.am      2 SEC2        0.0000 
     43 N          53.0110   28.5870   48.2750 N.am      8 SEL2        0.0000 
     44 N          50.9580   30.9620   48.2620 N.am      5 SEP2        0.0000 
     45 CA         54.8790   28.3855   49.0880 C.3       3 GLC5        0.0000 
     46 CA         52.9990   27.4690   49.0820 C.3       9 GLL5        0.0000 
     47 N          62.0845   27.1675   64.4180 N.am      2 SEC2        0.0000 
     48 N          60.9270   28.2480   64.8150 N.am      8 SEL2        0.0000 
     49 N          63.2420   26.0870   64.0210 N.am      5 SEP2        0.0000 
     50 N          61.2815   29.1405   63.6275 N.am      2 SEC2        0.0000 
     51 N          61.6360   30.0330   62.4400 N.am      5 SEP2        0.0000 
     52 N          63.0645   27.6155   64.4735 N.am      2 SEC2        0.0000 
     53 N          62.8870   29.1440   64.9260 N.am      8 SEL2        0.0000 
     54 N          63.1930   28.5415   63.5580 N.am      2 SEC2        0.0000 
     55 N          63.4990   27.9390   62.1900 N.am      5 SEP2        0.0000 
     56 N          62.2615   29.5885   63.6830 N.am      2 SEC2        0.0000 
     57 O          62.3575   30.2860   67.2805 O.2       1 ALC1        0.0000 
     58 O          61.5040   29.3370   66.8020 O.2       7 ALL1        0.0000 
     59 O          63.2110   31.2350   67.7590 O.2       4 ALP1        0.0000 
     60 N          60.4605   30.8865   68.5210 N.am      2 SEC2        0.0000 
     61 N          60.1320   29.5220   68.6580 N.am      8 SEL2        0.0000 
     62 N          60.7890   32.2510   68.3840 N.am      5 SEP2        0.0000 
     63 N          56.8545   29.2765   67.0740 N.am      2 SEC2        0.0000 
     64 N          58.0780   28.1380   67.2900 N.am      8 SEL2        0.0000 
     65 N          55.6310   30.4150   66.8580 N.am      5 SEP2        0.0000 
     66 CA         58.1300   26.1100   67.6905 C.3       3 GLC5        0.0000 
     67 CA         57.1490   27.4790   66.4900 C.3       9 GLL5        0.0000 
     68 CA         59.1110   24.7410   68.8910 C.3       6 GLP5        0.0000 
     69 CA         52.2230   25.0075   66.9550 C.3       3 GLC5        0.0000 
     70 CA         53.4590   26.4720   67.0400 C.3       9 GLL5        0.0000 
     71 CA         50.9870   23.5430   66.8700 C.3       6 GLP5        0.0000 
     72 CA         53.4710   27.1550   68.7415 C.3       3 GLC5        0.0000 
     73 CA         53.4830   27.8380   70.4430 C.3       6 GLP5        0.0000 
     74 CA         52.6965   25.6335   62.8115 C.3       3 GLC5        0.0000 
     75 CA         54.0140   25.5600   64.1320 C.3       9 GLL5        0.0000 
     76 CA         51.3790   25.7070   61.4910 C.3       6 GLP5        0.0000 
     77 CA         56.8220   28.8005   64.4980 C.3       3 GLC5        0.0000 
     78 CA         57.3650   27.0150   65.1280 C.3       9 GLL5        0.0000 
     79 CA         56.2790   30.5860   63.8680 C.3       6 GLP5        0.0000 
     80 CA         57.6530   29.1625   63.0015 C.3       3 GLC5        0.0000 
     81 CA         59.0270   27.7390   62.1350 C.3       9 GLL5        0.0000 
     82 CA         58.6450   29.8375   61.7200 C.3       3 GLC5        0.0000 
     83 CA         58.2630   31.9360   61.3050 C.3       6 GLP5        0.0000 
     84 N          57.5530   29.1830   63.2925 N.am      2 SEC2        0.0000 
     85 N          57.7260   28.2680   61.9880 N.am      8 SEL2        0.0000 
     86 N          57.3800   30.0980   64.5970 N.am      5 SEP2        0.0000 
     87 CA         61.6065   28.4165   60.4750 C.3       3 GLC5        0.0000 
     88 CA         59.6490   27.7240   59.6270 C.3       9 GLL5        0.0000 
     89 CA         63.5640   29.1090   61.3230 C.3       6 GLP5        0.0000 
     90 CA         59.7870   25.0230   58.1050 C.3       3 GLC5        0.0000 
     91 CA         59.6420   26.8040   58.4530 C.3       9 GLL5        0.0000 
     92 CA         59.9320   23.2420   57.7570 C.3       6 GLP5        0.0000 
     93 CA         61.8160   27.0980   58.0655 C.3       3 GLC5        0.0000 
     94 CA         63.9900   27.3920   57.6780 C.3       6 GLP5        0.0000 
     95 N          61.6465   29.4970   54.9015 N.am      2 SEC2        0.0000 
     96 N          60.7040   28.6570   55.3380 N.am      8 SEL2        0.0000 
     97 N          62.5890   30.3370   54.4650 N.am      5 SEP2        0.0000 
     98 N          60.8440   24.9410   55.6575 N.am      2 SEC2        0.0000 
     99 N          60.1370   26.1750   55.3170 N.am      8 SEL2        0.0000 
    100 N          61.5510   23.7070   55.9980 N.am      5 SEP2        0.0000 
    101 CA         57.0165   30.0293   53.6280 C.3       3 GLC5        0.0000 
    102 CA         58.4030   31.6660   53.9400 C.3       6 GLP5        0.0000 
    103 CA         51.5273   27.9630   51.5843 C.3       3 GLC5        0.0000 
    104 CA         49.7600   27.2940   51.2990 C.3       6 GLP5        0.0000 
    105 CA         54.2520   26.0340   46.9015 C.3       3 GLC5        0.0000 
    106 CA         52.7040   26.1500   48.7170 C.3       9 GLL5        0.0000 
    107 CA         54.0580   24.8060   48.4215 C.3       3 GLC5        0.0000 
    108 CA         55.5700   23.5590   48.8130 C.3       6 GLP5        0.0000 
    109 CA         51.2587   27.5000   48.7660 C.3       3 GLC5        0.0000 
    110 CA         55.7300   28.7847   65.6523 C.3       3 GLC5        0.0000 
    111 CA         54.9620   30.1990   64.5220 C.3       6 GLP5        0.0000 
    112 CA         56.0210   29.2207   67.4657 C.3       3 GLC5        0.0000 
    113 CA         55.8470   27.2620   67.0750 C.3       9 GLL5        0.0000 
    114 CA         55.5440   31.0710   68.1490 C.3       6 GLP5        0.0000 
    115 CA         54.9740   24.7000   66.3570 C.3       3 GLC5        0.0000 
    116 CA         54.8130   26.6440   66.3560 C.3       9 GLL5        0.0000 
    117 CA         55.8120   22.8420   66.0160 C.3       6 GLP5        0.0000 
    118 CA         55.2841   28.2993   64.7824 C.3       3 GLC5        0.0000 
    119 CA         56.2790   26.3760   64.4150 C.3       9 GLL5        0.0000 
    120 CA         55.6093   24.4853   65.2514 C.3       3 GLC5        0.0000 
    121 CA         55.0540   26.2020   64.9850 C.3       9 GLL5        0.0000 
    122 CA         60.1547   25.3732   59.7897 C.3       3 GLC5        0.0000 
    123 CA         59.4340   26.9190   60.9280 C.3       9 GLL5        0.0000 
    124 CA         60.7680   23.4250   59.3020 C.3       6 GLP5        0.0000 
    125 CA         60.2242   29.0965   58.2745 C.3       3 GLC5        0.0000 
    126 CA         60.8030   30.9290   57.5090 C.3       6 GLP5        0.0000 
@<TRIPOS>BOND
@<TRIPOS>SUBSTRUCTURE
     1 ALC1        9 GROUP        1 X    ALC  0     ROOT ALC X 1
     2 SEC2       28 GROUP        1 X    SEC  0     **** SEC X 2
     3 GLC5        1 GROUP        1 X    GLC  0     **** GLC X 6
     4 ALP1       11 GROUP        1 Y    ALP  0     ROOT ALP Y 8
     5 SEP2       30 GROUP        1 Y    SEP  0     **** SEP Y 9
     6 GLP5        3 GROUP        1 Y    GLP  0     **** GLP Y 13
     7 ALL1       10 GROUP        1 Z    ALL  0     ROOT ALL Z 15
     8 SEL2       29 GROUP        1 Z    SEL  0     **** SEL Z 16
     9 GLL5        2 GROUP        1 Z    GLL  0     **** GLL Z 20
@<TRIPOS>SET

