#    Name: 2gmj_FAD_7_ligand
#    Modification time : Tue Mar 25 14:44:28 2014

@<TRIPOS>MOLECULE
2gmj_FAD_7_ligand
   84    89     1     0     0
SMALL
NO_CHARGES


@<TRIPOS>ATOM
      1 PA         57.0100   28.0480   56.2300 P.3       1 FAD611      0.0000 
      2 O1A        56.9700   29.1420   57.1970 O.co2     1 FAD611      0.0000 
      3 O2A        56.5410   26.7030   56.6420 O.co2     1 FAD611      0.0000 
      4 O5B        56.2380   28.5630   54.9830 O.3       1 FAD611      0.0000 
      5 C5B        56.0070   27.8820   53.7580 C.3       1 FAD611      0.0000 
      6 C4B        55.2530   28.9030   52.8740 C.3       1 FAD611      0.0000 
      7 O4B        54.9930   28.3170   51.6750 O.3       1 FAD611      0.0000 
      8 C3B        53.8960   29.2970   53.5090 C.3       1 FAD611      0.0000 
      9 O3B        53.8000   30.7720   53.4880 O.3       1 FAD611      0.0000 
     10 C2B        52.9260   28.6680   52.5360 C.3       1 FAD611      0.0000 
     11 O2B        51.7320   29.4210   52.4000 O.3       1 FAD611      0.0000 
     12 C1B        53.6630   28.5960   51.2030 C.3       1 FAD611      0.0000 
     13 N9A        53.2720   27.4410   50.3810 N.pl3     1 FAD611      0.0000 
     14 C8A        53.1230   26.0900   50.7640 C.2       1 FAD611      0.0000 
     15 N7A        52.7830   25.2800   49.7940 N.2       1 FAD611      0.0000 
     16 C5A        52.7040   26.1500   48.7170 C.ar      1 FAD611      0.0000 
     17 C6A        52.3880   25.9560   47.3430 C.ar      1 FAD611      0.0000 
     18 N6A        52.0990   24.7790   46.8710 N.pl3     1 FAD611      0.0000 
     19 N1A        52.3900   27.0410   46.5210 N.ar      1 FAD611      0.0000 
     20 C2A        52.6930   28.2780   47.0150 C.ar      1 FAD611      0.0000 
     21 N3A        53.0110   28.5870   48.2750 N.ar      1 FAD611      0.0000 
     22 C4A        52.9990   27.4690   49.0820 C.ar      1 FAD611      0.0000 
     23 N1         60.9270   28.2480   64.8150 N.2       1 FAD611      0.0000 
     24 C2         61.8330   28.9250   65.4890 C.2       1 FAD611      0.0000 
     25 O2         62.8870   29.1440   64.9260 O.2       1 FAD611      0.0000 
     26 N3         61.5040   29.3370   66.8020 N.am      1 FAD611      0.0000 
     27 C4         60.2730   29.0990   67.4900 C.2       1 FAD611      0.0000 
     28 O4         60.1320   29.5220   68.6580 O.2       1 FAD611      0.0000 
     29 C4X        59.3110   28.3740   66.6910 C.2       1 FAD611      0.0000 
     30 N5         58.0780   28.1380   67.2900 N.2       1 FAD611      0.0000 
     31 C5X        57.1490   27.4790   66.4900 C.ar      1 FAD611      0.0000 
     32 C6         55.8470   27.2620   67.0750 C.ar      1 FAD611      0.0000 
     33 C7         54.8130   26.6440   66.3560 C.ar      1 FAD611      0.0000 
     34 C7M        53.4590   26.4720   67.0400 C.3       1 FAD611      0.0000 
     35 C8         55.0540   26.2020   64.9850 C.ar      1 FAD611      0.0000 
     36 C8M        54.0140   25.5600   64.1320 C.3       1 FAD611      0.0000 
     37 C9         56.2790   26.3760   64.4150 C.ar      1 FAD611      0.0000 
     38 C9A        57.3650   27.0150   65.1280 C.ar      1 FAD611      0.0000 
     39 N10        58.7140   27.2670   64.5740 N.pl3     1 FAD611      0.0000 
     40 C10        59.7140   27.9850   65.3760 C.2       1 FAD611      0.0000 
     41 C1'        59.0500   26.8670   63.2840 C.3       1 FAD611      0.0000 
     42 C2'        59.0270   27.7390   62.1350 C.3       1 FAD611      0.0000 
     43 O2'        57.7260   28.2680   61.9880 O.3       1 FAD611      0.0000 
     44 C3'        59.4340   26.9190   60.9280 C.3       1 FAD611      0.0000 
     45 O3'        60.5400   25.9820   60.9270 O.3       1 FAD611      0.0000 
     46 C4'        59.6490   27.7240   59.6270 C.3       1 FAD611      0.0000 
     47 O4'        58.6920   28.7260   59.3620 O.3       1 FAD611      0.0000 
     48 C5'        59.6420   26.8040   58.4530 C.3       1 FAD611      0.0000 
     49 O5'        59.8290   27.5560   57.2810 O.3       1 FAD611      0.0000 
     50 P          59.8560   27.5760   55.8060 P.3       1 FAD611      0.0000 
     51 O1P        60.7040   28.6570   55.3380 O.co2     1 FAD611      0.0000 
     52 O2P        60.1370   26.1750   55.3170 O.co2     1 FAD611      0.0000 
     53 O3P        58.3170   27.9020   55.5200 O.3       1 FAD611      0.0000 
     54 H          55.3723   27.0213   53.8737 H         1 FAD611      0.0000 
     55 H          56.9179   27.6215   53.2486 H         1 FAD611      0.0000 
     56 H          55.8510   29.7852   52.7971 H         1 FAD611      0.0000 
     57 H          53.8236   28.8741   54.4373 H         1 FAD611      0.0000 
     58 H          52.7416   27.6542   52.8538 H         1 FAD611      0.0000 
     59 H          53.6180   29.4993   50.7166 H         1 FAD611      0.0000 
     60 H          53.2777   25.8243   51.7197 H         1 FAD611      0.0000 
     61 H          52.5416   24.0035   47.3213 H         1 FAD611      0.0000 
     62 H          51.4609   24.7581   46.1014 H         1 FAD611      0.0000 
     63 H          52.6696   29.0951   46.2926 H         1 FAD611      0.0000 
     64 H          62.2473   29.8819   67.3391 H         1 FAD611      0.0000 
     65 H          55.6913   27.5741   68.0427 H         1 FAD611      0.0000 
     66 H          56.4750   26.0560   63.4494 H         1 FAD611      0.0000 
     67 H          58.4192   25.9184   63.0054 H         1 FAD611      0.0000 
     68 H          60.1080   26.3615   63.3079 H         1 FAD611      0.0000 
     69 H          59.7607   28.5225   62.2644 H         1 FAD611      0.0000 
     70 H          58.4965   26.2784   60.6358 H         1 FAD611      0.0000 
     71 H          60.6600   28.1595   59.6776 H         1 FAD611      0.0000 
     72 H          58.6848   26.2627   58.4434 H         1 FAD611      0.0000 
     73 H          60.4387   26.0590   58.5926 H         1 FAD611      0.0000 
     74 H          53.5294   25.9167   67.8687 H         1 FAD611      0.0000 
     75 H          53.0643   27.3507   67.3086 H         1 FAD611      0.0000 
     76 H          52.7951   26.0231   66.4419 H         1 FAD611      0.0000 
     77 H          54.3672   25.3307   63.2250 H         1 FAD611      0.0000 
     78 H          53.6734   24.7115   64.5370 H         1 FAD611      0.0000 
     79 H          53.2239   26.1578   63.9964 H         1 FAD611      0.0000 
     80 H          53.9192   31.0254   52.5280 H         1 FAD611      0.0000 
     81 H          51.7258   29.7263   51.4478 H         1 FAD611      0.0000 
     82 H          57.6813   28.5853   61.0407 H         1 FAD611      0.0000 
     83 H          60.2549   25.2459   60.3131 H         1 FAD611      0.0000 
     84 H          58.3352   28.5091   58.4534 H         1 FAD611      0.0000 
@<TRIPOS>BOND
     1    2    1 ar   
     2    3    1 ar   
     3    4    1 1    
     4   53    1 1    
     5    5    4 1    
     6    6    5 1    
     7   54    5 1    
     8   55    5 1    
     9    7    6 1    
    10    8    6 1    
    11   56    6 1    
    12   12    7 1    
    13    9    8 1    
    14   10    8 1    
    15   57    8 1    
    16   80    9 1    
    17   11   10 1    
    18   12   10 1    
    19   58   10 1    
    20   81   11 1    
    21   13   12 1    
    22   59   12 1    
    23   14   13 1    
    24   22   13 1    
    25   15   14 2    
    26   60   14 1    
    27   16   15 1    
    28   17   16 ar   
    29   22   16 ar   
    30   18   17 1    
    31   19   17 ar   
    32   61   18 1    
    33   62   18 1    
    34   20   19 ar   
    35   21   20 ar   
    36   63   20 1    
    37   22   21 ar   
    38   24   23 1    
    39   40   23 2    
    40   25   24 2    
    41   26   24 am   
    42   27   26 am   
    43   64   26 1    
    44   28   27 2    
    45   29   27 1    
    46   30   29 2    
    47   40   29 1    
    48   31   30 1    
    49   32   31 ar   
    50   38   31 ar   
    51   33   32 ar   
    52   65   32 1    
    53   34   33 1    
    54   35   33 ar   
    55   74   34 1    
    56   75   34 1    
    57   76   34 1    
    58   36   35 1    
    59   37   35 ar   
    60   77   36 1    
    61   78   36 1    
    62   79   36 1    
    63   38   37 ar   
    64   66   37 1    
    65   39   38 1    
    66   40   39 1    
    67   41   39 1    
    68   42   41 1    
    69   67   41 1    
    70   68   41 1    
    71   43   42 1    
    72   44   42 1    
    73   69   42 1    
    74   82   43 1    
    75   45   44 1    
    76   46   44 1    
    77   70   44 1    
    78   83   45 1    
    79   47   46 1    
    80   48   46 1    
    81   71   46 1    
    82   84   47 1    
    83   49   48 1    
    84   72   48 1    
    85   73   48 1    
    86   50   49 1    
    87   51   50 ar   
    88   52   50 ar   
    89   53   50 1    
@<TRIPOS>SUBSTRUCTURE
     1 FAD611      1 GROUP   
@<TRIPOS>SET

