#    Name: 3n2v_JT5_1_INTS_M
#    Modification time : Tue Mar 25 00:34:27 2014

@<TRIPOS>MOLECULE
3n2v_JT5_1_INTS_M
   57     0    12     0     0
SMALL
NO_CHARGES


@<TRIPOS>ATOM
      1 CA          4.1670   -4.2985    1.8580 C.3       4 GLC5        0.0000 
      2 CA          2.0910   -4.2340    2.2050 C.3      12 GLL5        0.0000 
      3 CA          6.2430   -4.3630    1.5110 C.3       8 GLP5        0.0000 
      4 O           0.1020   -1.7535    5.8975 O.2       1 ALC1        0.0000 
      5 O           1.3560   -1.3850    5.2190 O.2       9 ALL1        0.0000 
      6 O          -1.1520   -2.1220    6.5760 O.2       5 ALP1        0.0000 
      7 Zn          3.3220   -0.9030    5.4280 Zn        3 ZIC7        0.0000 
      8 Zn          2.3080   -0.8300    5.9880 Zn       11 ZIL7        0.0000 
      9 Zn          4.3360   -0.9760    4.8680 Zn        7 ZIP7        0.0000 
     10 O           2.0380   -1.3010    7.2025 O.2       1 ALC1        0.0000 
     11 O           2.3080   -0.8300    5.9880 O.2       9 ALL1        0.0000 
     12 O           1.7680   -1.7720    8.4170 O.2       5 ALP1        0.0000 
     13 Zn          3.6420   -1.4830    4.3560 Zn        3 ZIC7        0.0000 
     14 Zn          2.9480   -1.9900    3.8440 Zn       11 ZIL7        0.0000 
     15 Zn          2.6780   -2.4735    4.0440 Zn        3 ZIC7        0.0000 
     16 Zn          1.0200   -3.9710    3.2200 Zn       11 ZIL7        0.0000 
     17 N          -1.4835   -5.5840    5.6365 N.am      2 SEC2        0.0000 
     18 N          -0.4210   -4.9260    5.0770 N.am     10 SEL2        0.0000 
     19 N          -2.5460   -6.2420    6.1960 N.am      6 SEP2        0.0000 
     20 N          -1.3410   -4.5150    6.4640 N.am      2 SEC2        0.0000 
     21 N          -2.2610   -4.1040    7.8510 N.am      6 SEP2        0.0000 
     22 CA          4.7820   -8.1160    6.3650 C.3       4 GLC5        0.0000 
     23 CA          4.1950   -6.3050    5.6550 C.3      12 GLL5        0.0000 
     24 CA          5.3690   -9.9270    7.0750 C.3       8 GLP5        0.0000 
     25 CA          4.0465   -7.8840    7.3325 C.3       4 GLC5        0.0000 
     26 CA          4.1370   -5.7880    6.9720 C.3      12 GLL5        0.0000 
     27 CA          3.9560   -9.9800    7.6930 C.3       8 GLP5        0.0000 
     28 CA          2.2365   -5.0410    9.4105 C.3       4 GLC5        0.0000 
     29 CA          3.0540   -4.9820    7.3670 C.3      12 GLL5        0.0000 
     30 CA          1.4190   -5.1000   11.4540 C.3       8 GLP5        0.0000 
     31 CA          0.3885   -5.9365    7.2785 C.3       4 GLC5        0.0000 
     32 CA          1.9840   -4.7290    6.5030 C.3      12 GLL5        0.0000 
     33 CA         -1.2070   -7.1440    8.0540 C.3       8 GLP5        0.0000 
     34 CA          4.4660   -8.1915    8.4785 C.3       4 GLC5        0.0000 
     35 CA          4.9760   -6.4030    9.2640 C.3      12 GLL5        0.0000 
     36 CA          6.3735   -7.4365   12.1275 C.3       4 GLC5        0.0000 
     37 CA          6.0220   -6.6960   10.1740 C.3      12 GLL5        0.0000 
     38 CA          6.7250   -8.1770   14.0810 C.3       8 GLP5        0.0000 
     39 CA          5.1745   -5.6460    4.0055 C.3       4 GLC5        0.0000 
     40 CA          6.6970   -5.1040    2.7640 C.3       8 GLP5        0.0000 
     41 CA          4.8735   -7.4880    4.3990 C.3       4 GLC5        0.0000 
     42 CA          6.0950   -8.7880    3.5510 C.3       8 GLP5        0.0000 
     43 CA          3.7895   -3.4188    7.2670 C.3       4 GLC5        0.0000 
     44 CA          5.0600   -1.9820    7.5990 C.3       8 GLP5        0.0000 
     45 CA          4.5465   -5.9187   11.1795 C.3       4 GLC5        0.0000 
     46 CA          3.5940   -5.2880   12.6400 C.3       8 GLP5        0.0000 
     47 CA          5.8615   -4.6962    9.7395 C.3       4 GLC5        0.0000 
     48 CA          6.2240   -2.8430    9.7600 C.3       8 GLP5        0.0000 
     49 CA          6.8590   -4.7520    9.3972 C.3       4 GLC5        0.0000 
     50 CA          7.3620   -6.7730    9.7210 C.3      12 GLL5        0.0000 
     51 CA          8.8160   -5.6135   10.0563 C.3       4 GLC5        0.0000 
     52 CA         10.1380   -4.5660   11.0780 C.3       8 GLP5        0.0000 
     53 CA          6.0729   -8.1405    7.5431 C.3       4 GLC5        0.0000 
     54 CA          7.6260   -6.5490    8.3480 C.3      12 GLL5        0.0000 
     55 CA          5.8548   -4.3316    7.8613 C.3       4 GLC5        0.0000 
     56 CA          6.5860   -6.2270    7.4530 C.3      12 GLL5        0.0000 
     57 CA          6.0650   -2.5800    8.2790 C.3       8 GLP5        0.0000 
@<TRIPOS>BOND
@<TRIPOS>SUBSTRUCTURE
     1 ALC1        4 GROUP        1 X    ALC  0     ROOT ALC X 1
     2 SEC2       17 GROUP        1 X    SEC  0     **** SEC X 2
     3 ZIC7        7 GROUP        1 X    ZIC  0     **** ZIC X 5
     4 GLC5        1 GROUP        1 X    GLC  0     **** GLC X 6
     5 ALP1        6 GROUP        1 Y    ALP  0     ROOT ALP Y 8
     6 SEP2       19 GROUP        1 Y    SEP  0     **** SEP Y 9
     7 ZIP7        9 GROUP        1 Y    ZIP  0     **** ZIP Y 12
     8 GLP5        3 GROUP        1 Y    GLP  0     **** GLP Y 13
     9 ALL1        5 GROUP        1 Z    ALL  0     ROOT ALL Z 15
    10 SEL2       18 GROUP        1 Z    SEL  0     **** SEL Z 16
    11 ZIL7        8 GROUP        1 Z    ZIL  0     **** ZIL Z 19
    12 GLL5        2 GROUP        1 Z    GLL  0     **** GLL Z 20
@<TRIPOS>SET

