#    Name: 3n2v_JT5_1_ligand
#    Modification time : Tue Mar 25 00:34:27 2014

@<TRIPOS>MOLECULE
3n2v_JT5_1_ligand
   42    43     1     0     0
SMALL
NO_CHARGES


@<TRIPOS>ATOM
      1 C3          1.7480   -1.9720    4.1270 C.2       1 JT50        0.0000 
      2 C4          0.5840   -2.6100    3.3570 C.3       1 JT50        0.0000 
      3 C8          2.0910   -4.2340    2.2050 C.3       1 JT50        0.0000 
      4 N2          1.3560   -1.3850    5.2190 N.am      1 JT50        0.0000 
      5 O1          2.3080   -0.8300    5.9880 O.3       1 JT50        0.0000 
      6 O5          2.9480   -1.9900    3.8440 O.2       1 JT50        0.0000 
      7 N6          1.0200   -3.9710    3.2200 N.pl3     1 JT50        0.0000 
      8 S7          0.7400   -5.1240    4.2050 S.o2      1 JT50        0.0000 
      9 C9          1.6090   -4.3010    0.7770 C.3       1 JT50        0.0000 
     10 O10         0.8810   -3.1050    0.4510 O.3       1 JT50        0.0000 
     11 O11         0.5690   -6.3930    3.4610 O.2       1 JT50        0.0000 
     12 C12         2.0000   -5.3150    5.2240 C.ar      1 JT50        0.0000 
     13 O13        -0.4210   -4.9260    5.0770 O.2       1 JT50        0.0000 
     14 C14         3.1090   -6.0710    4.8390 C.ar      1 JT50        0.0000 
     15 C15         4.1950   -6.3050    5.6550 C.ar      1 JT50        0.0000 
     16 C16         4.1370   -5.7880    6.9720 C.ar      1 JT50        0.0000 
     17 C17         3.0540   -4.9820    7.3670 C.ar      1 JT50        0.0000 
     18 C18         1.9840   -4.7290    6.5030 C.ar      1 JT50        0.0000 
     19 C19         5.2690   -6.0910    7.8960 C.ar      1 JT50        0.0000 
     20 C20         4.9760   -6.4030    9.2640 C.ar      1 JT50        0.0000 
     21 C21         6.0220   -6.6960   10.1740 C.ar      1 JT50        0.0000 
     22 C22         7.3620   -6.7730    9.7210 C.ar      1 JT50        0.0000 
     23 C23         7.6260   -6.5490    8.3480 C.ar      1 JT50        0.0000 
     24 C24         6.5860   -6.2270    7.4530 C.ar      1 JT50        0.0000 
     25 H           0.4942   -2.1165    2.4175 H         1 JT50        0.0000 
     26 H          -0.2963   -2.5240    3.9502 H         1 JT50        0.0000 
     27 H           2.6040   -5.1881    2.4546 H         1 JT50        0.0000 
     28 H           2.8696   -3.4445    2.2831 H         1 JT50        0.0000 
     29 H           0.3652   -1.3361    5.5008 H         1 JT50        0.0000 
     30 H           0.9788   -5.1924    0.6663 H         1 JT50        0.0000 
     31 H           2.4813   -4.4258    0.1232 H         1 JT50        0.0000 
     32 H           3.1088   -6.4832    3.8675 H         1 JT50        0.0000 
     33 H           5.0027   -6.8190    5.3451 H         1 JT50        0.0000 
     34 H           3.0524   -4.5704    8.3149 H         1 JT50        0.0000 
     35 H           1.2119   -4.1369    6.7882 H         1 JT50        0.0000 
     36 H           4.0054   -6.4123    9.5777 H         1 JT50        0.0000 
     37 H           5.8087   -6.8523   11.1606 H         1 JT50        0.0000 
     38 H           8.1120   -6.9830   10.3631 H         1 JT50        0.0000 
     39 H           8.5909   -6.6230    8.0019 H         1 JT50        0.0000 
     40 H           6.8077   -6.0905    6.4542 H         1 JT50        0.0000 
     41 H           2.1158   -1.1564    6.9135 H         1 JT50        0.0000 
     42 H           1.5708   -2.3815    0.4240 H         1 JT50        0.0000 
@<TRIPOS>BOND
     1    2    1 1    
     2    4    1 am   
     3    6    1 2    
     4    7    2 1    
     5   25    2 1    
     6   26    2 1    
     7    7    3 1    
     8    9    3 1    
     9   27    3 1    
    10   28    3 1    
    11    5    4 1    
    12   29    4 1    
    13   41    5 1    
    14    8    7 1    
    15   11    8 2    
    16   12    8 1    
    17   13    8 2    
    18   10    9 1    
    19   30    9 1    
    20   31    9 1    
    21   42   10 1    
    22   14   12 ar   
    23   18   12 ar   
    24   15   14 ar   
    25   32   14 1    
    26   16   15 ar   
    27   33   15 1    
    28   17   16 ar   
    29   19   16 1    
    30   18   17 ar   
    31   34   17 1    
    32   35   18 1    
    33   20   19 ar   
    34   24   19 ar   
    35   21   20 ar   
    36   36   20 1    
    37   22   21 ar   
    38   37   21 1    
    39   23   22 ar   
    40   38   22 1    
    41   24   23 ar   
    42   39   23 1    
    43   40   24 1    
@<TRIPOS>SUBSTRUCTURE
     1 JT50        1 GROUP   
@<TRIPOS>SET

