#    Name: 1w3x_W2X_1_INTS_M
#    Modification time : Tue Mar 25 08:34:41 2014

@<TRIPOS>MOLECULE
1w3x_W2X_1_INTS_M
   64     0    12     0     0
SMALL
NO_CHARGES


@<TRIPOS>ATOM
      1 N           4.5495   37.8395    7.1570 N.am      1 SEC2        0.0000 
      2 N           5.3360   37.8100    6.1160 N.am      9 SEL2        0.0000 
      3 N           3.7630   37.8690    8.1980 N.am      5 SEP2        0.0000 
      4 N           4.4290   34.9730    4.4365 N.am      1 SEC2        0.0000 
      5 N           4.3330   36.2070    4.9270 N.am      9 SEL2        0.0000 
      6 N           4.5250   33.7390    3.9460 N.am      5 SEP2        0.0000 
      7 CA          7.0300   35.6330    5.4645 C.3       4 GLC5        0.0000 
      8 CA          6.4820   36.8720    4.2640 C.3      12 GLL5        0.0000 
      9 CA          7.5780   34.3940    6.6650 C.3       8 GLP5        0.0000 
     10 CA         10.4700   37.8455    3.5890 C.3       4 GLC5        0.0000 
     11 CA          9.4470   39.1060    5.0930 C.3      12 GLL5        0.0000 
     12 CA         11.4930   36.5850    2.0850 C.3       8 GLP5        0.0000 
     13 CA         10.4770   38.1460    2.1685 C.3       4 GLC5        0.0000 
     14 CA          9.4610   39.7070    2.2520 C.3      12 GLL5        0.0000 
     15 CA          8.8595   42.4540    3.0935 C.3       4 GLC5        0.0000 
     16 CA          9.2950   41.5010    4.4870 C.3      12 GLL5        0.0000 
     17 CA          8.4240   43.4070    1.7000 C.3       8 GLP5        0.0000 
     18 CA         11.2715   42.0830    4.4085 C.3       4 GLC5        0.0000 
     19 CA         13.2480   42.6650    4.3300 C.3       8 GLP5        0.0000 
     20 CA         13.2390   40.7725    4.8325 C.3       4 GLC5        0.0000 
     21 CA         13.2300   38.8800    5.3350 C.3      12 GLL5        0.0000 
     22 CA         13.2940   35.3945    5.7915 C.3       4 GLC5        0.0000 
     23 CA         13.6750   37.5340    5.8660 C.3      12 GLL5        0.0000 
     24 CA         12.9130   33.2550    5.7170 C.3       8 GLP5        0.0000 
     25 CA         16.2355   38.9450    4.8230 C.3       4 GLC5        0.0000 
     26 CA         15.1360   37.3690    5.4390 C.3      12 GLL5        0.0000 
     27 CA         17.3350   40.5210    4.2070 C.3       8 GLP5        0.0000 
     28 CA         16.2375   34.3450    6.7700 C.3       4 GLC5        0.0000 
     29 CA         15.7980   36.1350    6.0730 C.3      12 GLL5        0.0000 
     30 CA         16.6770   32.5550    7.4670 C.3       8 GLP5        0.0000 
     31 CA         14.3555   34.6950    5.8950 C.3       4 GLC5        0.0000 
     32 NZ         18.6670   35.4095    3.8995 N.4       2 LYC4        0.0000 
     33 NZ         17.3590   35.7140    4.3380 N.4      10 LYL4        0.0000 
     34 NZ         21.0070   35.3350    4.2540 N.4       6 LYP4        0.0000 
     35 N          18.6670   35.4095    3.8995 N.am      1 SEC2        0.0000 
     36 N          17.3590   35.7140    4.3380 N.am      9 SEL2        0.0000 
     37 N          19.9750   35.1050    3.4610 N.am      5 SEP2        0.0000 
     38 N          16.9000   34.6865    3.6530 N.am      1 SEC2        0.0000 
     39 N          16.4410   33.6590    2.9680 N.am      5 SEP2        0.0000 
     40 NZ         19.4635   36.0065    5.9265 N.4       2 LYC4        0.0000 
     41 NZ         18.1390   36.1740    6.3940 N.4      10 LYL4        0.0000 
     42 N          19.4635   36.0065    5.9265 N.am      1 SEC2        0.0000 
     43 N          18.1390   36.1740    6.3940 N.am      9 SEL2        0.0000 
     44 N          20.7880   35.8390    5.4590 N.am      5 SEP2        0.0000 
     45 CA          3.5270   38.5805    1.9370 C.3       4 GLC5        0.0000 
     46 CA          5.5050   38.4420    2.6460 C.3      12 GLL5        0.0000 
     47 CA          1.5490   38.7190    1.2280 C.3       8 GLP5        0.0000 
     48 CA          4.0265   39.2385    3.5560 C.3       4 GLC5        0.0000 
     49 CA          2.5480   40.0350    4.4660 C.3       8 GLP5        0.0000 
     50 CA          6.6025   34.8220    1.2940 C.3       4 GLC5        0.0000 
     51 CA          7.3470   36.7050    1.8720 C.3      12 GLL5        0.0000 
     52 CA          5.8580   32.9390    0.7160 C.3       8 GLP5        0.0000 
     53 CA          8.4425   35.0855    1.7255 C.3       4 GLC5        0.0000 
     54 CA          9.5380   33.4660    1.5790 C.3       8 GLP5        0.0000 
     55 CA          9.4200   36.6450    1.9785 C.3       4 GLC5        0.0000 
     56 Zn          6.9475   39.9505    1.3300 Zn        3 ZIC7        0.0000 
     57 Zn          6.1400   39.4170    1.8200 Zn       11 ZIL7        0.0000 
     58 Zn          7.7550   40.4840    0.8400 Zn        7 ZIP7        0.0000 
     59 CA          8.9082   41.6755    2.4215 C.3       4 GLC5        0.0000 
     60 CA          9.3240   40.1810    4.0340 C.3      12 GLL5        0.0000 
     61 CA          8.4556   41.7996    5.2236 C.3       4 GLC5        0.0000 
     62 CA          7.5710   43.0270    5.9220 C.3       8 GLP5        0.0000 
     63 CA         13.3286   36.7390    4.1044 C.3       4 GLC5        0.0000 
     64 CA         12.3630   35.6900    2.6890 C.3       8 GLP5        0.0000 
@<TRIPOS>BOND
@<TRIPOS>SUBSTRUCTURE
     1 SEC2        1 GROUP        1 X    SEC  0     ROOT SEC X 2
     2 LYC4       32 GROUP        1 X    LYC  0     **** LYC X 4
     3 ZIC7       56 GROUP        1 X    ZIC  0     **** ZIC X 5
     4 GLC5        7 GROUP        1 X    GLC  0     **** GLC X 6
     5 SEP2        3 GROUP        1 Y    SEP  0     ROOT SEP Y 9
     6 LYP4       34 GROUP        1 Y    LYP  0     **** LYP Y 11
     7 ZIP7       58 GROUP        1 Y    ZIP  0     **** ZIP Y 12
     8 GLP5        9 GROUP        1 Y    GLP  0     **** GLP Y 13
     9 SEL2        2 GROUP        1 Z    SEL  0     ROOT SEL Z 16
    10 LYL4       33 GROUP        1 Z    LYL  0     **** LYL Z 18
    11 ZIL7       57 GROUP        1 Z    ZIL  0     **** ZIL Z 19
    12 GLL5        8 GROUP        1 Z    GLL  0     **** GLL Z 20
@<TRIPOS>SET

