#    Name: 1w3x_W2X_1_ligand
#    Modification time : Tue Mar 25 08:34:41 2014

@<TRIPOS>MOLECULE
1w3x_W2X_1_ligand
   45    44     1     0     0
SMALL
NO_CHARGES


@<TRIPOS>ATOM
      1 O43         5.3360   37.8100    6.1160 O.co2     1 W2X1333     0.0000 
      2 C31         5.2730   36.9550    5.1880 C.2       1 W2X1333     0.0000 
      3 O42         4.3330   36.2070    4.9270 O.co2     1 W2X1333     0.0000 
      4 C30         6.4820   36.8720    4.2640 C.3       1 W2X1333     0.0000 
      5 O29         7.3060   37.9940    4.6020 O.3       1 W2X1333     0.0000 
      6 C13         8.6720   37.8770    4.7480 C.2       1 W2X1333     0.0000 
      7 O18         9.2340   36.7960    4.6280 O.2       1 W2X1333     0.0000 
      8 C12         9.4470   39.1060    5.0930 C.3       1 W2X1333     0.0000 
      9 C16         9.3240   40.1810    4.0340 C.2       1 W2X1333     0.0000 
     10 S17         9.4610   39.7070    2.2520 S.3       1 W2X1333     0.0000 
     11 C25         9.2950   41.5010    4.4870 C.2       1 W2X1333     0.0000 
     12 N11        10.8450   38.8220    4.8480 N.am      1 W2X1333     0.0000 
     13 C10        11.7990   39.1180    5.7020 C.2       1 W2X1333     0.0000 
     14 O15        11.4190   39.5300    6.7960 O.2       1 W2X1333     0.0000 
     15 C7         13.2300   38.8800    5.3350 C.3       1 W2X1333     0.0000 
     16 C4         13.6750   37.5340    5.8660 C.3       1 W2X1333     0.0000 
     17 C3         15.1360   37.3690    5.4390 C.3       1 W2X1333     0.0000 
     18 C2         15.7980   36.1350    6.0730 C.3       1 W2X1333     0.0000 
     19 N14        15.7280   36.2700    7.5520 N.4       1 W2X1333     0.0000 
     20 C1         17.2230   35.9940    5.5460 C.2       1 W2X1333     0.0000 
     21 O20        17.3590   35.7140    4.3380 O.co2     1 W2X1333     0.0000 
     22 O19        18.1390   36.1740    6.3940 O.co2     1 W2X1333     0.0000 
     23 C32         6.1250   37.0250    2.7790 C.3       1 W2X1333     0.0000 
     24 C37         5.5050   38.4420    2.6460 C.3       1 W2X1333     0.0000 
     25 C33         7.3470   36.7050    1.8720 C.3       1 W2X1333     0.0000 
     26 O31         6.1400   39.4170    1.8200 O.3       1 W2X1333     0.0000 
     27 H           6.9947   35.9624    4.4189 H         1 W2X1333     0.0000 
     28 H           9.2887   39.4795    6.0144 H         1 W2X1333     0.0000 
     29 H          11.0511   38.3546    3.9246 H         1 W2X1333     0.0000 
     30 H          13.8575   39.6597    5.7640 H         1 W2X1333     0.0000 
     31 H          13.3422   38.8928    4.2520 H         1 W2X1333     0.0000 
     32 H          13.0869   36.7537    5.4281 H         1 W2X1333     0.0000 
     33 H          13.6141   37.5225    6.9350 H         1 W2X1333     0.0000 
     34 H          15.6983   38.2620    5.7295 H         1 W2X1333     0.0000 
     35 H          15.1837   37.2768    4.3494 H         1 W2X1333     0.0000 
     36 H          15.2233   35.2685    5.7581 H         1 W2X1333     0.0000 
     37 H           5.3312   36.2994    2.5755 H         1 W2X1333     0.0000 
     38 H           5.3843   38.8310    3.7085 H         1 W2X1333     0.0000 
     39 H           4.4258   38.2816    2.3231 H         1 W2X1333     0.0000 
     40 H          16.1470   35.4898    8.0164 H         1 W2X1333     0.0000 
     41 H          16.2010   37.0906    7.8728 H         1 W2X1333     0.0000 
     42 H          14.7836   36.3308    7.8751 H         1 W2X1333     0.0000 
     43 H           8.1189   37.3119    2.0611 H         1 W2X1333     0.0000 
     44 H           7.6717   35.7683    2.0031 H         1 W2X1333     0.0000 
     45 H           7.1259   36.8055    0.9019 H         1 W2X1333     0.0000 
@<TRIPOS>BOND
     1    2    1 ar   
     2    3    2 ar   
     3    4    2 1    
     4    5    4 1    
     5   23    4 1    
     6   27    4 1    
     7    6    5 1    
     8    7    6 2    
     9    8    6 1    
    10    9    8 1    
    11   12    8 1    
    12   28    8 1    
    13   10    9 1    
    14   11    9 2    
    15   13   12 am   
    16   29   12 1    
    17   14   13 2    
    18   15   13 1    
    19   16   15 1    
    20   30   15 1    
    21   31   15 1    
    22   17   16 1    
    23   32   16 1    
    24   33   16 1    
    25   18   17 1    
    26   34   17 1    
    27   35   17 1    
    28   19   18 1    
    29   20   18 1    
    30   36   18 1    
    31   40   19 1    
    32   41   19 1    
    33   42   19 1    
    34   21   20 ar   
    35   22   20 ar   
    36   24   23 1    
    37   25   23 1    
    38   37   23 1    
    39   26   24 1    
    40   38   24 1    
    41   39   24 1    
    42   43   25 1    
    43   44   25 1    
    44   45   25 1    
@<TRIPOS>SUBSTRUCTURE
     1 W2X1333     1 GROUP   
@<TRIPOS>SET

