#    Name: 4ge9_0L0_3_INTS_M
#    Modification time : Mon Mar 24 21:58:05 2014

@<TRIPOS>MOLECULE
4ge9_0L0_3_INTS_M
  108     0    12     0     0
SMALL
NO_CHARGES


@<TRIPOS>ATOM
      1 CA          9.0310  -19.6500    7.8325 C.3       4 GLC5        0.0000 
      2 CA          8.4020  -18.9940    5.9740 C.3      12 GLL5        0.0000 
      3 CA          9.6600  -20.3060    9.6910 C.3       8 GLP5        0.0000 
      4 CA          3.2850  -19.2245   10.6730 C.3       4 GLC5        0.0000 
      5 CA          4.6100  -19.2470    9.3950 C.3      12 GLL5        0.0000 
      6 CA          1.9600  -19.2020   11.9510 C.3       8 GLP5        0.0000 
      7 CA          4.7640  -21.2940    9.5250 C.3       4 GLC5        0.0000 
      8 CA          4.9180  -23.3410    9.6550 C.3       8 GLP5        0.0000 
      9 CA          3.7645  -20.1625    7.6685 C.3       4 GLC5        0.0000 
     10 CA          2.9190  -21.0780    5.9420 C.3       8 GLP5        0.0000 
     11 CA         10.3575  -14.9065    7.9480 C.3       4 GLC5        0.0000 
     12 CA          9.0230  -16.3300    7.0420 C.3      12 GLL5        0.0000 
     13 CA         11.6920  -13.4830    8.8540 C.3       8 GLP5        0.0000 
     14 CA          9.4455  -17.6435    8.4820 C.3       4 GLC5        0.0000 
     15 CA          9.8680  -18.9570    9.9220 C.3       8 GLP5        0.0000 
     16 CA         20.6095  -18.3525    4.1575 C.3       4 GLC5        0.0000 
     17 CA         18.6380  -18.3740    5.1880 C.3      12 GLL5        0.0000 
     18 CA         22.5810  -18.3310    3.1270 C.3       8 GLP5        0.0000 
     19 CA         17.2810  -16.6550    5.6420 C.3       4 GLC5        0.0000 
     20 CA         15.9240  -14.9360    6.0960 C.3       8 GLP5        0.0000 
     21 CA         17.3925  -24.9705    3.5660 C.3       4 GLC5        0.0000 
     22 CA         15.8270  -24.1740    3.7120 C.3      12 GLL5        0.0000 
     23 CA         18.9580  -25.7670    3.4200 C.3       8 GLP5        0.0000 
     24 CA         14.6110  -25.6810    3.4720 C.3       4 GLC5        0.0000 
     25 CA         13.3950  -27.1880    3.2320 C.3       8 GLP5        0.0000 
     26 CA         15.2775  -23.3330    2.2115 C.3       4 GLC5        0.0000 
     27 CA         14.7280  -22.4920    0.7110 C.3       8 GLP5        0.0000 
     28 N           5.3430  -16.8205   10.1120 N.am      2 SEC2        0.0000 
     29 N           6.1030  -17.3300    9.1390 N.am     10 SEL2        0.0000 
     30 N           4.5830  -16.3110   11.0850 N.am      6 SEP2        0.0000 
     31 CA          6.9450  -15.2405   10.0240 C.3       4 GLC5        0.0000 
     32 CA          7.0890  -16.6290    8.6030 C.3      12 GLL5        0.0000 
     33 CA          6.8010  -13.8520   11.4450 C.3       8 GLP5        0.0000 
     34 N           8.0380  -23.0545    7.4845 N.am      2 SEC2        0.0000 
     35 N           9.1840  -23.0640    6.6550 N.am     10 SEL2        0.0000 
     36 N           6.8920  -23.0450    8.3140 N.am      6 SEP2        0.0000 
     37 N           8.9980  -24.5930    7.3105 N.am      2 SEC2        0.0000 
     38 N           8.8120  -26.1220    7.9660 N.am      6 SEP2        0.0000 
     39 CA         15.2425  -17.9325    5.1475 C.3       4 GLC5        0.0000 
     40 CA         16.5820  -19.5350    4.6800 C.3      12 GLL5        0.0000 
     41 CA         13.9030  -16.3300    5.6150 C.3       8 GLP5        0.0000 
     42 CA         20.2825  -17.4080    7.0260 C.3       4 GLC5        0.0000 
     43 CA         18.4020  -18.5380    6.5470 C.3      12 GLL5        0.0000 
     44 CA         22.1630  -16.2780    7.5050 C.3       8 GLP5        0.0000 
     45 CA         13.5910  -18.2775    5.0530 C.3       4 GLC5        0.0000 
     46 CA         13.2790  -20.2250    4.4910 C.3      12 GLL5        0.0000 
     47 CA         11.4250  -19.1190    3.8110 C.3       4 GLC5        0.0000 
     48 CA         10.9250  -20.2750    5.3350 C.3      12 GLL5        0.0000 
     49 CA         11.9250  -17.9630    2.2870 C.3       8 GLP5        0.0000 
     50 CA          9.7830  -20.6545    7.7900 C.3       4 GLC5        0.0000 
     51 CA          9.9060  -21.0030    5.8890 C.3      12 GLL5        0.0000 
     52 N          10.9545  -25.6640    6.3885 N.am      2 SEC2        0.0000 
     53 N          11.4280  -24.4160    6.1580 N.am     10 SEL2        0.0000 
     54 N          10.4810  -26.9120    6.6190 N.am      6 SEP2        0.0000 
     55 N           6.5360  -21.7230    7.7895 N.am      2 SEC2        0.0000 
     56 N           6.1800  -20.4010    7.2650 N.am     10 SEL2        0.0000 
     57 O           5.6715  -20.8505    6.1895 O.2       1 ALC1        0.0000 
     58 O           6.1800  -20.4010    7.2650 O.2       9 ALL1        0.0000 
     59 O           5.1630  -21.3000    5.1140 O.2       5 ALP1        0.0000 
     60 NZ         11.5870  -13.4730    5.4920 N.4       3 LYC4        0.0000 
     61 NZ         10.3410  -13.9800    5.9900 N.4      11 LYL4        0.0000 
     62 NZ         13.2600  -12.9850    3.7410 N.4       7 LYP4        0.0000 
     63 N           9.9670  -13.1600    7.1335 N.am      2 SEC2        0.0000 
     64 N          10.3410  -13.9800    5.9900 N.am     10 SEL2        0.0000 
     65 N           9.5930  -12.3400    8.2770 N.am      6 SEP2        0.0000 
     66 N          11.5870  -13.4730    5.4920 N.am      2 SEC2        0.0000 
     67 N          12.8330  -12.9660    4.9940 N.am      6 SEP2        0.0000 
     68 NZ         11.4140  -14.3435    3.2730 N.4       3 LYC4        0.0000 
     69 NZ         10.3030  -15.1040    3.7320 N.4      11 LYL4        0.0000 
     70 N           9.8275  -14.9130    2.5590 N.am      2 SEC2        0.0000 
     71 N          10.3030  -15.1040    3.7320 N.am     10 SEL2        0.0000 
     72 N           9.3520  -14.7220    1.3860 N.am      6 SEP2        0.0000 
     73 N          11.4140  -14.3435    3.2730 N.am      2 SEC2        0.0000 
     74 N          12.5250  -13.5830    2.8140 N.am      6 SEP2        0.0000 
     75 N          10.5025  -16.3960    3.2945 N.am      2 SEC2        0.0000 
     76 N          10.7020  -17.6880    2.8570 N.am      6 SEP2        0.0000 
     77 N           8.4810  -12.4860    5.2445 N.am      2 SEC2        0.0000 
     78 N           8.3160  -13.6680    4.5700 N.am     10 SEL2        0.0000 
     79 N           8.6460  -11.3040    5.9190 N.am      6 SEP2        0.0000 
     80 N           7.2955  -14.0030    3.7690 N.am      2 SEC2        0.0000 
     81 N           6.2750  -14.3380    2.9680 N.am      6 SEP2        0.0000 
     82 CA          5.9820  -19.9790   10.5680 C.3       4 GLC5        0.0000 
     83 CA          5.7740  -18.5470    8.7250 C.3      12 GLL5        0.0000 
     84 CA          6.7720  -21.0610   12.0760 C.3       8 GLP5        0.0000 
     85 CA         17.8710  -16.9337    3.6845 C.3       4 GLC5        0.0000 
     86 CA         17.5570  -15.2430    2.6440 C.3       8 GLP5        0.0000 
     87 CA         13.5343  -24.1030    6.5033 C.3       4 GLC5        0.0000 
     88 CA         13.5640  -22.9520    5.0540 C.3      12 GLL5        0.0000 
     89 CA         14.1160  -25.5670    7.8190 C.3       8 GLP5        0.0000 
     90 CA         11.7203  -23.7030    4.0613 C.3       4 GLC5        0.0000 
     91 CA         10.4880  -24.7670    2.9350 C.3       8 GLP5        0.0000 
     92 CA          4.4853  -18.3008    7.4748 C.3       4 GLC5        0.0000 
     93 CA          6.4970  -19.1400    7.6790 C.3      12 GLL5        0.0000 
     94 CA          3.1260  -17.5830    6.5800 C.3       8 GLP5        0.0000 
     95 CA         15.0610  -19.5660    2.3522 C.3       4 GLC5        0.0000 
     96 CA         14.4690  -20.8590    4.2190 C.3      12 GLL5        0.0000 
     97 CA         14.3920  -18.4990    1.0520 C.3       8 GLP5        0.0000 
     98 CA         16.4585  -19.0205    2.4835 C.3       4 GLC5        0.0000 
     99 CA         15.7600  -18.8360    0.4960 C.3       8 GLP5        0.0000 
    100 CA         18.5290  -18.4222    8.6067 C.3       4 GLC5        0.0000 
    101 CA         17.2620  -19.2050    6.9760 C.3      12 GLL5        0.0000 
    102 CA         19.2260  -17.9730   10.4520 C.3       8 GLP5        0.0000 
    103 CA         16.3151  -17.7883    7.1530 C.3       4 GLC5        0.0000 
    104 CA         15.0260  -16.5820    7.7780 C.3       8 GLP5        0.0000 
    105 CA         14.7818  -21.9199    2.4616 C.3       4 GLC5        0.0000 
    106 CA         18.7531  -20.3850    5.9158 C.3       4 GLC5        0.0000 
    107 CA         16.3510  -19.6970    6.0420 C.3      12 GLL5        0.0000 
    108 CA         20.0110  -21.7320    6.2150 C.3       8 GLP5        0.0000 
@<TRIPOS>BOND
@<TRIPOS>SUBSTRUCTURE
     1 ALC1       57 GROUP        1 X    ALC  0     ROOT ALC X 1
     2 SEC2       28 GROUP        1 X    SEC  0     **** SEC X 2
     3 LYC4       60 GROUP        1 X    LYC  0     **** LYC X 4
     4 GLC5        1 GROUP        1 X    GLC  0     **** GLC X 6
     5 ALP1       59 GROUP        1 Y    ALP  0     ROOT ALP Y 8
     6 SEP2       30 GROUP        1 Y    SEP  0     **** SEP Y 9
     7 LYP4       62 GROUP        1 Y    LYP  0     **** LYP Y 11
     8 GLP5        3 GROUP        1 Y    GLP  0     **** GLP Y 13
     9 ALL1       58 GROUP        1 Z    ALL  0     ROOT ALL Z 15
    10 SEL2       29 GROUP        1 Z    SEL  0     **** SEL Z 16
    11 LYL4       61 GROUP        1 Z    LYL  0     **** LYL Z 18
    12 GLL5        2 GROUP        1 Z    GLL  0     **** GLL Z 20
@<TRIPOS>SET

