#    Name: 4ge9_0L0_3_ligand
#    Modification time : Mon Mar 24 21:58:05 2014

@<TRIPOS>MOLECULE
4ge9_0L0_3_ligand
   60    63     1     0     0
SMALL
NO_CHARGES


@<TRIPOS>ATOM
      1 N44        11.2830  -23.0330    5.8790 N.am      1 0L04000     0.0000 
      2 C33         8.4020  -18.9940    5.9740 C.3       1 0L04000     0.0000 
      3 C7          4.6100  -19.2470    9.3950 C.3       1 0L04000     0.0000 
      4 C6          7.8650  -17.1450    7.5740 C.ar      1 0L04000     0.0000 
      5 C13        16.3510  -19.6970    6.0420 C.ar      1 0L04000     0.0000 
      6 C8          9.0230  -16.3300    7.0420 C.3       1 0L04000     0.0000 
      7 C16        18.6380  -18.3740    5.1880 C.ar      1 0L04000     0.0000 
      8 C19        15.8270  -24.1740    3.7120 C.3       1 0L04000     0.0000 
      9 C26        12.3410  -22.3260    5.3210 C.ar      1 0L04000     0.0000 
     10 C1          7.5710  -18.4210    7.0960 C.ar      1 0L04000     0.0000 
     11 C2          6.4970  -19.1400    7.6790 C.ar      1 0L04000     0.0000 
     12 C3          5.7740  -18.5470    8.7250 C.ar      1 0L04000     0.0000 
     13 N4          6.1030  -17.3300    9.1390 N.ar      1 0L04000     0.0000 
     14 C5          7.0890  -16.6290    8.6030 C.ar      1 0L04000     0.0000 
     15 O9          9.1840  -23.0640    6.6550 O.2       1 0L04000     0.0000 
     16 N10         8.6720  -20.4140    6.2090 N.pl3     1 0L04000     0.0000 
     17 C11        15.6230  -20.0700    3.6420 C.3       1 0L04000     0.0000 
     18 C12        16.5820  -19.5350    4.6800 C.ar      1 0L04000     0.0000 
     19 C14        17.2620  -19.2050    6.9760 C.ar      1 0L04000     0.0000 
     20 C15        18.4020  -18.5380    6.5470 C.ar      1 0L04000     0.0000 
     21 C17        17.7320  -18.8750    4.2620 C.ar      1 0L04000     0.0000 
     22 O18        15.8230  -22.8460    4.2530 O.3       1 0L04000     0.0000 
     23 C22        14.6250  -22.2310    4.4940 C.ar      1 0L04000     0.0000 
     24 C23        14.4690  -20.8590    4.2190 C.ar      1 0L04000     0.0000 
     25 C24        13.2790  -20.2250    4.4910 C.ar      1 0L04000     0.0000 
     26 C25        13.5640  -22.9520    5.0540 C.ar      1 0L04000     0.0000 
     27 C27        12.1960  -20.9420    5.0330 C.ar      1 0L04000     0.0000 
     28 C28        10.9250  -20.2750    5.3350 C.2       1 0L04000     0.0000 
     29 C29         9.9060  -21.0030    5.8890 C.2       1 0L04000     0.0000 
     30 C30        10.1040  -22.4290    6.1640 C.2       1 0L04000     0.0000 
     31 O31        11.4280  -24.4160    6.1580 O.2       1 0L04000     0.0000 
     32 O45         6.1800  -20.4010    7.2650 O.3       1 0L04000     0.0000 
     33 P46         9.4270  -14.7010    4.9510 P.3       1 0L04000     0.0000 
     34 O47         8.7720  -15.9770    5.6790 O.3       1 0L04000     0.0000 
     35 O48        10.3410  -13.9800    5.9900 O.co2     1 0L04000     0.0000 
     36 O49        10.3030  -15.1040    3.7320 O.co2     1 0L04000     0.0000 
     37 O50         8.3160  -13.6680    4.5700 O.co2     1 0L04000     0.0000 
     38 H           9.3403  -18.4302    5.9076 H         1 0L04000     0.0000 
     39 H           7.8612  -18.8567    5.0299 H         1 0L04000     0.0000 
     40 H          15.5017  -20.1835    6.3644 H         1 0L04000     0.0000 
     41 H           9.9363  -16.9283    7.1407 H         1 0L04000     0.0000 
     42 H           9.1343  -15.4408    7.6736 H         1 0L04000     0.0000 
     43 H          19.4824  -17.8823    4.8679 H         1 0L04000     0.0000 
     44 H           7.3113  -15.6613    8.9425 H         1 0L04000     0.0000 
     45 H           7.9164  -20.9775    6.6233 H         1 0L04000     0.0000 
     46 H          16.1792  -20.7116    2.9333 H         1 0L04000     0.0000 
     47 H          15.2220  -19.2251    3.0515 H         1 0L04000     0.0000 
     48 H          17.0877  -19.3371    7.9799 H         1 0L04000     0.0000 
     49 H          19.0703  -18.1661    7.2341 H         1 0L04000     0.0000 
     50 H          17.9141  -18.7562    3.2517 H         1 0L04000     0.0000 
     51 H          13.1655  -19.2176    4.3015 H         1 0L04000     0.0000 
     52 H          13.6842  -23.9507    5.2712 H         1 0L04000     0.0000 
     53 H          10.8459  -19.2876    5.1202 H         1 0L04000     0.0000 
     54 H           4.8883  -20.1103    9.8160 H         1 0L04000     0.0000 
     55 H           4.2049  -18.6860   10.1169 H         1 0L04000     0.0000 
     56 H           3.8805  -19.4597    8.7449 H         1 0L04000     0.0000 
     57 H          16.7565  -24.5188    3.5808 H         1 0L04000     0.0000 
     58 H          15.3564  -24.8209    4.3121 H         1 0L04000     0.0000 
     59 H          15.3712  -24.2142    2.8228 H         1 0L04000     0.0000 
     60 H           5.3800  -20.2865    6.6761 H         1 0L04000     0.0000 
@<TRIPOS>BOND
     1    9    1 1    
     2   30    1 am   
     3   31    1 1    
     4   10    2 1    
     5   16    2 1    
     6   38    2 1    
     7   39    2 1    
     8   12    3 1    
     9   54    3 1    
    10   55    3 1    
    11   56    3 1    
    12    6    4 1    
    13   10    4 ar   
    14   14    4 ar   
    15   18    5 ar   
    16   19    5 ar   
    17   40    5 1    
    18   34    6 1    
    19   41    6 1    
    20   42    6 1    
    21   20    7 ar   
    22   21    7 ar   
    23   43    7 1    
    24   22    8 1    
    25   57    8 1    
    26   58    8 1    
    27   59    8 1    
    28   26    9 ar   
    29   27    9 ar   
    30   11   10 ar   
    31   12   11 ar   
    32   32   11 1    
    33   13   12 ar   
    34   14   13 ar   
    35   44   14 1    
    36   30   15 2    
    37   29   16 1    
    38   45   16 1    
    39   18   17 1    
    40   24   17 1    
    41   46   17 1    
    42   47   17 1    
    43   21   18 ar   
    44   20   19 ar   
    45   48   19 1    
    46   49   20 1    
    47   50   21 1    
    48   23   22 1    
    49   24   23 ar   
    50   26   23 ar   
    51   25   24 ar   
    52   27   25 ar   
    53   51   25 1    
    54   52   26 1    
    55   28   27 1    
    56   29   28 2    
    57   53   28 1    
    58   30   29 1    
    59   60   32 1    
    60   34   33 1    
    61   35   33 ar   
    62   36   33 ar   
    63   37   33 ar   
@<TRIPOS>SUBSTRUCTURE
     1 0L04000     1 GROUP   
@<TRIPOS>SET

