#    Name: 1g21_ATP_1_INTS_M
#    Modification time : Tue Mar 25 02:21:06 2014

@<TRIPOS>MOLECULE
1g21_ATP_1_INTS_M
   60     0    15     0     0
SMALL
NO_CHARGES


@<TRIPOS>ATOM
      1 NZ         58.4015   90.5435   34.0760 N.4       3 LYC4        0.0000 
      2 NZ         58.4680   91.5050   35.3890 N.4      13 LYL4        0.0000 
      3 NZ         58.3350   89.5820   32.7630 N.4       8 LYP4        0.0000 
      4 NZ         58.6795   91.4315   37.3370 N.4       3 LYC4        0.0000 
      5 NZ         58.8910   91.3580   39.2850 N.4       8 LYP4        0.0000 
      6 N          58.4015   90.5435   34.0760 N.am      2 SEC2        0.0000 
      7 N          58.4680   91.5050   35.3890 N.am     12 SEL2        0.0000 
      8 N          58.3350   89.5820   32.7630 N.am      7 SEP2        0.0000 
      9 NZ         57.0075   93.0535   38.6355 N.4       3 LYC4        0.0000 
     10 NZ         57.1980   92.7300   37.0960 N.4      13 LYL4        0.0000 
     11 NZ         56.8170   93.3770   40.1750 N.4       8 LYP4        0.0000 
     12 NZ         58.0445   92.0440   38.1905 N.4       3 LYC4        0.0000 
     13 N          58.0445   92.0440   38.1905 N.am      2 SEC2        0.0000 
     14 N          57.1980   92.7300   37.0960 N.am     12 SEL2        0.0000 
     15 N          58.8910   91.3580   39.2850 N.am      7 SEP2        0.0000 
     16 Zn         56.7445   94.3780   34.5635 Zn        4 ZIC7        0.0000 
     17 Zn         56.7760   93.1690   34.6240 Zn       14 ZIL7        0.0000 
     18 Zn         56.7130   95.5870   34.5030 Zn        9 ZIP7        0.0000 
     19 N          59.9585   95.3360   32.8335 N.am      2 SEC2        0.0000 
     20 N          60.3510   94.1510   33.8620 N.am     12 SEL2        0.0000 
     21 N          59.5660   96.5210   31.8050 N.am      7 SEP2        0.0000 
     22 N          61.3050   91.4860   36.1545 N.am      2 SEC2        0.0000 
     23 N          61.0400   92.6270   35.7840 N.am     12 SEL2        0.0000 
     24 N          61.5700   90.3450   36.5250 N.am      7 SEP2        0.0000 
     25 N          62.4305   91.7160   35.4150 N.am      2 SEC2        0.0000 
     26 N          63.8210   90.8050   35.0460 N.am      7 SEP2        0.0000 
     27 N          61.3660   97.8205   33.2615 N.am      2 SEC2        0.0000 
     28 N          61.5060   96.6820   34.1720 N.am     12 SEL2        0.0000 
     29 N          61.2260   98.9590   32.3510 N.am      7 SEP2        0.0000 
     30 N          62.6505   97.5785   33.7425 N.am      2 SEC2        0.0000 
     31 N          63.7950   98.4750   33.3130 N.am      7 SEP2        0.0000 
     32 O          63.4465   99.3840   39.7100 O.2       1 ALC1        0.0000 
     33 O          64.4570   98.6200   39.4890 O.2      11 ALL1        0.0000 
     34 O          62.4360  100.1480   39.9310 O.2       6 ALP1        0.0000 
     35 CA         65.8585  100.1780   36.2420 C.3       5 GLC5        0.0000 
     36 CA         65.1400   98.4280   37.1140 C.3      15 GLL5        0.0000 
     37 CA         66.5770  101.9280   35.3700 C.3      10 GLP5        0.0000 
     38 N          68.6050   95.8690   33.2755 N.am      2 SEC2        0.0000 
     39 N          67.9960   96.2650   34.3370 N.am     12 SEL2        0.0000 
     40 N          69.2140   95.4730   32.2140 N.am      7 SEP2        0.0000 
     41 CA         71.7895   97.9715   34.1880 C.3       5 GLC5        0.0000 
     42 CA         69.7670   98.0610   34.0720 C.3      15 GLL5        0.0000 
     43 CA         73.8120   97.8820   34.3040 C.3      10 GLP5        0.0000 
     44 O          71.4900   97.9735   32.4600 O.2       1 ALC1        0.0000 
     45 O          70.3120   97.5710   32.9720 O.2      11 ALL1        0.0000 
     46 O          72.6680   98.3760   31.9480 O.2       6 ALP1        0.0000 
     47 N          70.5515  100.2750   33.4015 N.am      2 SEC2        0.0000 
     48 N          70.2210   99.2130   34.6430 N.am     12 SEL2        0.0000 
     49 N          70.8820  101.3370   32.1600 N.am      7 SEP2        0.0000 
     50 CA         68.8220  101.0360   35.6125 C.3       5 GLC5        0.0000 
     51 CA         69.6360   99.6850   35.7550 C.3      15 GLL5        0.0000 
     52 CA         68.0080  102.3870   35.4700 C.3      10 GLP5        0.0000 
     53 CA         67.3595   99.9635   35.5840 C.3       5 GLC5        0.0000 
     54 CA         68.1420   97.9990   35.7980 C.3      15 GLL5        0.0000 
     55 CA         63.5097   95.1785   38.9678 C.3       5 GLC5        0.0000 
     56 CA         64.1680   96.6410   38.2280 C.3      15 GLL5        0.0000 
     57 CA         63.4090   94.0720   40.0700 C.3      10 GLP5        0.0000 
     58 CA         63.8820   99.3773   36.1052 C.3       5 GLC5        0.0000 
     59 CA         64.1160   98.1570   38.1670 C.3      15 GLL5        0.0000 
     60 CA         63.1360  100.4620   34.5700 C.3      10 GLP5        0.0000 
@<TRIPOS>BOND
@<TRIPOS>SUBSTRUCTURE
     1 ALC1       32 GROUP        1 X    ALC  0     ROOT ALC X 1
     2 SEC2        6 GROUP        1 X    SEC  0     **** SEC X 2
     3 LYC4        1 GROUP        1 X    LYC  0     **** LYC X 4
     4 ZIC7       16 GROUP        1 X    ZIC  0     **** ZIC X 5
     5 GLC5       35 GROUP        1 X    GLC  0     **** GLC X 6
     6 ALP1       34 GROUP        1 Y    ALP  0     ROOT ALP Y 8
     7 SEP2        8 GROUP        1 Y    SEP  0     **** SEP Y 9
     8 LYP4        3 GROUP        1 Y    LYP  0     **** LYP Y 11
     9 ZIP7       18 GROUP        1 Y    ZIP  0     **** ZIP Y 12
    10 GLP5       37 GROUP        1 Y    GLP  0     **** GLP Y 13
    11 ALL1       33 GROUP        1 Z    ALL  0     ROOT ALL Z 15
    12 SEL2        7 GROUP        1 Z    SEL  0     **** SEL Z 16
    13 LYL4        2 GROUP        1 Z    LYL  0     **** LYL Z 18
    14 ZIL7       17 GROUP        1 Z    ZIL  0     **** ZIL Z 19
    15 GLL5       36 GROUP        1 Z    GLL  0     **** GLL Z 20
@<TRIPOS>SET

