#    Name: 1g21_ATP_1_ligand
#    Modification time : Tue Mar 25 02:21:06 2014

@<TRIPOS>MOLECULE
1g21_ATP_1_ligand
   43    45     1     0     0
SMALL
NO_CHARGES


@<TRIPOS>ATOM
      1 PG         57.7060   92.7130   35.7190 P.3       1 ATP5292     0.0000 
      2 O1G        58.4680   91.5050   35.3890 O.co2     1 ATP5292     0.0000 
      3 O2G        57.1980   92.7300   37.0960 O.co2     1 ATP5292     0.0000 
      4 O3G        56.7760   93.1690   34.6240 O.co2     1 ATP5292     0.0000 
      5 PB         60.3600   93.8350   35.3260 P.3       1 ATP5292     0.0000 
      6 O1B        60.3510   94.1510   33.8620 O.co2     1 ATP5292     0.0000 
      7 O2B        61.0400   92.6270   35.7840 O.co2     1 ATP5292     0.0000 
      8 O3B        58.8100   93.8370   35.8240 O.3       1 ATP5292     0.0000 
      9 PA         61.2970   96.5460   35.6330 P.3       1 ATP5292     0.0000 
     10 O1A        61.5060   96.6820   34.1720 O.co2     1 ATP5292     0.0000 
     11 O2A        60.3990   97.5190   36.3260 O.co2     1 ATP5292     0.0000 
     12 O3A        60.8430   95.0870   36.0470 O.3       1 ATP5292     0.0000 
     13 O5'        62.7130   96.5920   36.2730 O.3       1 ATP5292     0.0000 
     14 C5'        63.0530   95.9290   37.5030 C.3       1 ATP5292     0.0000 
     15 C4'        64.1680   96.6410   38.2280 C.3       1 ATP5292     0.0000 
     16 O4'        65.4130   96.2430   37.6000 O.3       1 ATP5292     0.0000 
     17 C3'        64.1160   98.1570   38.1670 C.3       1 ATP5292     0.0000 
     18 O3'        64.4570   98.6200   39.4890 O.3       1 ATP5292     0.0000 
     19 C2'        65.1400   98.4280   37.1140 C.3       1 ATP5292     0.0000 
     20 O2'        65.6840   99.7260   37.1930 O.3       1 ATP5292     0.0000 
     21 C1'        66.2210   97.3960   37.3690 C.3       1 ATP5292     0.0000 
     22 N9         67.1150   97.1780   36.1930 N.pl3     1 ATP5292     0.0000 
     23 C8         67.0830   96.1820   35.2620 C.2       1 ATP5292     0.0000 
     24 N7         67.9960   96.2650   34.3370 N.2       1 ATP5292     0.0000 
     25 C5         68.6560   97.4170   34.6650 C.ar      1 ATP5292     0.0000 
     26 C6         69.7670   98.0610   34.0720 C.ar      1 ATP5292     0.0000 
     27 N6         70.3120   97.5710   32.9720 N.pl3     1 ATP5292     0.0000 
     28 N1         70.2210   99.2130   34.6430 N.ar      1 ATP5292     0.0000 
     29 C2         69.6360   99.6850   35.7550 C.ar      1 ATP5292     0.0000 
     30 N3         68.5930   99.1610   36.4210 N.ar      1 ATP5292     0.0000 
     31 C4         68.1420   97.9990   35.7980 C.ar      1 ATP5292     0.0000 
     32 H          63.3725   94.8883   37.3166 H         1 ATP5292     0.0000 
     33 H          62.1808   95.8765   38.1787 H         1 ATP5292     0.0000 
     34 H          64.1813   96.3311   39.2611 H         1 ATP5292     0.0000 
     35 H          63.1639   98.4306   37.8428 H         1 ATP5292     0.0000 
     36 H          64.7113   98.2075   36.1536 H         1 ATP5292     0.0000 
     37 H          66.7511   97.6653   38.2352 H         1 ATP5292     0.0000 
     38 H          66.3874   95.4454   35.3135 H         1 ATP5292     0.0000 
     39 H          69.8743   96.7577   32.5887 H         1 ATP5292     0.0000 
     40 H          71.1126   98.0581   32.6229 H         1 ATP5292     0.0000 
     41 H          70.0592  100.6084   36.1701 H         1 ATP5292     0.0000 
     42 H          63.5797   98.7684   39.9454 H         1 ATP5292     0.0000 
     43 H          66.6517   99.6152   36.9664 H         1 ATP5292     0.0000 
@<TRIPOS>BOND
     1    2    1 ar   
     2    3    1 ar   
     3    4    1 ar   
     4    8    1 1    
     5    6    5 ar   
     6    7    5 ar   
     7    8    5 1    
     8   12    5 1    
     9   10    9 ar   
    10   11    9 ar   
    11   12    9 1    
    12   13    9 1    
    13   14   13 1    
    14   15   14 1    
    15   32   14 1    
    16   33   14 1    
    17   16   15 1    
    18   17   15 1    
    19   34   15 1    
    20   21   16 1    
    21   18   17 1    
    22   19   17 1    
    23   35   17 1    
    24   42   18 1    
    25   20   19 1    
    26   21   19 1    
    27   36   19 1    
    28   43   20 1    
    29   22   21 1    
    30   37   21 1    
    31   23   22 1    
    32   31   22 1    
    33   24   23 2    
    34   38   23 1    
    35   25   24 1    
    36   26   25 ar   
    37   31   25 ar   
    38   27   26 1    
    39   28   26 ar   
    40   39   27 1    
    41   40   27 1    
    42   29   28 ar   
    43   30   29 ar   
    44   41   29 1    
    45   31   30 ar   
@<TRIPOS>SUBSTRUCTURE
     1 ATP5292     1 GROUP   
@<TRIPOS>SET

