#    Name: 3ceh_AVE_1_INTS_M
#    Modification time : Mon Mar 24 21:01:12 2014

@<TRIPOS>MOLECULE
3ceh_AVE_1_INTS_M
   61     0     9     0     0
SMALL
NO_CHARGES


@<TRIPOS>ATOM
      1 CA         63.7765  -10.9130   58.1075 C.3       3 GLC5        0.0000 
      2 CA         63.9660   -9.3140   59.2110 C.3       9 GLL5        0.0000 
      3 CA         63.5870  -12.5120   57.0040 C.3       6 GLP5        0.0000 
      4 CA         64.9260   -6.0305   63.4435 C.3       3 GLC5        0.0000 
      5 CA         64.8000   -7.5180   62.6670 C.3       9 GLL5        0.0000 
      6 CA         65.0520   -4.5430   64.2200 C.3       6 GLP5        0.0000 
      7 CA         66.7795   -8.1025   63.2240 C.3       3 GLC5        0.0000 
      8 CA         68.7590   -8.6870   63.7810 C.3       6 GLP5        0.0000 
      9 CA         64.3605   -7.7470   64.2820 C.3       3 GLC5        0.0000 
     10 CA         63.9210   -7.9760   65.8970 C.3       6 GLP5        0.0000 
     11 CA         62.9890   -4.6230   59.3295 C.3       3 GLC5        0.0000 
     12 CA         62.7130   -5.9800   58.4200 C.3       9 GLL5        0.0000 
     13 CA         63.2650   -3.2660   60.2390 C.3       6 GLP5        0.0000 
     14 CA         64.6910   -6.4980   57.9210 C.3       3 GLC5        0.0000 
     15 CA         66.6690   -7.0160   57.4220 C.3       6 GLP5        0.0000 
     16 CA         62.9920   -6.8010   56.0650 C.3       3 GLC5        0.0000 
     17 CA         62.9240   -8.3600   57.2780 C.3       9 GLL5        0.0000 
     18 CA         63.0600   -5.2420   54.8520 C.3       6 GLP5        0.0000 
     19 CA         61.3410   -8.2505   57.4525 C.3       3 GLC5        0.0000 
     20 CA         59.7580   -8.1410   57.6270 C.3       6 GLP5        0.0000 
     21 CA         63.2555  -10.4360   57.1410 C.3       3 GLC5        0.0000 
     22 O          66.4700  -10.3625   59.4890 O.2       1 ALC1        0.0000 
     23 O          66.0220  -10.9770   60.6430 O.2       7 ALL1        0.0000 
     24 O          66.9180   -9.7480   58.3350 O.2       4 ALP1        0.0000 
     25 N          68.6000  -12.9595   59.3270 N.am      2 SEC2        0.0000 
     26 N          67.5650  -12.5610   60.4650 N.am      8 SEL2        0.0000 
     27 N          69.6350  -13.3580   58.1890 N.am      5 SEP2        0.0000 
     28 CA         62.5282   -5.4437   57.2295 C.3       3 GLC5        0.0000 
     29 CA         63.2640   -6.9990   59.1220 C.3       9 GLL5        0.0000 
     30 CA         62.0680   -4.3980   55.6880 C.3       6 GLP5        0.0000 
     31 CA         61.2807   -5.6288   59.3065 C.3       3 GLC5        0.0000 
     32 CA         59.5730   -4.7680   59.8420 C.3       6 GLP5        0.0000 
     33 CA         65.2182   -6.7735   59.3070 C.3       3 GLC5        0.0000 
     34 CA         66.9500   -6.6450   58.8460 C.3       6 GLP5        0.0000 
     35 CA         68.8192  -12.2312   62.8375 C.3       3 GLC5        0.0000 
     36 CA         66.9870  -13.5570   62.9170 C.3       9 GLL5        0.0000 
     37 CA         69.9770  -10.7250   62.7890 C.3       6 GLP5        0.0000 
     38 CA         66.6653  -14.6248   61.6170 C.3       3 GLC5        0.0000 
     39 CA         68.3360  -13.9180   62.8550 C.3       9 GLL5        0.0000 
     40 CA         65.6690  -15.5120   60.3480 C.3       6 GLP5        0.0000 
     41 CA         65.9945  -15.2580   62.1073 C.3       3 GLC5        0.0000 
     42 CA         66.5410  -15.5950   64.1570 C.3       9 GLL5        0.0000 
     43 CA         64.2507  -14.7503   67.0120 C.3       3 GLC5        0.0000 
     44 CA         64.1360  -14.4090   65.7550 C.3       9 GLL5        0.0000 
     45 CA         64.3270  -15.5310   68.7590 C.3       6 GLP5        0.0000 
     46 CA         61.3879   -7.4711   58.1256 C.3       3 GLC5        0.0000 
     47 CA         64.9839   -7.7930   57.7487 C.3       3 GLC5        0.0000 
     48 CA         65.7183   -7.5244   60.0185 C.3       3 GLC5        0.0000 
     49 CA         64.4310   -9.1190   60.5080 C.3       9 GLL5        0.0000 
     50 CA         68.7943  -17.0095   62.5082 C.3       3 GLC5        0.0000 
     51 CA         68.7800  -15.1120   63.4590 C.3       9 GLL5        0.0000 
     52 CA         69.2590  -18.4790   61.2250 C.3       6 GLP5        0.0000 
     53 CA         66.9993  -15.5260   62.0697 C.3       3 GLC5        0.0000 
     54 CA         64.4202  -11.1375   65.4846 C.3       3 GLC5        0.0000 
     55 CA         64.2130  -13.5300   64.7750 C.3       9 GLL5        0.0000 
     56 CA         64.5500   -9.3570   66.0810 C.3       6 GLP5        0.0000 
     57 CA         65.9424  -12.9984   66.4783 C.3       3 GLC5        0.0000 
     58 CA         64.9690  -12.5260   65.1520 C.3       9 GLL5        0.0000 
     59 CA         67.3130  -12.7490   67.7480 C.3       6 GLP5        0.0000 
     60 CA         68.5817  -14.0846   64.9832 C.3       3 GLC5        0.0000 
     61 CA         69.4480  -13.0660   66.3100 C.3       6 GLP5        0.0000 
@<TRIPOS>BOND
@<TRIPOS>SUBSTRUCTURE
     1 ALC1       22 GROUP        1 X    ALC  0     ROOT ALC X 1
     2 SEC2       25 GROUP        1 X    SEC  0     **** SEC X 2
     3 GLC5        1 GROUP        1 X    GLC  0     **** GLC X 6
     4 ALP1       24 GROUP        1 Y    ALP  0     ROOT ALP Y 8
     5 SEP2       27 GROUP        1 Y    SEP  0     **** SEP Y 9
     6 GLP5        3 GROUP        1 Y    GLP  0     **** GLP Y 13
     7 ALL1       23 GROUP        1 Z    ALL  0     ROOT ALL Z 15
     8 SEL2       26 GROUP        1 Z    SEL  0     **** SEL Z 16
     9 GLL5        2 GROUP        1 Z    GLL  0     **** GLL Z 20
@<TRIPOS>SET

