#    Name: 3ceh_AVE_1_ligand
#    Modification time : Mon Mar 24 21:01:12 2014

@<TRIPOS>MOLECULE
3ceh_AVE_1_ligand
   36    37     1     0     0
SMALL
NO_CHARGES


@<TRIPOS>ATOM
      1 C1         63.2640   -6.9990   59.1220 C.ar      1 AVE833      0.0000 
      2 C2         63.3810   -8.2460   58.5350 C.ar      1 AVE833      0.0000 
      3 C3         63.9660   -9.3140   59.2110 C.ar      1 AVE833      0.0000 
      4 C9         65.0570  -10.3040   61.2920 C.2       1 AVE833      0.0000 
      5 C13        66.6910  -12.0280   61.1320 C.2       1 AVE833      0.0000 
      6 C15        66.9870  -13.5570   62.9170 C.ar      1 AVE833      0.0000 
      7 C16        68.3360  -13.9180   62.8550 C.ar      1 AVE833      0.0000 
      8 C19        66.5410  -15.5950   64.1570 C.ar      1 AVE833      0.0000 
      9 C20        66.0990  -14.4130   63.5760 C.ar      1 AVE833      0.0000 
     10 C24        68.2490  -17.3270   64.8290 C.2       1 AVE833      0.0000 
     11 O28        64.6530  -10.5870   62.4160 O.2       1 AVE833      0.0000 
     12 C30        64.2130  -13.5300   64.7750 C.3       1 AVE833      0.0000 
     13 CL10       64.8000   -7.5180   62.6670 Cl        1 AVE833      0.0000 
     14 C5         64.2840   -7.8590   61.0810 C.ar      1 AVE833      0.0000 
     15 C6         63.7090   -6.8050   60.4140 C.ar      1 AVE833      0.0000 
     16 F11        62.7130   -5.9800   58.4200 F         1 AVE833      0.0000 
     17 F34        62.9240   -8.3600   57.2780 F         1 AVE833      0.0000 
     18 C4         64.4310   -9.1190   60.5080 C.ar      1 AVE833      0.0000 
     19 N12        66.0220  -10.9770   60.6430 N.am      1 AVE833      0.0000 
     20 O27        67.5650  -12.5610   60.4650 O.2       1 AVE833      0.0000 
     21 N14        66.4240  -12.4700   62.3590 N.am      1 AVE833      0.0000 
     22 C17        68.7800  -15.1120   63.4590 C.ar      1 AVE833      0.0000 
     23 C18        67.8790  -15.9680   64.1240 C.ar      1 AVE833      0.0000 
     24 O26        67.3720  -17.8720   65.5810 O.co2     1 AVE833      0.0000 
     25 O25        69.3740  -17.8470   64.6050 O.co2     1 AVE833      0.0000 
     26 O29        64.7550  -14.1400   63.6260 O.3       1 AVE833      0.0000 
     27 F32        64.1360  -14.4090   65.7550 F         1 AVE833      0.0000 
     28 F33        63.0110  -13.0900   64.4740 F         1 AVE833      0.0000 
     29 F31        64.9690  -12.5260   65.1520 F         1 AVE833      0.0000 
     30 H          64.0522  -10.2264   58.7611 H         1 AVE833      0.0000 
     31 H          69.0094  -13.3157   62.3696 H         1 AVE833      0.0000 
     32 H          65.8529  -16.2166   64.6287 H         1 AVE833      0.0000 
     33 H          63.6108   -5.8902   60.8647 H         1 AVE833      0.0000 
     34 H          66.2764  -10.6418   59.6483 H         1 AVE833      0.0000 
     35 H          65.7090  -11.9239   62.9501 H         1 AVE833      0.0000 
     36 H          69.7771  -15.3623   63.4136 H         1 AVE833      0.0000 
@<TRIPOS>BOND
     1    2    1 ar   
     2   15    1 ar   
     3   16    1 1    
     4    3    2 ar   
     5   17    2 1    
     6   18    3 ar   
     7   30    3 1    
     8   11    4 2    
     9   18    4 1    
    10   19    4 1    
    11   19    5 1    
    12   20    5 2    
    13   21    5 1    
    14    7    6 ar   
    15    9    6 ar   
    16   21    6 1    
    17   22    7 ar   
    18   31    7 1    
    19    9    8 ar   
    20   23    8 ar   
    21   32    8 1    
    22   26    9 1    
    23   23   10 1    
    24   24   10 ar   
    25   25   10 ar   
    26   26   12 1    
    27   27   12 1    
    28   28   12 1    
    29   29   12 1    
    30   14   13 1    
    31   15   14 ar   
    32   18   14 ar   
    33   33   15 1    
    34   34   19 1    
    35   35   21 1    
    36   23   22 ar   
    37   36   22 1    
@<TRIPOS>SUBSTRUCTURE
     1 AVE833      1 GROUP   
@<TRIPOS>SET

