#    Name: 3nbx_ADP_1_INTS_M
#    Modification time : Tue Mar 25 01:12:58 2014

@<TRIPOS>MOLECULE
3nbx_ADP_1_INTS_M
   61     0    12     0     0
SMALL
NO_CHARGES


@<TRIPOS>ATOM
      1 N          21.0615   22.0560   51.2730 N.am      2 SEC2        0.0000 
      2 N          21.6210   20.9470   50.7780 N.am     10 SEL2        0.0000 
      3 N          20.5020   23.1650   51.7680 N.am      6 SEP2        0.0000 
      4 NZ         21.8775   21.1470   47.3025 N.4       3 LYC4        0.0000 
      5 NZ         22.7120   21.3690   48.5120 N.4      11 LYL4        0.0000 
      6 NZ         21.0430   20.9250   46.0930 N.4       7 LYP4        0.0000 
      7 N          24.1425   21.4065   48.1505 N.am      2 SEC2        0.0000 
      8 N          22.7120   21.3690   48.5120 N.am     10 SEL2        0.0000 
      9 N          25.5730   21.4440   47.7890 N.am      6 SEP2        0.0000 
     10 N          22.5930   22.7240   49.1915 N.am      2 SEC2        0.0000 
     11 N          22.4740   24.0790   49.8710 N.am      6 SEP2        0.0000 
     12 N          21.8775   21.1470   47.3025 N.am      2 SEC2        0.0000 
     13 N          21.0430   20.9250   46.0930 N.am      6 SEP2        0.0000 
     14 N          23.8615   18.9235   48.6645 N.am      2 SEC2        0.0000 
     15 N          22.9780   19.1350   49.6100 N.am     10 SEL2        0.0000 
     16 N          24.7450   18.7120   47.7190 N.am      6 SEP2        0.0000 
     17 N          22.5035   21.5440   53.4950 N.am      2 SEC2        0.0000 
     18 N          23.6300   21.8280   52.9950 N.am     10 SEL2        0.0000 
     19 N          21.3770   21.2600   53.9950 N.am      6 SEP2        0.0000 
     20 N          22.7395   22.9660   53.4920 N.am      2 SEC2        0.0000 
     21 N          21.8490   24.1040   53.9890 N.am      6 SEP2        0.0000 
     22 N          24.6120   22.2805   50.1250 N.am      2 SEC2        0.0000 
     23 N          24.0220   21.1420   50.5760 N.am     10 SEL2        0.0000 
     24 N          25.2020   23.4190   49.6740 N.am      6 SEP2        0.0000 
     25 N          23.2480   22.6105   50.2235 N.am      2 SEC2        0.0000 
     26 N          25.5530   22.2685   50.9075 N.am      2 SEC2        0.0000 
     27 N          25.9040   21.1180   52.1410 N.am     10 SEL2        0.0000 
     28 CA         25.6080   23.0965   51.9720 C.3       4 GLC5        0.0000 
     29 CA         26.4700   21.9190   53.1690 C.3      12 GLL5        0.0000 
     30 CA         24.7460   24.2740   50.7750 C.3       8 GLP5        0.0000 
     31 CA         26.4850   23.7005   54.1220 C.3       4 GLC5        0.0000 
     32 CA         26.5000   25.4820   55.0750 C.3       8 GLP5        0.0000 
     33 CA         28.3835   22.8740   56.6495 C.3       4 GLC5        0.0000 
     34 CA         28.5210   22.2840   54.5390 C.3      12 GLL5        0.0000 
     35 CA         28.2460   23.4640   58.7600 C.3       8 GLP5        0.0000 
     36 O          29.7720   21.9375   56.5075 O.2       1 ALC1        0.0000 
     37 O          29.4070   21.4470   55.2840 O.2       9 ALL1        0.0000 
     38 O          30.1370   22.4280   57.7310 O.2       5 ALP1        0.0000 
     39 CA         31.1240   22.9045   51.6240 C.3       4 GLC5        0.0000 
     40 CA         29.5720   22.7720   52.4250 C.3      12 GLL5        0.0000 
     41 CA         32.6760   23.0370   50.8230 C.3       8 GLP5        0.0000 
     42 CA         30.3900   27.2535   47.8600 C.3       4 GLC5        0.0000 
     43 CA         29.2330   26.9330   49.6240 C.3      12 GLL5        0.0000 
     44 CA         31.5470   27.5740   46.0960 C.3       8 GLP5        0.0000 
     45 O          29.1530   28.8085   48.0125 O.2       1 ALC1        0.0000 
     46 O          28.9250   27.4300   48.4030 O.2       9 ALL1        0.0000 
     47 O          29.3810   30.1870   47.6220 O.2       5 ALP1        0.0000 
     48 N          29.8405   29.2715   50.5005 N.am      2 SEC2        0.0000 
     49 N          29.6320   27.7510   50.6270 N.am     10 SEL2        0.0000 
     50 N          30.0490   30.7920   50.3740 N.am      6 SEP2        0.0000 
     51 CA         29.5300   29.0725   52.2300 C.3       4 GLC5        0.0000 
     52 CA         29.9390   27.2800   51.8520 C.3      12 GLL5        0.0000 
     53 CA         29.1210   30.8650   52.6080 C.3       8 GLP5        0.0000 
     54 CA         31.5160   26.5040   51.1930 C.3       4 GLC5        0.0000 
     55 CA         33.0930   25.7280   50.5340 C.3       8 GLP5        0.0000 
     56 CA         27.6983   24.1560   54.6213 C.3       4 GLC5        0.0000 
     57 CA         29.2720   23.3760   53.7960 C.3      12 GLL5        0.0000 
     58 CA         27.5271   25.5375   50.7535 C.3       4 GLC5        0.0000 
     59 CA         29.1440   25.4810   49.9100 C.3      12 GLL5        0.0000 
     60 CA         25.7110   25.4530   50.9890 C.3       8 GLP5        0.0000 
     61 CA         31.2181   25.6750   50.5260 C.3       4 GLC5        0.0000 
@<TRIPOS>BOND
@<TRIPOS>SUBSTRUCTURE
     1 ALC1       36 GROUP        1 X    ALC  0     ROOT ALC X 1
     2 SEC2        1 GROUP        1 X    SEC  0     **** SEC X 2
     3 LYC4        4 GROUP        1 X    LYC  0     **** LYC X 4
     4 GLC5       28 GROUP        1 X    GLC  0     **** GLC X 6
     5 ALP1       38 GROUP        1 Y    ALP  0     ROOT ALP Y 8
     6 SEP2        3 GROUP        1 Y    SEP  0     **** SEP Y 9
     7 LYP4        6 GROUP        1 Y    LYP  0     **** LYP Y 11
     8 GLP5       30 GROUP        1 Y    GLP  0     **** GLP Y 13
     9 ALL1       37 GROUP        1 Z    ALL  0     ROOT ALL Z 15
    10 SEL2        2 GROUP        1 Z    SEL  0     **** SEL Z 16
    11 LYL4        5 GROUP        1 Z    LYL  0     **** LYL Z 18
    12 GLL5       29 GROUP        1 Z    GLL  0     **** GLL Z 20
@<TRIPOS>SET

