#    Name: 3nbx_ADP_1_ligand
#    Modification time : Tue Mar 25 01:12:58 2014

@<TRIPOS>MOLECULE
3nbx_ADP_1_ligand
   39    41     1     0     0
SMALL
NO_CHARGES


@<TRIPOS>ATOM
      1 PB         22.7240   20.6040   49.8100 P.3       1 ADP800      0.0000 
      2 O1B        21.6210   20.9470   50.7780 O.co2     1 ADP800      0.0000 
      3 O2B        22.7120   21.3690   48.5120 O.co2     1 ADP800      0.0000 
      4 O3B        22.9780   19.1350   49.6100 O.co2     1 ADP800      0.0000 
      5 PA         24.3250   20.8160   52.1190 P.3       1 ADP800      0.0000 
      6 O1A        23.6300   21.8280   52.9950 O.co2     1 ADP800      0.0000 
      7 O2A        24.1300   19.3370   52.3440 O.co2     1 ADP800      0.0000 
      8 O3A        24.0220   21.1420   50.5760 O.3       1 ADP800      0.0000 
      9 O5'        25.9040   21.1180   52.1410 O.3       1 ADP800      0.0000 
     10 C5'        26.4700   21.9190   53.1690 C.3       1 ADP800      0.0000 
     11 C4'        27.8950   21.4570   53.4410 C.3       1 ADP800      0.0000 
     12 O4'        28.7030   21.6460   52.2770 O.3       1 ADP800      0.0000 
     13 C3'        28.5210   22.2840   54.5390 C.3       1 ADP800      0.0000 
     14 O3'        29.4070   21.4470   55.2840 O.3       1 ADP800      0.0000 
     15 C2'        29.2720   23.3760   53.7960 C.3       1 ADP800      0.0000 
     16 O2'        30.4620   23.7830   54.4890 O.3       1 ADP800      0.0000 
     17 C1'        29.5720   22.7720   52.4250 C.3       1 ADP800      0.0000 
     18 N9         29.3380   23.7070   51.2870 N.pl3     1 ADP800      0.0000 
     19 C8         28.9350   23.3240   50.0600 C.2       1 ADP800      0.0000 
     20 N7         28.8080   24.3810   49.2190 N.2       1 ADP800      0.0000 
     21 C5         29.1440   25.4810   49.9100 C.ar      1 ADP800      0.0000 
     22 C6         29.2330   26.9330   49.6240 C.ar      1 ADP800      0.0000 
     23 N6         28.9250   27.4300   48.4030 N.pl3     1 ADP800      0.0000 
     24 N1         29.6320   27.7510   50.6270 N.ar      1 ADP800      0.0000 
     25 C2         29.9390   27.2800   51.8520 C.ar      1 ADP800      0.0000 
     26 N3         29.8800   25.9740   52.1760 N.ar      1 ADP800      0.0000 
     27 C4         29.4980   25.0370   51.2690 C.ar      1 ADP800      0.0000 
     28 H          25.9073   21.8396   54.1061 H         1 ADP800      0.0000 
     29 H          26.5088   22.9776   52.8882 H         1 ADP800      0.0000 
     30 H          27.8838   20.4331   53.7443 H         1 ADP800      0.0000 
     31 H          27.7561   22.7164   55.1167 H         1 ADP800      0.0000 
     32 H          28.5843   24.1947   53.6421 H         1 ADP800      0.0000 
     33 H          30.6009   22.4416   52.4220 H         1 ADP800      0.0000 
     34 H          28.7530   22.3902   49.7995 H         1 ADP800      0.0000 
     35 H          29.0412   28.4165   48.2874 H         1 ADP800      0.0000 
     36 H          28.6086   26.7666   47.7249 H         1 ADP800      0.0000 
     37 H          30.2428   27.9743   52.5995 H         1 ADP800      0.0000 
     38 H          29.2162   21.6570   56.2429 H         1 ADP800      0.0000 
     39 H          30.6442   23.0490   55.1433 H         1 ADP800      0.0000 
@<TRIPOS>BOND
     1    2    1 ar   
     2    3    1 ar   
     3    4    1 ar   
     4    8    1 1    
     5    6    5 ar   
     6    7    5 ar   
     7    8    5 1    
     8    9    5 1    
     9   10    9 1    
    10   11   10 1    
    11   28   10 1    
    12   29   10 1    
    13   12   11 1    
    14   13   11 1    
    15   30   11 1    
    16   17   12 1    
    17   14   13 1    
    18   15   13 1    
    19   31   13 1    
    20   38   14 1    
    21   16   15 1    
    22   17   15 1    
    23   32   15 1    
    24   39   16 1    
    25   18   17 1    
    26   33   17 1    
    27   19   18 1    
    28   27   18 1    
    29   20   19 2    
    30   34   19 1    
    31   21   20 1    
    32   22   21 ar   
    33   27   21 ar   
    34   23   22 1    
    35   24   22 ar   
    36   35   23 1    
    37   36   23 1    
    38   25   24 ar   
    39   26   25 ar   
    40   37   25 1    
    41   27   26 ar   
@<TRIPOS>SUBSTRUCTURE
     1 ADP800      1 GROUP   
@<TRIPOS>SET

