#    Name: 1wxz_FRL_1_INTS_M
#    Modification time : Mon Apr  7 15:03:03 2014

@<TRIPOS>MOLECULE
1wxz_FRL_1_INTS_M
   69     0     9     0     0
SMALL
NO_CHARGES


@<TRIPOS>ATOM
      1 CA         46.4170   50.4080   14.6010 C.3       3 GLC5        0.0000 
      2 CA         48.5900   50.0410   14.7520 C.3       9 GLL5        0.0000 
      3 CA         44.2440   50.7750   14.4500 C.3       6 GLP5        0.0000 
      4 CA         49.0840   51.7015   13.8450 C.3       3 GLC5        0.0000 
      5 CA         49.5780   53.3620   12.9380 C.3       6 GLP5        0.0000 
      6 CA         48.8565   48.5905   13.9395 C.3       3 GLC5        0.0000 
      7 CA         49.1230   47.1400   13.1270 C.3       6 GLP5        0.0000 
      8 CA         49.2725   56.5920   16.5560 C.3       3 GLC5        0.0000 
      9 CA         47.4740   57.4220   17.6190 C.3       9 GLL5        0.0000 
     10 CA         51.0710   55.7620   15.4930 C.3       6 GLP5        0.0000 
     11 CA         47.9950   56.2115   22.2505 C.3       3 GLC5        0.0000 
     12 CA         48.8770   57.4510   21.1530 C.3       9 GLL5        0.0000 
     13 CA         47.1130   54.9720   23.3480 C.3       6 GLP5        0.0000 
     14 N          53.9950   56.0670   22.8695 N.am      2 SEC2        0.0000 
     15 N          53.4100   57.5480   23.0170 N.am      8 SEL2        0.0000 
     16 N          54.5800   54.5860   22.7220 N.am      5 SEP2        0.0000 
     17 O          52.9550   57.4835   24.2220 O.2       1 ALC1        0.0000 
     18 O          53.4100   57.5480   23.0170 O.2       7 ALL1        0.0000 
     19 O          52.5000   57.4190   25.4270 O.2       4 ALP1        0.0000 
     20 O          52.3170   58.2335   23.7355 O.2       1 ALC1        0.0000 
     21 O          51.2240   58.9190   24.4540 O.2       4 ALP1        0.0000 
     22 CA         54.0190   59.7900   20.5295 C.3       3 GLC5        0.0000 
     23 CA         53.6540   57.5830   20.4980 C.3       9 GLL5        0.0000 
     24 CA         54.3840   61.9970   20.5610 C.3       6 GLP5        0.0000 
     25 CA         55.6230   57.6375   20.4870 C.3       3 GLC5        0.0000 
     26 CA         57.5920   57.6920   20.4760 C.3       6 GLP5        0.0000 
     27 CA         53.0885   58.6475   18.9850 C.3       3 GLC5        0.0000 
     28 CA         52.5230   59.7120   17.4720 C.3       6 GLP5        0.0000 
     29 CA         54.2765   56.6175   18.9340 C.3       3 GLC5        0.0000 
     30 CA         54.8990   55.6520   17.3700 C.3       6 GLP5        0.0000 
     31 N          51.2595   53.2270   24.4390 N.am      2 SEC2        0.0000 
     32 N          51.2790   53.8350   23.2370 N.am      8 SEL2        0.0000 
     33 N          51.2400   52.6190   25.6410 N.am      5 SEP2        0.0000 
     34 N          51.6170   51.1540   19.3625 N.am      2 SEC2        0.0000 
     35 N          51.0150   52.0010   20.2160 N.am      8 SEL2        0.0000 
     36 N          52.2190   50.3070   18.5090 N.am      5 SEP2        0.0000 
     37 O          51.2305   50.8800   23.5305 O.2       1 ALC1        0.0000 
     38 O          51.1790   51.1750   22.2410 O.2       7 ALL1        0.0000 
     39 O          51.2820   50.5850   24.8200 O.2       4 ALP1        0.0000 
     40 CA         47.8143   53.5575   14.1037 C.3       3 GLC5        0.0000 
     41 CA         47.3620   52.3190   15.2830 C.3       9 GLL5        0.0000 
     42 CA         48.3100   54.1670   12.6100 C.3       6 GLP5        0.0000 
     43 CA         46.3505   54.0020   17.6028 C.3       3 GLC5        0.0000 
     44 CA         47.2750   53.5770   15.9120 C.3       9 GLL5        0.0000 
     45 CA         44.9880   54.2360   18.7840 C.3       6 GLP5        0.0000 
     46 CA         49.1035   53.4335   15.0482 C.3       3 GLC5        0.0000 
     47 CA         48.1510   53.9590   16.9310 C.3       9 GLL5        0.0000 
     48 CA         49.7405   54.5858   16.1984 C.3       3 GLC5        0.0000 
     49 CA         49.1865   52.4843   14.5783 C.3       3 GLC5        0.0000 
     50 CA         49.2230   51.7780   16.7580 C.3       9 GLL5        0.0000 
     51 CA         46.2914   51.4363   16.2701 C.3       3 GLC5        0.0000 
     52 CA         48.3670   51.4350   15.6790 C.3       9 GLL5        0.0000 
     53 CA         44.7400   50.6810   16.9020 C.3       6 GLP5        0.0000 
     54 CA         46.3792   55.7207   18.5123 C.3       3 GLC5        0.0000 
     55 CA         49.4072   58.0427   17.5408 C.3       3 GLC5        0.0000 
     56 CA         48.0670   56.9890   18.8620 C.3       9 GLL5        0.0000 
     57 CA         51.0440   58.8800   16.8410 C.3       6 GLP5        0.0000 
     58 CA         49.0832   59.0457   17.4145 C.3       3 GLC5        0.0000 
     59 CA         47.0500   58.7340   17.4680 C.3       9 GLL5        0.0000 
     60 CA         48.9812   60.4823   19.7617 C.3       3 GLC5        0.0000 
     61 CA         47.1950   59.6890   18.5080 C.3       9 GLL5        0.0000 
     62 CA         50.4710   61.4810   20.4000 C.3       6 GLP5        0.0000 
     63 CA         49.5240   58.7380   18.3283 C.3       3 GLC5        0.0000 
     64 CA         47.7880   59.2780   19.7390 C.3       9 GLL5        0.0000 
     65 CA         49.9429   59.6779   20.6529 C.3       3 GLC5        0.0000 
     66 CA         50.2810   58.0670   21.2890 C.3       9 GLL5        0.0000 
     67 CA         52.8678   54.0203   22.7538 C.3       3 GLC5        0.0000 
     68 CA         51.1800   54.6810   21.1850 C.3       9 GLL5        0.0000 
     69 CA         54.5740   53.9630   23.9510 C.3       6 GLP5        0.0000 
@<TRIPOS>BOND
@<TRIPOS>SUBSTRUCTURE
     1 ALC1       17 GROUP        1 X    ALC  0     ROOT ALC X 1
     2 SEC2       14 GROUP        1 X    SEC  0     **** SEC X 2
     3 GLC5        1 GROUP        1 X    GLC  0     **** GLC X 6
     4 ALP1       19 GROUP        1 Y    ALP  0     ROOT ALP Y 8
     5 SEP2       16 GROUP        1 Y    SEP  0     **** SEP Y 9
     6 GLP5        3 GROUP        1 Y    GLP  0     **** GLP Y 13
     7 ALL1       18 GROUP        1 Z    ALL  0     ROOT ALL Z 15
     8 SEL2       15 GROUP        1 Z    SEL  0     **** SEL Z 16
     9 GLL5        2 GROUP        1 Z    GLL  0     **** GLL Z 20
@<TRIPOS>SET

