#    Name: 1wxz_FRL_1_ligand
#    Modification time : Mon Apr  7 15:03:03 2014

@<TRIPOS>MOLECULE
1wxz_FRL_1_ligand
   51    54     1     0     0
SMALL
NO_CHARGES


@<TRIPOS>ATOM
      1 C1         47.3620   52.3190   15.2830 C.ar      1 FRL401      0.0000 
      2 C2         47.2750   53.5770   15.9120 C.ar      1 FRL401      0.0000 
      3 C3         48.1510   53.9590   16.9310 C.ar      1 FRL401      0.0000 
      4 C4         49.1070   53.0510   17.3860 C.ar      1 FRL401      0.0000 
      5 C5         49.2230   51.7780   16.7580 C.ar      1 FRL401      0.0000 
      6 C6         48.3670   51.4350   15.6790 C.ar      1 FRL401      0.0000 
      7 CL7        48.5900   50.0410   14.7520 Cl        1 FRL401      0.0000 
      8 C8         48.0240   55.2940   17.4850 C.2       1 FRL401      0.0000 
      9 N9         47.4860   56.3100   16.7930 N.2       1 FRL401      0.0000 
     10 C10        47.4740   57.4220   17.6190 C.ar      1 FRL401      0.0000 
     11 C11        48.0670   56.9890   18.8620 C.ar      1 FRL401      0.0000 
     12 O12        48.3890   55.6670   18.7500 O.3       1 FRL401      0.0000 
     13 C13        47.0500   58.7340   17.4680 C.ar      1 FRL401      0.0000 
     14 C14        47.1950   59.6890   18.5080 C.ar      1 FRL401      0.0000 
     15 C15        47.7880   59.2780   19.7390 C.ar      1 FRL401      0.0000 
     16 C16        48.2200   57.9140   19.8920 C.ar      1 FRL401      0.0000 
     17 C17        48.8770   57.4510   21.1530 C.3       1 FRL401      0.0000 
     18 C18        50.2810   58.0670   21.2890 C.3       1 FRL401      0.0000 
     19 C19        51.4610   57.1710   21.6880 C.3       1 FRL401      0.0000 
     20 C20        52.8040   57.8520   21.7660 C.3       1 FRL401      0.0000 
     21 O21        53.4100   57.5480   23.0170 O.3       1 FRL401      0.0000 
     22 N22        51.3530   55.7490   22.0510 N.pl3     1 FRL401      0.0000 
     23 C23        53.6540   57.5830   20.4980 C.3       1 FRL401      0.0000 
     24 C24        51.4060   55.1960   23.2850 C.2       1 FRL401      0.0000 
     25 N25        51.2790   53.8350   23.2370 N.2       1 FRL401      0.0000 
     26 C26        51.1430   53.4740   21.9280 C.2       1 FRL401      0.0000 
     27 C27        51.1800   54.6810   21.1850 C.2       1 FRL401      0.0000 
     28 C28        51.1010   52.1900   21.4230 C.2       1 FRL401      0.0000 
     29 O29        51.0150   52.0010   20.2160 O.2       1 FRL401      0.0000 
     30 N30        51.1790   51.1750   22.2410 N.am      1 FRL401      0.0000 
     31 H          46.7009   52.0653   14.5536 H         1 FRL401      0.0000 
     32 H          46.5344   54.2375   15.6046 H         1 FRL401      0.0000 
     33 H          49.7249   53.2845   18.1621 H         1 FRL401      0.0000 
     34 H          49.9226   51.1136   17.0855 H         1 FRL401      0.0000 
     35 H          46.6145   59.0384   16.5784 H         1 FRL401      0.0000 
     36 H          46.8859   60.6406   18.3826 H         1 FRL401      0.0000 
     37 H          47.9056   59.9330   20.4977 H         1 FRL401      0.0000 
     38 H          48.9745   56.3652   21.1510 H         1 FRL401      0.0000 
     39 H          48.2840   57.7476   22.0183 H         1 FRL401      0.0000 
     40 H          50.2192   58.9160   22.0251 H         1 FRL401      0.0000 
     41 H          50.5358   58.5718   20.3160 H         1 FRL401      0.0000 
     42 H          51.7033   56.8550   20.3151 H         1 FRL401      0.0000 
     43 H          52.5682   58.9606   21.7410 H         1 FRL401      0.0000 
     44 H          51.5215   55.7037   24.1190 H         1 FRL401      0.0000 
     45 H          51.0972   54.7310   20.2382 H         1 FRL401      0.0000 
     46 H          51.1755   50.2684   21.8189 H         1 FRL401      0.0000 
     47 H          51.2350   51.3976   23.2143 H         1 FRL401      0.0000 
     48 H          54.5461   58.0323   20.5467 H         1 FRL401      0.0000 
     49 H          53.8244   56.6066   20.3654 H         1 FRL401      0.0000 
     50 H          53.2025   57.9168   19.6705 H         1 FRL401      0.0000 
     51 H          52.6658   57.5956   23.6833 H         1 FRL401      0.0000 
@<TRIPOS>BOND
     1    2    1 ar   
     2    6    1 ar   
     3   31    1 1    
     4    3    2 ar   
     5   32    2 1    
     6    4    3 ar   
     7    8    3 1    
     8    5    4 ar   
     9   33    4 1    
    10    6    5 ar   
    11   34    5 1    
    12    7    6 1    
    13    9    8 2    
    14   12    8 1    
    15   10    9 1    
    16   11   10 ar   
    17   13   10 ar   
    18   12   11 1    
    19   16   11 ar   
    20   14   13 ar   
    21   35   13 1    
    22   15   14 ar   
    23   36   14 1    
    24   16   15 ar   
    25   37   15 1    
    26   17   16 1    
    27   18   17 1    
    28   38   17 1    
    29   39   17 1    
    30   19   18 1    
    31   40   18 1    
    32   41   18 1    
    33   20   19 1    
    34   22   19 1    
    35   42   19 1    
    36   21   20 1    
    37   23   20 1    
    38   43   20 1    
    39   51   21 1    
    40   24   22 1    
    41   27   22 1    
    42   48   23 1    
    43   49   23 1    
    44   50   23 1    
    45   25   24 2    
    46   44   24 1    
    47   26   25 1    
    48   27   26 2    
    49   28   26 1    
    50   45   27 1    
    51   29   28 2    
    52   30   28 am   
    53   46   30 1    
    54   47   30 1    
@<TRIPOS>SUBSTRUCTURE
     1 FRL401      1 GROUP   
@<TRIPOS>SET

