#    Name: 2c97_JCL_1_INTS_M
#    Modification time : Mon Mar 24 23:16:45 2014

@<TRIPOS>MOLECULE
2c97_JCL_1_INTS_M
   50     0    12     0     0
SMALL
NO_CHARGES


@<TRIPOS>ATOM
      1 O         -23.4715   -4.0090    5.0010 O.2       1 ALC1        0.0000 
      2 O         -23.5450   -2.5420    5.2400 O.2       9 ALL1        0.0000 
      3 O         -23.3980   -5.4760    4.7620 O.2       5 ALP1        0.0000 
      4 CA        -23.3385   -3.8215    2.3755 C.3       4 GLC5        0.0000 
      5 CA        -22.0600   -2.4610    3.0870 C.3      12 GLL5        0.0000 
      6 CA        -24.6170   -5.1820    1.6640 C.3       8 GLP5        0.0000 
      7 CA        -20.4135   -3.5060    2.3865 C.3       4 GLC5        0.0000 
      8 CA        -18.7670   -4.5510    1.6860 C.3       8 GLP5        0.0000 
      9 CA        -24.4690    0.0270    4.0240 C.3       4 GLC5        0.0000 
     10 CA        -22.6120   -0.3030    4.7730 C.3      12 GLL5        0.0000 
     11 CA        -26.3260    0.3570    3.2750 C.3       8 GLP5        0.0000 
     12 CA        -21.0335   -1.6540    5.4485 C.3       4 GLC5        0.0000 
     13 CA        -19.4550   -3.0050    6.1240 C.3       8 GLP5        0.0000 
     14 N         -25.3585   -3.0095    8.2060 N.am      2 SEC2        0.0000 
     15 N         -24.8160   -2.8710    6.9850 N.am     10 SEL2        0.0000 
     16 N         -25.9010   -3.1480    9.4270 N.am      6 SEP2        0.0000 
     17 CA        -19.9015   -1.3655    4.8585 C.3       4 GLC5        0.0000 
     18 CA        -20.3480    0.2740    3.5930 C.3      12 GLL5        0.0000 
     19 CA        -19.8435    2.9240    4.6885 C.3       4 GLC5        0.0000 
     20 CA        -19.6430    1.5650    3.1770 C.3      12 GLL5        0.0000 
     21 CA        -20.0440    4.2830    6.2000 C.3       8 GLP5        0.0000 
     22 CA        -17.9650    1.0300    4.5000 C.3       4 GLC5        0.0000 
     23 CA        -16.2870    0.4950    5.8230 C.3       8 GLP5        0.0000 
     24 CA        -18.1085    1.4030    0.4095 C.3       4 GLC5        0.0000 
     25 CA        -19.3620    1.6740    1.7060 C.3      12 GLL5        0.0000 
     26 CA        -16.8550    1.1320   -0.8870 C.3       8 GLP5        0.0000 
     27 NZ        -19.0925    6.0180   -0.5465 N.4       3 LYC4        0.0000 
     28 NZ        -19.6540    5.2710    0.9050 N.4      11 LYL4        0.0000 
     29 NZ        -19.0760    7.8340   -1.4350 N.4       7 LYP4        0.0000 
     30 N         -19.6695    6.4955    0.3285 N.am      2 SEC2        0.0000 
     31 N         -19.6540    5.2710    0.9050 N.am     10 SEL2        0.0000 
     32 N         -19.6850    7.7200   -0.2480 N.am      6 SEP2        0.0000 
     33 N         -19.0925    6.0180   -0.5465 N.am      2 SEC2        0.0000 
     34 N         -18.5310    6.7650   -1.9980 N.am      6 SEP2        0.0000 
     35 N         -16.1135    4.3750    0.9020 N.am      2 SEC2        0.0000 
     36 N         -17.5600    3.9090    1.5270 N.am     10 SEL2        0.0000 
     37 N         -14.6670    4.8410    0.2770 N.am      6 SEP2        0.0000 
     38 N         -16.9490    4.9740    2.0140 N.am      2 SEC2        0.0000 
     39 N         -16.3380    6.0390    2.5010 N.am      6 SEP2        0.0000 
     40 NZ        -18.4640    5.4130   -1.4370 N.4       3 LYC4        0.0000 
     41 NZ        -18.3970    4.0610   -0.8760 N.4      11 LYL4        0.0000 
     42 N         -17.1340    3.6405   -1.2545 N.am      2 SEC2        0.0000 
     43 N         -18.3970    4.0610   -0.8760 N.am     10 SEL2        0.0000 
     44 N         -15.8710    3.2200   -1.6330 N.am      6 SEP2        0.0000 
     45 N         -18.4640    5.4130   -1.4370 N.am      2 SEC2        0.0000 
     46 CA        -24.1313   -1.8722    3.0903 C.3       4 GLC5        0.0000 
     47 CA        -25.8280   -1.6450    2.3940 C.3       8 GLP5        0.0000 
     48 CA        -21.5367   -3.5263    4.3897 C.3       4 GLC5        0.0000 
     49 CA        -22.8090   -1.7380    4.4860 C.3      12 GLL5        0.0000 
     50 CA        -20.6390   -4.9530    4.9930 C.3       8 GLP5        0.0000 
@<TRIPOS>BOND
@<TRIPOS>SUBSTRUCTURE
     1 ALC1        1 GROUP        1 X    ALC  0     ROOT ALC X 1
     2 SEC2       14 GROUP        1 X    SEC  0     **** SEC X 2
     3 LYC4       27 GROUP        1 X    LYC  0     **** LYC X 4
     4 GLC5        4 GROUP        1 X    GLC  0     **** GLC X 6
     5 ALP1        3 GROUP        1 Y    ALP  0     ROOT ALP Y 8
     6 SEP2       16 GROUP        1 Y    SEP  0     **** SEP Y 9
     7 LYP4       29 GROUP        1 Y    LYP  0     **** LYP Y 11
     8 GLP5        6 GROUP        1 Y    GLP  0     **** GLP Y 13
     9 ALL1        2 GROUP        1 Z    ALL  0     ROOT ALL Z 15
    10 SEL2       15 GROUP        1 Z    SEL  0     **** SEL Z 16
    11 LYL4       28 GROUP        1 Z    LYL  0     **** LYL Z 18
    12 GLL5        5 GROUP        1 Z    GLL  0     **** GLL Z 20
@<TRIPOS>SET

