#    Name: 2c97_JCL_1_ligand
#    Modification time : Mon Mar 24 23:16:46 2014

@<TRIPOS>MOLECULE
2c97_JCL_1_ligand
   28    28     1     0     0
SMALL
NO_CHARGES


@<TRIPOS>ATOM
      1 N3        -24.0530   -0.7470    6.6790 N.am      1 JCL701      0.0000 
      2 N1        -23.5450   -2.5420    5.2400 N.am      1 JCL701      0.0000 
      3 C6        -22.8090   -1.7380    4.4860 C.2       1 JCL701      0.0000 
      4 CL        -22.0600   -2.4610    3.0870 Cl        1 JCL701      0.0000 
      5 C5        -22.6120   -0.3030    4.7730 C.2       1 JCL701      0.0000 
      6 C7        -21.8080    0.6350    3.8890 C.3       1 JCL701      0.0000 
      7 C2        -24.1540   -2.0540    6.3170 C.2       1 JCL701      0.0000 
      8 C4        -23.3310    0.1700    5.9800 C.2       1 JCL701      0.0000 
      9 O1        -24.8160   -2.8710    6.9850 O.2       1 JCL701      0.0000 
     10 O2        -23.2490    1.3840    6.3310 O.2       1 JCL701      0.0000 
     11 C8        -20.3480    0.2740    3.5930 C.3       1 JCL701      0.0000 
     12 C9        -19.6430    1.5650    3.1770 C.3       1 JCL701      0.0000 
     13 C10       -19.3620    1.6740    1.7060 C.3       1 JCL701      0.0000 
     14 O27       -19.7170    2.8580    0.9330 O.3       1 JCL701      0.0000 
     15 P         -18.7350    4.1070    0.5960 P.3       1 JCL701      0.0000 
     16 O1P       -19.6540    5.2710    0.9050 O.co2     1 JCL701      0.0000 
     17 O2P       -17.5600    3.9090    1.5270 O.co2     1 JCL701      0.0000 
     18 O3P       -18.3970    4.0610   -0.8760 O.co2     1 JCL701      0.0000 
     19 H         -24.5641   -0.4254    7.5525 H         1 JCL701      0.0000 
     20 H         -23.6475   -3.5528    4.9918 H         1 JCL701      0.0000 
     21 H         -21.8286    1.6607    4.3423 H         1 JCL701      0.0000 
     22 H         -22.3435    0.7526    2.9105 H         1 JCL701      0.0000 
     23 H         -20.3105   -0.4331    2.7876 H         1 JCL701      0.0000 
     24 H         -19.8895   -0.1177    4.4797 H         1 JCL701      0.0000 
     25 H         -18.6931    1.6422    3.7411 H         1 JCL701      0.0000 
     26 H         -20.2654    2.4227    3.4986 H         1 JCL701      0.0000 
     27 H         -19.8271    0.7496    1.2026 H         1 JCL701      0.0000 
     28 H         -18.2417    1.4569    1.5578 H         1 JCL701      0.0000 
@<TRIPOS>BOND
     1    7    1 1    
     2    8    1 1    
     3   19    1 1    
     4    3    2 1    
     5    7    2 1    
     6   20    2 1    
     7    4    3 1    
     8    5    3 2    
     9    6    5 1    
    10    8    5 1    
    11   11    6 1    
    12   21    6 1    
    13   22    6 1    
    14    9    7 2    
    15   10    8 2    
    16   12   11 1    
    17   23   11 1    
    18   24   11 1    
    19   13   12 1    
    20   25   12 1    
    21   26   12 1    
    22   14   13 1    
    23   27   13 1    
    24   28   13 1    
    25   15   14 1    
    26   16   15 ar   
    27   17   15 ar   
    28   18   15 ar   
@<TRIPOS>SUBSTRUCTURE
     1 JCL701      1 GROUP   
@<TRIPOS>SET

