#    Name: 3nyn_SGV_2_INTS_M
#    Modification time : Tue Mar 25 02:58:37 2014

@<TRIPOS>MOLECULE
3nyn_SGV_2_INTS_M
   49     0     9     0     0
SMALL
NO_CHARGES


@<TRIPOS>ATOM
      1 N         -48.3165   52.7645  -40.0160 N.am      2 SEC2        0.0000 
      2 N         -48.5830   54.1190  -40.8050 N.am      8 SEL2        0.0000 
      3 N         -48.0500   51.4100  -39.2270 N.am      5 SEP2        0.0000 
      4 CA        -46.5370   56.1390  -39.9080 C.3       3 GLC5        0.0000 
      5 CA        -47.3860   54.6100  -41.1800 C.3       9 GLL5        0.0000 
      6 CA        -45.6880   57.6680  -38.6360 C.3       6 GLP5        0.0000 
      7 CA        -48.8800   55.1805  -39.6570 C.3       3 GLC5        0.0000 
      8 CA        -50.3740   55.7510  -38.1340 C.3       6 GLP5        0.0000 
      9 CA        -47.4840   54.5580  -38.9585 C.3       3 GLC5        0.0000 
     10 CA        -47.5820   54.5060  -36.7370 C.3       6 GLP5        0.0000 
     11 CA        -47.6350   52.6720  -41.3625 C.3       3 GLC5        0.0000 
     12 CA        -47.8840   50.7340  -41.5450 C.3       6 GLP5        0.0000 
     13 CA        -49.5540   52.4815  -41.4935 C.3       3 GLC5        0.0000 
     14 CA        -49.7430   54.5490  -41.3520 C.3       9 GLL5        0.0000 
     15 CA        -49.3650   50.4140  -41.6350 C.3       6 GLP5        0.0000 
     16 O         -51.2370   53.2055  -39.8675 O.2       1 ALC1        0.0000 
     17 O         -50.9160   54.0270  -40.9410 O.2       7 ALL1        0.0000 
     18 O         -51.5580   52.3840  -38.7940 O.2       4 ALP1        0.0000 
     19 CA        -48.6480   58.5895  -42.7120 C.3       3 GLC5        0.0000 
     20 CA        -47.3610   57.7420  -44.3420 C.3       9 GLL5        0.0000 
     21 CA        -49.9350   59.4370  -41.0820 C.3       6 GLP5        0.0000 
     22 O         -54.1620   56.7305  -44.0960 O.2       1 ALC1        0.0000 
     23 O         -52.8160   57.1910  -43.5850 O.2       7 ALL1        0.0000 
     24 O         -55.5080   56.2700  -44.6070 O.2       4 ALP1        0.0000 
     25 CA        -46.2875   55.3350  -46.8185 C.3       3 GLC5        0.0000 
     26 CA        -47.1010   56.9330  -45.6030 C.3       9 GLL5        0.0000 
     27 CA        -45.4740   53.7370  -48.0340 C.3       6 GLP5        0.0000 
     28 CA        -47.7485   55.0665  -45.8865 C.3       3 GLC5        0.0000 
     29 CA        -48.3960   53.2000  -46.1700 C.3       6 GLP5        0.0000 
     30 O         -44.9735   56.2780  -46.7330 O.2       1 ALC1        0.0000 
     31 O         -45.7040   56.8380  -45.8600 O.2       7 ALL1        0.0000 
     32 O         -44.2430   55.7180  -47.6060 O.2       4 ALP1        0.0000 
     33 O         -47.8500   56.5600  -48.5975 O.2       1 ALC1        0.0000 
     34 O         -47.1790   57.5630  -47.9570 O.2       7 ALL1        0.0000 
     35 O         -48.5210   55.5570  -49.2380 O.2       4 ALP1        0.0000 
     36 CA        -46.7275   60.6500  -45.0645 C.3       3 GLC5        0.0000 
     37 CA        -47.8060   59.1470  -46.1750 C.3       9 GLL5        0.0000 
     38 CA        -45.6490   62.1530  -43.9540 C.3       6 GLP5        0.0000 
     39 CA        -50.1050   61.8005  -46.4615 C.3       3 GLC5        0.0000 
     40 CA        -48.9880   60.0290  -46.5870 C.3       9 GLL5        0.0000 
     41 CA        -51.2220   63.5720  -46.3360 C.3       6 GLP5        0.0000 
     42 CA        -50.0403   55.4117  -40.0048 C.3       3 GLC5        0.0000 
     43 CA        -49.6700   55.5960  -42.3990 C.3       9 GLL5        0.0000 
     44 CA        -49.7709   54.0618  -43.2052 C.3       3 GLC5        0.0000 
     45 CA        -50.1690   52.9280  -44.4440 C.3       6 GLP5        0.0000 
     46 CA        -50.1657   54.8645  -44.0528 C.3       3 GLC5        0.0000 
     47 CA        -49.7700   57.2180  -44.0430 C.3       9 GLL5        0.0000 
     48 CA        -49.7588   57.8792  -42.1016 C.3       3 GLC5        0.0000 
     49 CA        -50.5550   56.3840  -43.2800 C.3       9 GLL5        0.0000 
@<TRIPOS>BOND
@<TRIPOS>SUBSTRUCTURE
     1 ALC1       16 GROUP        1 X    ALC  0     ROOT ALC X 1
     2 SEC2        1 GROUP        1 X    SEC  0     **** SEC X 2
     3 GLC5        4 GROUP        1 X    GLC  0     **** GLC X 6
     4 ALP1       18 GROUP        1 Y    ALP  0     ROOT ALP Y 8
     5 SEP2        3 GROUP        1 Y    SEP  0     **** SEP Y 9
     6 GLP5        6 GROUP        1 Y    GLP  0     **** GLP Y 13
     7 ALL1       17 GROUP        1 Z    ALL  0     ROOT ALL Z 15
     8 SEL2        2 GROUP        1 Z    SEL  0     **** SEL Z 16
     9 GLL5        5 GROUP        1 Z    GLL  0     **** GLL Z 20
@<TRIPOS>SET

