#    Name: 3nyn_SGV_2_ligand
#    Modification time : Tue Mar 25 02:58:38 2014

@<TRIPOS>MOLECULE
3nyn_SGV_2_ligand
   37    39     1     0     0
SMALL
NO_CHARGES


@<TRIPOS>ATOM
      1 N1        -48.5830   54.1190  -40.8050 N.ar      1 SGV577      0.0000 
      2 C2        -47.3860   54.6100  -41.1800 C.ar      1 SGV577      0.0000 
      3 N3        -47.2580   55.5620  -42.1260 N.ar      1 SGV577      0.0000 
      4 C4        -48.3350   56.0880  -42.7630 C.ar      1 SGV577      0.0000 
      5 C5        -49.6700   55.5960  -42.3990 C.ar      1 SGV577      0.0000 
      6 C6        -49.7430   54.5490  -41.3520 C.ar      1 SGV577      0.0000 
      7 N6        -50.9160   54.0270  -40.9410 N.pl3     1 SGV577      0.0000 
      8 C7        -50.5550   56.3840  -43.2800 C.2       1 SGV577      0.0000 
      9 C8        -49.7700   57.2180  -44.0430 C.2       1 SGV577      0.0000 
     10 N9        -48.4810   57.0230  -43.7130 N.pl3     1 SGV577      0.0000 
     11 C1'       -47.3610   57.7420  -44.3420 C.3       1 SGV577      0.0000 
     12 C10       -52.0270   56.1810  -43.2230 C.2       1 SGV577      0.0000 
     13 N11       -52.8160   57.1910  -43.5850 N.am      1 SGV577      0.0000 
     14 O12       -52.4750   55.1050  -42.8570 O.2       1 SGV577      0.0000 
     15 C2'       -47.1010   56.9330  -45.6030 C.3       1 SGV577      0.0000 
     16 O2'       -45.7040   56.8380  -45.8600 O.3       1 SGV577      0.0000 
     17 C3'       -47.8230   57.7060  -46.6850 C.3       1 SGV577      0.0000 
     18 O3'       -47.1790   57.5630  -47.9570 O.3       1 SGV577      0.0000 
     19 C4'       -47.8060   59.1470  -46.1750 C.3       1 SGV577      0.0000 
     20 O4'       -47.7310   59.0620  -44.7460 O.3       1 SGV577      0.0000 
     21 C5'       -48.9880   60.0290  -46.5870 C.3       1 SGV577      0.0000 
     22 O5'       -50.1410   59.2680  -46.9640 O.3       1 SGV577      0.0000 
     23 H         -46.5117   54.2341  -40.7142 H         1 SGV577      0.0000 
     24 H         -50.9612   53.7473  -39.9820 H         1 SGV577      0.0000 
     25 H         -51.6365   53.9660  -41.6317 H         1 SGV577      0.0000 
     26 H         -50.1069   57.8355  -44.7024 H         1 SGV577      0.0000 
     27 H         -46.5039   57.7030  -43.7433 H         1 SGV577      0.0000 
     28 H         -53.7996   57.0356  -43.4934 H         1 SGV577      0.0000 
     29 H         -52.3538   58.0138  -43.9158 H         1 SGV577      0.0000 
     30 H         -47.5776   55.9866  -45.4892 H         1 SGV577      0.0000 
     31 H         -48.8460   57.3784  -46.6939 H         1 SGV577      0.0000 
     32 H         -46.8824   59.6139  -46.5449 H         1 SGV577      0.0000 
     33 H         -48.6441   60.6783  -47.4161 H         1 SGV577      0.0000 
     34 H         -49.2101   60.7041  -45.7372 H         1 SGV577      0.0000 
     35 H         -45.6319   56.3085  -46.7052 H         1 SGV577      0.0000 
     36 H         -47.6562   56.8070  -48.4050 H         1 SGV577      0.0000 
     37 H         -49.7973   58.5737  -47.5963 H         1 SGV577      0.0000 
@<TRIPOS>BOND
     1    2    1 ar   
     2    6    1 ar   
     3    3    2 ar   
     4   23    2 1    
     5    4    3 ar   
     6    5    4 ar   
     7   10    4 1    
     8    6    5 ar   
     9    8    5 1    
    10    7    6 1    
    11   24    7 1    
    12   25    7 1    
    13    9    8 2    
    14   12    8 1    
    15   10    9 1    
    16   26    9 1    
    17   11   10 1    
    18   15   11 1    
    19   20   11 1    
    20   27   11 1    
    21   13   12 am   
    22   14   12 2    
    23   28   13 1    
    24   29   13 1    
    25   16   15 1    
    26   17   15 1    
    27   30   15 1    
    28   35   16 1    
    29   18   17 1    
    30   19   17 1    
    31   31   17 1    
    32   36   18 1    
    33   20   19 1    
    34   21   19 1    
    35   32   19 1    
    36   22   21 1    
    37   33   21 1    
    38   34   21 1    
    39   37   22 1    
@<TRIPOS>SUBSTRUCTURE
     1 SGV577      1 GROUP   
@<TRIPOS>SET

