#    Name: 2XLT_1_CAVITY_N1_ALL.mol2
#    Modification time : Tue Mar 11 00:01:37 2014

@<TRIPOS>MOLECULE
2XLT_1_CAVITY_N1_ALL.mol2
  115     0     6     0     0
SMALL
NO_CHARGES


@<TRIPOS>ATOM
      1 CA        -17.2677  183.5747  -23.2596 C.3       5 GLY6        0.0000 
      2 O         -17.1943  184.0963  -24.6641 O.2       2 ALA2        0.0000 
      3 O         -17.1209  184.6179  -26.0686 O.2       2 ALA2        0.0000 
      4 NZ        -17.0476  185.1395  -27.4730 N.2       3 LYS4        0.0000 
      5 NZ        -16.9742  185.6611  -28.8775 N.2       3 LYS4        0.0000 
      6 NZ        -16.9008  186.1827  -30.2820 N.2       3 LYS4        0.0000 
      7 O         -18.1980  186.1599  -31.9603 O.2       2 ALA2        0.0000 
      8 OG        -10.1808  189.9566  -22.1211 O.2       1 SER1        0.0000 
      9 CA        -11.6248  188.8905  -20.9905 C.3       5 GLY6        0.0000 
     10 CZ        -11.5514  189.4121  -22.3949 C.ar      4 PHE5        0.0000 
     11 N         -11.4780  189.9337  -23.7994 N.2       2 ALA2        0.0000 
     12 CA        -16.3416  188.5538  -21.3620 C.3       5 GLY6        0.0000 
     13 CZ        -16.2682  189.0754  -22.7665 C.ar      4 PHE5        0.0000 
     14 CZ        -16.1948  189.5970  -24.1710 C.ar      4 PHE5        0.0000 
     15 N         -16.1214  190.1186  -25.5754 N.2       2 ALA2        0.0000 
     16 N         -16.0480  190.6402  -26.9799 N.2       2 ALA2        0.0000 
     17 CZ        -17.5654  189.0525  -24.4448 C.ar      4 PHE5        0.0000 
     18 N         -17.4920  189.5741  -25.8493 N.2       2 ALA2        0.0000 
     19 CA        -16.6627  182.2780  -23.7096 C.3       5 GLY6        0.0000 
     20 DU        -16.5893  182.7996  -25.1141 H         6 CUB7        0.0000 
     21 NZ        -16.2957  184.8860  -30.7319 N.2       3 LYS4        0.0000 
     22 NZ        -17.7397  183.8199  -29.6013 N.2       3 LYS4        0.0000 
     23 N         -12.7115  180.7735  -24.0618 N.2       2 ALA2        0.0000 
     24 N         -14.1555  179.7074  -22.9312 N.2       2 ALA2        0.0000 
     25 N         -14.0821  180.2290  -24.3357 N.2       2 ALA2        0.0000 
     26 CA        -14.0087  180.7506  -25.7402 C.3       5 GLY6        0.0000 
     27 N         -10.9463  188.1154  -22.8449 N.2       2 ALA2        0.0000 
     28 CA        -12.3904  187.0493  -21.7143 C.3       5 GLY6        0.0000 
     29 O         -12.3170  187.5709  -23.1187 O.2       2 ALA2        0.0000 
     30 CZ        -13.9077  185.4616  -19.1792 C.ar      4 PHE5        0.0000 
     31 CA        -13.8344  185.9832  -20.5836 C.3       5 GLY6        0.0000 
     32 CA        -13.7610  186.5048  -21.9881 C.3       5 GLY6        0.0000 
     33 CA        -13.6876  187.0265  -23.3926 C.3       5 GLY6        0.0000 
     34 N         -13.3165  182.0702  -23.6119 N.2       2 ALA2        0.0000 
     35 CZ        -13.5270  190.1644  -22.2188 C.ar      4 PHE5        0.0000 
     36 O         -13.2334  192.2508  -27.8367 O.2       2 ALA2        0.0000 
     37 O         -13.1600  192.7724  -29.2412 O.2       2 ALA2        0.0000 
     38 CZ        -13.0866  193.2940  -30.6456 C.ar      4 PHE5        0.0000 
     39 CZ        -14.8976  189.6199  -22.4926 C.ar      4 PHE5        0.0000 
     40 N         -14.8242  190.1415  -23.8971 N.2       2 ALA2        0.0000 
     41 N         -14.7508  190.6631  -25.3016 N.2       2 ALA2        0.0000 
     42 N         -14.6774  191.1847  -26.7061 N.2       2 ALA2        0.0000 
     43 N         -14.6040  191.7063  -28.1105 N.2       2 ALA2        0.0000 
     44 N         -14.5306  192.2279  -29.5150 N.2       2 ALA2        0.0000 
     45 CZ        -14.4572  192.7495  -30.9195 C.ar      4 PHE5        0.0000 
     46 O         -13.7650  194.0691  -28.7912 O.2       2 ALA2        0.0000 
     47 CZ        -13.6917  194.5907  -30.1956 C.ar      4 PHE5        0.0000 
     48 N         -15.3558  191.9598  -24.8516 N.2       2 ALA2        0.0000 
     49 O         -15.2824  192.4814  -26.2561 O.2       2 ALA2        0.0000 
     50 O         -15.2090  193.0030  -27.6606 O.2       2 ALA2        0.0000 
     51 N         -15.1357  193.5246  -29.0650 N.2       2 ALA2        0.0000 
     52 N         -15.0623  194.0463  -30.4695 N.2       2 ALA2        0.0000 
     53 CA        -16.7264  191.4153  -25.1255 C.3       5 GLY6        0.0000 
     54 CA        -14.5999  184.1420  -21.3075 C.3       5 GLY6        0.0000 
     55 CA        -14.5265  184.6636  -22.7119 C.3       5 GLY6        0.0000 
     56 CA        -14.4531  185.1853  -24.1164 C.3       5 GLY6        0.0000 
     57 CZ        -14.3797  185.7069  -25.5209 C.ar      4 PHE5        0.0000 
     58 CA        -15.9705  183.5976  -21.5813 C.3       5 GLY6        0.0000 
     59 CA        -15.8971  184.1192  -22.9858 C.3       5 GLY6        0.0000 
     60 DU        -15.8237  184.6408  -24.3902 H         6 CUB7        0.0000 
     61 OG        -15.7503  185.1624  -25.7947 O.2       1 SER1        0.0000 
     62 CZ        -15.6769  185.6840  -27.1992 C.ar      4 PHE5        0.0000 
     63 O         -14.6871  181.5257  -23.8857 O.2       2 ALA2        0.0000 
     64 CA        -14.6137  182.0474  -25.2902 C.3       5 GLY6        0.0000 
     65 CA        -16.0577  180.9813  -24.1596 C.3       5 GLY6        0.0000 
     66 OG        -15.9843  181.5029  -25.5640 O.2       1 SER1        0.0000 
     67 O         -13.9949  182.8453  -21.7574 O.2       2 ALA2        0.0000 
     68 CA        -13.9215  183.3669  -23.1619 C.3       5 GLY6        0.0000 
     69 OG        -13.8481  183.8885  -24.5664 O.2       1 SER1        0.0000 
     70 CA        -15.2921  182.8225  -23.4357 C.3       5 GLY6        0.0000 
     71 OG        -15.2187  183.3441  -24.8402 O.2       1 SER1        0.0000 
     72 CZ        -14.9985  184.9089  -29.0536 C.ar      4 PHE5        0.0000 
     73 CZ        -15.2050  185.4388  -20.8575 C.ar      4 PHE5        0.0000 
     74 DU        -15.1316  185.9604  -22.2620 H         6 CUB7        0.0000 
     75 DU        -15.0582  186.4820  -23.6664 H         6 CUB7        0.0000 
     76 CZ        -14.9848  187.0036  -25.0709 C.ar      4 PHE5        0.0000 
     77 CZ        -16.5022  185.4159  -22.5358 C.ar      4 PHE5        0.0000 
     78 CZ        -16.4288  185.9375  -23.9403 C.ar      4 PHE5        0.0000 
     79 NZ        -16.3554  186.4591  -25.3447 N.2       3 LYS4        0.0000 
     80 CZ        -16.2820  186.9807  -26.7492 C.ar      4 PHE5        0.0000 
     81 CZ        -16.2086  187.5023  -28.1537 C.ar      4 PHE5        0.0000 
     82 CZ        -16.1352  188.0239  -29.5582 C.ar      4 PHE5        0.0000 
     83 CZ        -17.8728  184.8714  -22.8096 C.ar      4 PHE5        0.0000 
     84 CZ        -17.7994  185.3930  -24.2141 C.ar      4 PHE5        0.0000 
     85 O         -17.7260  185.9146  -25.6186 O.2       2 ALA2        0.0000 
     86 NZ        -17.5058  187.4795  -29.8320 N.2       3 LYS4        0.0000 
     87 N         -15.4527  179.6846  -24.6095 N.2       2 ALA2        0.0000 
     88 CA        -13.0688  187.8244  -19.8598 C.3       5 GLY6        0.0000 
     89 CA        -12.9954  188.3460  -21.2643 C.3       5 GLY6        0.0000 
     90 CA        -12.9220  188.8676  -22.6688 C.3       5 GLY6        0.0000 
     91 N         -12.8486  189.3893  -24.0732 N.2       2 ALA2        0.0000 
     92 CZ        -12.6284  190.9541  -28.2867 C.ar      4 PHE5        0.0000 
     93 CZ        -12.5550  191.4757  -29.6911 C.ar      4 PHE5        0.0000 
     94 CA        -14.4394  187.2799  -20.1337 C.3       5 GLY6        0.0000 
     95 CZ        -14.3660  187.8016  -21.5381 C.ar      4 PHE5        0.0000 
     96 CA        -14.2926  188.3232  -22.9426 C.3       5 GLY6        0.0000 
     97 CA        -14.2192  188.8448  -24.3471 C.3       5 GLY6        0.0000 
     98 CZ        -14.1458  189.3664  -25.7516 C.ar      4 PHE5        0.0000 
     99 CZ        -14.0724  189.8880  -27.1560 C.ar      4 PHE5        0.0000 
    100 CZ        -13.9990  190.4096  -28.5605 C.ar      4 PHE5        0.0000 
    101 CZ        -13.9256  190.9312  -29.9650 C.ar      4 PHE5        0.0000 
    102 CZ        -15.8100  186.7355  -20.4075 C.ar      4 PHE5        0.0000 
    103 DU        -15.7366  187.2571  -21.8120 H         6 CUB7        0.0000 
    104 DU        -15.6632  187.7787  -23.2165 H         6 CUB7        0.0000 
    105 DU        -15.5898  188.3003  -24.6209 H         6 CUB7        0.0000 
    106 CZ        -15.5164  188.8219  -26.0254 C.ar      4 PHE5        0.0000 
    107 N         -15.4430  189.3435  -27.4299 N.2       2 ALA2        0.0000 
    108 N         -15.3696  189.8651  -28.8343 N.2       2 ALA2        0.0000 
    109 N         -15.2962  190.3867  -30.2388 N.2       2 ALA2        0.0000 
    110 CZ        -17.1072  186.7126  -22.0858 C.ar      4 PHE5        0.0000 
    111 CZ        -17.0338  187.2342  -23.4903 C.ar      4 PHE5        0.0000 
    112 CZ        -16.9604  187.7558  -24.8948 C.ar      4 PHE5        0.0000 
    113 NZ        -16.8870  188.2774  -26.2992 N.2       3 LYS4        0.0000 
    114 N         -16.8136  188.7990  -27.7037 N.2       2 ALA2        0.0000 
    115 N         -16.7402  189.3207  -29.1082 N.2       2 ALA2        0.0000 
@<TRIPOS>BOND
@<TRIPOS>SUBSTRUCTURE
     1 SER1        8 GROUP   
     2 ALA2        2 GROUP   
     3 LYS4        4 GROUP   
     4 PHE5       10 GROUP   
     5 GLY6        1 GROUP   
     6 CUB7       20 GROUP   
@<TRIPOS>SET

