#    Name: 2xlt_NA0_1_INTS_M
#    Modification time : Tue Mar 25 06:22:17 2014

@<TRIPOS>MOLECULE
2xlt_NA0_1_INTS_M
   74     0     9     0     0
SMALL
NO_CHARGES


@<TRIPOS>ATOM
      1 N         -11.8645  184.5015  -23.6025 N.am      1 SEC2        0.0000 
      2 N         -13.0230  183.5840  -23.8740 N.am      7 SEL2        0.0000 
      3 N         -10.7060  185.4190  -23.3310 N.am      4 SEP2        0.0000 
      4 CA        -13.4560  186.8510  -24.5800 C.3       3 GLC5        0.0000 
      5 CA        -15.2390  186.4670  -23.4290 C.3       9 GLL5        0.0000 
      6 CA        -11.6730  187.2350  -25.7310 C.3       6 GLP5        0.0000 
      7 CA        -13.0900  180.4330  -26.3145 C.3       3 GLC5        0.0000 
      8 CA        -13.8870  178.5300  -25.8760 C.3       9 GLL5        0.0000 
      9 CA        -12.2930  182.3360  -26.7530 C.3       6 GLP5        0.0000 
     10 N         -10.9510  178.8030  -25.6945 N.am      1 SEC2        0.0000 
     11 N         -12.4880  178.7760  -26.1020 N.am      7 SEL2        0.0000 
     12 N          -9.4140  178.8300  -25.2870 N.am      4 SEP2        0.0000 
     13 CA        -11.5635  177.2410  -23.7400 C.3       3 GLC5        0.0000 
     14 CA        -13.5090  176.8990  -24.2280 C.3       9 GLL5        0.0000 
     15 CA         -9.6180  177.5830  -23.2520 C.3       6 GLP5        0.0000 
     16 CA        -13.4125  176.6550  -22.1340 C.3       3 GLC5        0.0000 
     17 CA        -13.3160  176.4110  -20.0400 C.3       6 GLP5        0.0000 
     18 CA        -10.6145  173.7450  -21.4385 C.3       3 GLC5        0.0000 
     19 CA        -11.6990  173.2370  -22.8350 C.3       9 GLL5        0.0000 
     20 CA         -9.5300  174.2530  -20.0420 C.3       6 GLP5        0.0000 
     21 CA        -11.8655  172.6995  -24.6250 C.3       3 GLC5        0.0000 
     22 CA        -12.0320  172.1620  -26.4150 C.3       6 GLP5        0.0000 
     23 N         -14.1870  183.3740  -26.7825 N.am      1 SEC2        0.0000 
     24 N         -15.3660  183.3420  -26.2340 N.am      7 SEL2        0.0000 
     25 N         -13.0080  183.4060  -27.3310 N.am      4 SEP2        0.0000 
     26 CA        -13.2740  181.4025  -25.5170 C.3       3 GLC5        0.0000 
     27 CA        -14.2550  180.4690  -24.2810 C.3       9 GLL5        0.0000 
     28 CA        -18.0100  187.7415  -23.9695 C.3       3 GLC5        0.0000 
     29 CA        -16.0270  187.4310  -24.2890 C.3       9 GLL5        0.0000 
     30 CA        -19.9930  188.0520  -23.6500 C.3       6 GLP5        0.0000 
     31 CA        -16.3510  190.2090  -22.0690 C.3       3 GLC5        0.0000 
     32 CA        -16.3450  188.7620  -23.6240 C.3       9 GLL5        0.0000 
     33 CA        -16.3570  191.6560  -20.5140 C.3       6 GLP5        0.0000 
     34 CA        -15.9660  191.1735  -23.0440 C.3       3 GLC5        0.0000 
     35 CA        -16.2150  189.7570  -24.7380 C.3       9 GLL5        0.0000 
     36 CA        -15.7170  192.5900  -21.3500 C.3       6 GLP5        0.0000 
     37 CA        -13.6155  188.2840  -26.4150 C.3       3 GLC5        0.0000 
     38 CA        -15.1820  189.1150  -25.6530 C.3       9 GLL5        0.0000 
     39 CA        -12.0490  187.4530  -27.1770 C.3       6 GLP5        0.0000 
     40 NZ        -16.0875  175.0410  -27.1195 N.4       2 LYC4        0.0000 
     41 NZ        -15.6300  176.0120  -27.9610 N.4       8 LYL4        0.0000 
     42 NZ        -16.0350  172.9560  -25.7640 N.4       5 LYP4        0.0000 
     43 N         -16.0875  175.0410  -27.1195 N.am      1 SEC2        0.0000 
     44 N         -15.6300  176.0120  -27.9610 N.am      7 SEL2        0.0000 
     45 N         -16.5450  174.0700  -26.2780 N.am      4 SEP2        0.0000 
     46 NZ        -14.2280  173.5155  -27.1925 N.4       2 LYC4        0.0000 
     47 NZ        -13.5960  174.5350  -28.2090 N.4       8 LYL4        0.0000 
     48 N         -14.2280  173.5155  -27.1925 N.am      1 SEC2        0.0000 
     49 N         -13.5960  174.5350  -28.2090 N.am      7 SEL2        0.0000 
     50 N         -14.8600  172.4960  -26.1760 N.am      4 SEP2        0.0000 
     51 N         -12.3535  173.5170  -28.8085 N.am      1 SEC2        0.0000 
     52 N         -11.1110  172.4990  -29.4080 N.am      4 SEP2        0.0000 
     53 CA        -15.0980  191.3090  -32.3660 C.3       3 GLC5        0.0000 
     54 CA        -14.6110  192.0960  -31.0600 C.3       9 GLL5        0.0000 
     55 CA        -15.5850  190.5220  -33.6720 C.3       6 GLP5        0.0000 
     56 CA        -14.9010  193.7470  -32.0515 C.3       3 GLC5        0.0000 
     57 CA        -15.1910  195.3980  -33.0430 C.3       6 GLP5        0.0000 
     58 CA        -13.0555  191.7375  -31.6700 C.3       3 GLC5        0.0000 
     59 CA        -11.5000  191.3790  -32.2800 C.3       6 GLP5        0.0000 
     60 CA        -14.2398  179.2135  -22.3735 C.3       3 GLC5        0.0000 
     61 CA        -14.1930  178.6990  -20.3640 C.3       6 GLP5        0.0000 
     62 CA        -14.4400  173.3057  -20.2092 C.3       3 GLC5        0.0000 
     63 CA        -14.3610  173.8430  -22.5460 C.3       9 GLL5        0.0000 
     64 CA        -14.7770  173.3670  -18.1010 C.3       6 GLP5        0.0000 
     65 CA        -14.0175  172.6314  -24.1979 C.3       3 GLC5        0.0000 
     66 CA        -13.4850  174.7050  -23.1700 C.3       9 GLL5        0.0000 
     67 CA        -14.2410  171.2880  -25.6520 C.3       6 GLP5        0.0000 
     68 CA        -13.5550  175.1929  -21.3919 C.3       3 GLC5        0.0000 
     69 CA        -13.8450  172.6460  -22.0890 C.3       9 GLL5        0.0000 
     70 CA        -18.1115  189.2902  -23.6050 C.3       3 GLC5        0.0000 
     71 CA        -19.9430  189.3210  -23.0290 C.3       6 GLP5        0.0000 
     72 CA        -16.7645  191.3165  -30.2425 C.3       3 GLC5        0.0000 
     73 CA        -14.9090  190.5110  -29.0460 C.3       9 GLL5        0.0000 
     74 CA        -18.1880  192.5390  -31.0810 C.3       6 GLP5        0.0000 
@<TRIPOS>BOND
@<TRIPOS>SUBSTRUCTURE
     1 SEC2        1 GROUP        1 X    SEC  0     ROOT SEC X 2
     2 LYC4       40 GROUP        1 X    LYC  0     **** LYC X 4
     3 GLC5        4 GROUP        1 X    GLC  0     **** GLC X 6
     4 SEP2        3 GROUP        1 Y    SEP  0     ROOT SEP Y 9
     5 LYP4       42 GROUP        1 Y    LYP  0     **** LYP Y 11
     6 GLP5        6 GROUP        1 Y    GLP  0     **** GLP Y 13
     7 SEL2        2 GROUP        1 Z    SEL  0     ROOT SEL Z 16
     8 LYL4       41 GROUP        1 Z    LYL  0     **** LYL Z 18
     9 GLL5        5 GROUP        1 Z    GLL  0     **** GLL Z 20
@<TRIPOS>SET

