#    Name: 2xlt_NA0_1_ligand
#    Modification time : Tue Mar 25 06:22:17 2014

@<TRIPOS>MOLECULE
2xlt_NA0_1_ligand
   74    78     1     0     0
SMALL
NO_CHARGES


@<TRIPOS>ATOM
      1 PN        -14.3840  184.0150  -23.3890 P.3       1 NA0501      0.0000 
      2 O1N       -13.0230  183.5840  -23.8740 O.co2     1 NA0501      0.0000 
      3 O2N       -14.6020  184.2910  -21.9240 O.co2     1 NA0501      0.0000 
      4 O5D       -14.8750  185.3100  -24.2000 O.3       1 NA0501      0.0000 
      5 C5D       -15.2390  186.4670  -23.4290 C.3       1 NA0501      0.0000 
      6 C4B       -14.3180  178.9870  -24.4850 C.3       1 NA0501      0.0000 
      7 O4B       -13.5970  178.1650  -23.5650 O.3       1 NA0501      0.0000 
      8 C3B       -13.8870  178.5300  -25.8760 C.3       1 NA0501      0.0000 
      9 O3B       -12.4880  178.7760  -26.1020 O.3       1 NA0501      0.0000 
     10 C2B       -14.1390  177.0600  -25.6090 C.3       1 NA0501      0.0000 
     11 O2B       -13.5270  176.2020  -26.5430 O.3       1 NA0501      0.0000 
     12 C1B       -13.5090  176.8990  -24.2280 C.3       1 NA0501      0.0000 
     13 N9A       -14.1660  175.7770  -23.5320 N.pl3     1 NA0501      0.0000 
     14 C8A       -15.4530  175.6070  -23.1750 C.2       1 NA0501      0.0000 
     15 N7A       -15.5750  174.4120  -22.5570 N.2       1 NA0501      0.0000 
     16 C5A       -14.3610  173.8430  -22.5460 C.ar      1 NA0501      0.0000 
     17 C6A       -13.8450  172.6460  -22.0890 C.ar      1 NA0501      0.0000 
     18 N6A       -14.6420  171.7660  -21.4790 N.pl3     1 NA0501      0.0000 
     19 N1A       -12.5290  172.3820  -22.2380 N.ar      1 NA0501      0.0000 
     20 C2A       -11.6990  173.2370  -22.8350 C.ar      1 NA0501      0.0000 
     21 N3A       -12.1750  174.3890  -23.2930 N.ar      1 NA0501      0.0000 
     22 C4A       -13.4850  174.7050  -23.1700 C.ar      1 NA0501      0.0000 
     23 O3        -15.5050  182.9000  -23.7490 O.3       1 NA0501      0.0000 
     24 PA        -15.8750  182.3540  -25.2060 P.3       1 NA0501      0.0000 
     25 O2A       -15.3660  183.3420  -26.2340 O.co2     1 NA0501      0.0000 
     26 O1A       -17.3170  181.9660  -25.1450 O.co2     1 NA0501      0.0000 
     27 O5B       -15.1200  180.9560  -25.2940 O.3       1 NA0501      0.0000 
     28 C5B       -14.2550  180.4690  -24.2810 C.3       1 NA0501      0.0000 
     29 C4D       -16.0270  187.4310  -24.2890 C.3       1 NA0501      0.0000 
     30 O4D       -15.2460  187.7160  -25.4490 O.3       1 NA0501      0.0000 
     31 C3D       -16.3450  188.7620  -23.6240 C.3       1 NA0501      0.0000 
     32 O3D       -15.3650  189.1330  -22.6540 O.3       1 NA0501      0.0000 
     33 C2D       -16.2150  189.7570  -24.7380 C.3       1 NA0501      0.0000 
     34 O2D       -15.6880  190.9580  -24.1720 O.3       1 NA0501      0.0000 
     35 C1D       -15.1820  189.1150  -25.6530 C.3       1 NA0501      0.0000 
     36 N1N       -15.4120  189.3180  -27.0660 N.pl3     1 NA0501      0.0000 
     37 C2N       -14.7400  190.3050  -27.6830 C.ar      1 NA0501      0.0000 
     38 C3N       -14.9090  190.5110  -29.0460 C.ar      1 NA0501      0.0000 
     39 C7N       -14.1870  191.6450  -29.7060 C.2       1 NA0501      0.0000 
     40 O7N       -13.2880  192.2410  -29.1200 O.2       1 NA0501      0.0000 
     41 C4N       -15.7730  189.6770  -29.7620 C.ar      1 NA0501      0.0000 
     42 C5N       -16.4500  188.6580  -29.0940 C.ar      1 NA0501      0.0000 
     43 C6N       -16.2450  188.4890  -27.7300 C.ar      1 NA0501      0.0000 
     44 P2B       -14.1270  175.9120  -28.0220 P.3       1 NA0501      0.0000 
     45 O2X       -15.6300  176.0120  -27.9610 O.co2     1 NA0501      0.0000 
     46 O1X       -13.5960  174.5350  -28.2090 O.co2     1 NA0501      0.0000 
     47 O3X       -13.4650  176.9650  -28.8440 O.co2     1 NA0501      0.0000 
     48 CAA       -14.6110  192.0960  -31.0600 C.3       1 NA0501      0.0000 
     49 H         -14.3517  186.9899  -23.0516 H         1 NA0501      0.0000 
     50 H         -15.8576  186.1924  -22.5658 H         1 NA0501      0.0000 
     51 H         -15.4102  178.6811  -24.4251 H         1 NA0501      0.0000 
     52 H         -14.5500  178.8715  -26.5662 H         1 NA0501      0.0000 
     53 H         -15.1877  176.9189  -25.4933 H         1 NA0501      0.0000 
     54 H         -12.4567  176.6414  -24.4115 H         1 NA0501      0.0000 
     55 H         -16.1721  176.2342  -23.3334 H         1 NA0501      0.0000 
     56 H         -15.6089  172.0145  -21.4209 H         1 NA0501      0.0000 
     57 H         -14.2006  170.9373  -21.1349 H         1 NA0501      0.0000 
     58 H         -10.6883  173.0021  -22.9401 H         1 NA0501      0.0000 
     59 H         -13.2436  180.7970  -24.4188 H         1 NA0501      0.0000 
     60 H         -14.6118  180.7008  -23.2968 H         1 NA0501      0.0000 
     61 H         -16.9568  186.9616  -24.5827 H         1 NA0501      0.0000 
     62 H         -17.3234  188.7658  -23.2705 H         1 NA0501      0.0000 
     63 H         -17.1137  189.8636  -25.2305 H         1 NA0501      0.0000 
     64 H         -14.2037  189.4766  -25.3720 H         1 NA0501      0.0000 
     65 H         -14.0924  190.9220  -27.1606 H         1 NA0501      0.0000 
     66 H         -15.9057  189.8148  -30.7661 H         1 NA0501      0.0000 
     67 H         -17.0890  188.0436  -29.6029 H         1 NA0501      0.0000 
     68 H         -16.7390  187.7228  -27.2399 H         1 NA0501      0.0000 
     69 H         -14.0540  192.8587  -31.3887 H         1 NA0501      0.0000 
     70 H         -14.5337  191.3636  -31.7365 H         1 NA0501      0.0000 
     71 H         -15.5626  192.4032  -31.0680 H         1 NA0501      0.0000 
     72 H         -12.1453  177.9422  -26.5347 H         1 NA0501      0.0000 
     73 H         -14.9995  190.0062  -22.9764 H         1 NA0501      0.0000 
     74 H         -16.3392  191.6722  -24.4284 H         1 NA0501      0.0000 
@<TRIPOS>BOND
     1    2    1 ar   
     2    3    1 ar   
     3    4    1 1    
     4   23    1 1    
     5    5    4 1    
     6   29    5 1    
     7   49    5 1    
     8   50    5 1    
     9    7    6 1    
    10    8    6 1    
    11   28    6 1    
    12   51    6 1    
    13   12    7 1    
    14    9    8 1    
    15   10    8 1    
    16   52    8 1    
    17   72    9 1    
    18   11   10 1    
    19   12   10 1    
    20   53   10 1    
    21   44   11 1    
    22   13   12 1    
    23   54   12 1    
    24   14   13 1    
    25   22   13 1    
    26   15   14 2    
    27   55   14 1    
    28   16   15 1    
    29   17   16 ar   
    30   22   16 ar   
    31   18   17 1    
    32   19   17 ar   
    33   56   18 1    
    34   57   18 1    
    35   20   19 ar   
    36   21   20 ar   
    37   58   20 1    
    38   22   21 ar   
    39   24   23 1    
    40   25   24 ar   
    41   26   24 ar   
    42   27   24 1    
    43   28   27 1    
    44   59   28 1    
    45   60   28 1    
    46   30   29 1    
    47   31   29 1    
    48   61   29 1    
    49   35   30 1    
    50   32   31 1    
    51   33   31 1    
    52   62   31 1    
    53   73   32 1    
    54   34   33 1    
    55   35   33 1    
    56   63   33 1    
    57   74   34 1    
    58   36   35 1    
    59   64   35 1    
    60   37   36 ar   
    61   43   36 ar   
    62   38   37 ar   
    63   65   37 1    
    64   39   38 1    
    65   41   38 ar   
    66   40   39 2    
    67   48   39 1    
    68   42   41 ar   
    69   66   41 1    
    70   43   42 ar   
    71   67   42 1    
    72   68   43 1    
    73   45   44 ar   
    74   46   44 ar   
    75   47   44 ar   
    76   69   48 1    
    77   70   48 1    
    78   71   48 1    
@<TRIPOS>SUBSTRUCTURE
     1 NA0501      1 GROUP   
@<TRIPOS>SET

