#    Name: 1fvv_107_1_INTS_M
#    Modification time : Tue Mar 25 02:07:07 2014

@<TRIPOS>MOLECULE
1fvv_107_1_INTS_M
   54     0     6     0     0
SMALL
NO_CHARGES


@<TRIPOS>ATOM
      1 N         -10.6965  208.8525  108.1440 N.am      1 SEC2        0.0000 
      2 N         -11.2220  207.9760  109.2120 N.am      5 SEL2        0.0000 
      3 N         -10.1710  209.7290  107.0760 N.am      3 SEP2        0.0000 
      4 CA        -17.4185  206.8620  113.8460 C.3       2 GLC5        0.0000 
      5 CA        -15.7410  206.0270  112.6900 C.3       6 GLL5        0.0000 
      6 CA        -19.0960  207.6970  115.0020 C.3       4 GLP5        0.0000 
      7 N         -17.0810  204.2880  114.0260 N.am      1 SEC2        0.0000 
      8 N         -16.2320  205.7140  113.9500 N.am      5 SEL2        0.0000 
      9 N         -17.9300  202.8620  114.1020 N.am      3 SEP2        0.0000 
     10 CA        -13.3825  204.4005  114.3430 C.3       2 GLC5        0.0000 
     11 CA        -13.8140  206.4530  114.4280 C.3       6 GLL5        0.0000 
     12 CA        -12.9510  202.3480  114.2580 C.3       4 GLP5        0.0000 
     13 CA        -12.5425  204.8540  111.9460 C.3       2 GLC5        0.0000 
     14 CA        -13.5570  206.8060  111.5860 C.3       6 GLL5        0.0000 
     15 CA        -11.5280  202.9020  112.3060 C.3       4 GLP5        0.0000 
     16 N          -2.7525  210.7800  114.5835 N.am      1 SEC2        0.0000 
     17 N          -4.2100  210.2890  114.2980 N.am      5 SEL2        0.0000 
     18 N          -1.2950  211.2710  114.8690 N.am      3 SEP2        0.0000 
     19 N          -7.0250  212.4265  114.7715 N.am      1 SEC2        0.0000 
     20 N          -5.8540  211.6490  115.5540 N.am      5 SEL2        0.0000 
     21 N          -8.1960  213.2040  113.9890 N.am      3 SEP2        0.0000 
     22 CA         -5.2785  205.8155  114.6765 C.3       2 GLC5        0.0000 
     23 CA         -4.0220  207.4320  115.1920 C.3       6 GLL5        0.0000 
     24 CA         -6.5350  204.1990  114.1610 C.3       4 GLP5        0.0000 
     25 CA        -17.1030  207.7117  110.0545 C.3       2 GLC5        0.0000 
     26 CA        -15.6380  206.3600  110.1900 C.3       6 GLL5        0.0000 
     27 CA        -18.1940  209.2600  109.3190 C.3       4 GLP5        0.0000 
     28 CA        -15.9830  205.4078  109.0665 C.3       2 GLC5        0.0000 
     29 CA        -15.9540  204.6520  107.3430 C.3       4 GLP5        0.0000 
     30 CA        -16.2972  204.2260  112.9185 C.3       2 GLC5        0.0000 
     31 CA        -16.3860  205.9670  111.3900 C.3       6 GLL5        0.0000 
     32 CA        -16.5310  202.4550  113.7970 C.3       4 GLP5        0.0000 
     33 CA        -12.4045  205.6782  109.8882 C.3       2 GLC5        0.0000 
     34 CA        -11.9290  204.3260  108.3200 C.3       4 GLP5        0.0000 
     35 CA        -10.1118  206.2415  111.3448 C.3       2 GLC5        0.0000 
     36 CA        -12.2030  207.2550  111.3270 C.3       6 GLL5        0.0000 
     37 CA         -8.5340  205.1180  110.9410 C.3       4 GLP5        0.0000 
     38 CA        -12.5340  208.8729  111.3836 C.3       2 GLC5        0.0000 
     39 CA        -11.1760  207.4750  112.1700 C.3       6 GLL5        0.0000 
     40 CA        -13.0400  210.4930  110.9540 C.3       4 GLP5        0.0000 
     41 CA         -8.4875  207.0358  111.5810 C.3       2 GLC5        0.0000 
     42 CA         -9.0990  208.8850  112.5560 C.3       6 GLL5        0.0000 
     43 CA        -10.5898  210.2498  113.1382 C.3       2 GLC5        0.0000 
     44 CA        -12.0090  211.4530  112.9920 C.3       4 GLP5        0.0000 
     45 CA         -9.2513  211.0860  115.0983 C.3       2 GLC5        0.0000 
     46 CA         -9.2420  209.2080  114.0130 C.3       6 GLL5        0.0000 
     47 CA         -9.8480  212.7710  115.7980 C.3       4 GLP5        0.0000 
     48 CA         -7.1185  211.2130  113.2390 C.3       2 GLC5        0.0000 
     49 CA         -8.0670  209.5940  114.7840 C.3       6 GLL5        0.0000 
     50 CA         -6.8210  212.7450  112.0370 C.3       4 GLP5        0.0000 
     51 CA         -7.0080  210.9900  112.1565 C.3       2 GLC5        0.0000 
     52 CA         -6.6070  209.4480  112.6660 C.3       6 GLL5        0.0000 
     53 CA         -5.3727  204.9808  115.4672 C.3       2 GLC5        0.0000 
     54 CA         -3.5620  206.0480  115.3440 C.3       6 GLL5        0.0000 
@<TRIPOS>BOND
@<TRIPOS>SUBSTRUCTURE
     1 SEC2        1 GROUP        1 X    SEC  0     ROOT SEC X 2
     2 GLC5        4 GROUP        1 X    GLC  0     **** GLC X 6
     3 SEP2        3 GROUP        1 Y    SEP  0     ROOT SEP Y 9
     4 GLP5        6 GROUP        1 Y    GLP  0     **** GLP Y 13
     5 SEL2        2 GROUP        1 Z    SEL  0     ROOT SEL Z 16
     6 GLL5        5 GROUP        1 Z    GLL  0     **** GLL Z 20
@<TRIPOS>SET

