#    Name: 1fvv_107_1_ligand
#    Modification time : Tue Mar 25 02:07:07 2014

@<TRIPOS>MOLECULE
1fvv_107_1_ligand
   46    50     1     0     0
SMALL
NO_CHARGES


@<TRIPOS>ATOM
      1 O1        -11.2220  207.9760  109.2120 O.2       1 107501      0.0000 
      2 C2        -12.1710  207.5020  109.8420 C.2       1 107501      0.0000 
      3 N3        -13.3600  207.1380  109.3200 N.2       1 107501      0.0000 
      4 C4        -14.2170  206.7500  110.3000 C.ar      1 107501      0.0000 
      5 C5        -15.6380  206.3600  110.1900 C.ar      1 107501      0.0000 
      6 C6        -16.3860  205.9670  111.3900 C.ar      1 107501      0.0000 
      7 C7        -15.7410  206.0270  112.6900 C.ar      1 107501      0.0000 
      8 N8        -16.2320  205.7140  113.9500 N.2       1 107501      0.0000 
      9 C9        -15.3040  205.8370  114.9320 C.2       1 107501      0.0000 
     10 S10       -13.8140  206.4530  114.4280 S.3       1 107501      0.0000 
     11 C11       -14.2920  206.4680  112.8160 C.ar      1 107501      0.0000 
     12 C12       -13.5570  206.8060  111.5860 C.ar      1 107501      0.0000 
     13 C13       -12.2030  207.2550  111.3270 C.2       1 107501      0.0000 
     14 C14       -11.1760  207.4750  112.1700 C.3       1 107501      0.0000 
     15 N15       -10.1070  208.4390  111.7920 N.pl3     1 107501      0.0000 
     16 C16        -9.0990  208.8850  112.5560 C.ar      1 107501      0.0000 
     17 C17        -9.2420  209.2080  114.0130 C.ar      1 107501      0.0000 
     18 C18        -8.0670  209.5940  114.7840 C.ar      1 107501      0.0000 
     19 C19        -6.7650  209.7680  114.0980 C.ar      1 107501      0.0000 
     20 C20        -6.6070  209.4480  112.6660 C.ar      1 107501      0.0000 
     21 C21        -7.7830  209.0220  111.8860 C.ar      1 107501      0.0000 
     22 S22        -5.4220  210.3800  115.0540 S.o2      1 107501      0.0000 
     23 O23        -4.2100  210.2890  114.2980 O.2       1 107501      0.0000 
     24 O24        -5.8540  211.6490  115.5540 O.2       1 107501      0.0000 
     25 N25        -5.2170  209.3650  116.3500 N.pl3     1 107501      0.0000 
     26 C27        -3.5620  206.0480  115.3440 C.ar      1 107501      0.0000 
     27 C28        -3.8620  205.2520  116.5560 C.ar      1 107501      0.0000 
     28 C29        -4.7090  205.8750  117.5970 C.ar      1 107501      0.0000 
     29 N30        -5.1930  207.2180  117.4430 N.ar      1 107501      0.0000 
     30 C31        -4.8230  208.0270  116.3130 C.ar      1 107501      0.0000 
     31 C32        -4.0220  207.4320  115.1920 C.ar      1 107501      0.0000 
     32 H         -16.0864  206.3653  109.2952 H         1 107501      0.0000 
     33 H         -17.3365  205.6598  111.3058 H         1 107501      0.0000 
     34 H         -15.3307  205.6395  115.8680 H         1 107501      0.0000 
     35 H         -10.6365  206.4930  112.4429 H         1 107501      0.0000 
     36 H         -11.5477  207.8045  113.2107 H         1 107501      0.0000 
     37 H         -10.2010  208.7875  110.7768 H         1 107501      0.0000 
     38 H         -10.1431  209.1537  114.4348 H         1 107501      0.0000 
     39 H          -8.1278  209.7431  115.7703 H         1 107501      0.0000 
     40 H          -5.7141  209.5194  112.2315 H         1 107501      0.0000 
     41 H          -7.6982  208.8260  110.9124 H         1 107501      0.0000 
     42 H          -5.4272  209.8683  117.2389 H         1 107501      0.0000 
     43 H          -3.0219  205.6178  114.6002 H         1 107501      0.0000 
     44 H          -3.5106  204.3418  116.6647 H         1 107501      0.0000 
     45 H          -4.9392  205.3330  118.4196 H         1 107501      0.0000 
     46 H          -3.8218  207.9628  114.3929 H         1 107501      0.0000 
@<TRIPOS>BOND
     1    2    1 2    
     2    3    2 1    
     3   13    2 1    
     4    4    3 2    
     5    5    4 ar   
     6   12    4 ar   
     7    6    5 ar   
     8   32    5 1    
     9    7    6 ar   
    10   33    6 1    
    11    8    7 1    
    12   11    7 ar   
    13    9    8 2    
    14   10    9 1    
    15   34    9 1    
    16   11   10 1    
    17   12   11 ar   
    18   13   12 2    
    19   14   13 1    
    20   15   14 1    
    21   35   14 1    
    22   36   14 1    
    23   16   15 1    
    24   37   15 1    
    25   17   16 ar   
    26   21   16 ar   
    27   18   17 ar   
    28   38   17 1    
    29   19   18 ar   
    30   39   18 1    
    31   20   19 ar   
    32   22   19 1    
    33   21   20 ar   
    34   40   20 1    
    35   41   21 1    
    36   23   22 2    
    37   24   22 2    
    38   25   22 1    
    39   30   25 1    
    40   42   25 1    
    41   27   26 ar   
    42   31   26 ar   
    43   43   26 1    
    44   28   27 ar   
    45   44   27 1    
    46   29   28 ar   
    47   45   28 1    
    48   30   29 ar   
    49   31   30 ar   
    50   46   31 1    
@<TRIPOS>SUBSTRUCTURE
     1 107501      1 GROUP   
@<TRIPOS>SET

