#    Name: 2vij_C44_1_INTS_M
#    Modification time : Tue Mar 25 01:52:52 2014

@<TRIPOS>MOLECULE
2vij_C44_1_INTS_M
   79     0    12     0     0
SMALL
NO_CHARGES


@<TRIPOS>ATOM
      1 O          27.8785    0.7880   34.2995 O.2       1 ALC1        0.0000 
      2 O          28.9560    1.6770   34.0080 O.2       9 ALL1        0.0000 
      3 O          26.8010   -0.1010   34.5910 O.2       5 ALP1        0.0000 
      4 CA         26.2575    2.2790   33.7990 C.3       4 GLC5        0.0000 
      5 CA         27.8950    3.7520   33.3640 C.3      12 GLL5        0.0000 
      6 CA         24.6200    0.8060   34.2340 C.3       8 GLP5        0.0000 
      7 CA         28.9945    3.2210   30.9300 C.3       4 GLC5        0.0000 
      8 CA         27.9250    1.6750   31.7880 C.3      12 GLL5        0.0000 
      9 CA         30.0640    4.7670   30.0720 C.3       8 GLP5        0.0000 
     10 CA         26.2725    1.2405   33.0110 C.3       4 GLC5        0.0000 
     11 N          32.6070    2.1110   34.1495 N.am      2 SEC2        0.0000 
     12 N          31.1080    2.3240   34.2700 N.am     10 SEL2        0.0000 
     13 N          34.1060    1.8980   34.0290 N.am      6 SEP2        0.0000 
     14 CA         29.2725   -2.8475   38.1780 C.3       4 GLC5        0.0000 
     15 CA         30.8430   -1.8660   37.0790 C.3      12 GLL5        0.0000 
     16 CA         27.7020   -3.8290   39.2770 C.3       8 GLP5        0.0000 
     17 CA         32.1460    2.1900   36.4185 C.3       4 GLC5        0.0000 
     18 CA         31.0290    0.5340   36.6190 C.3      12 GLL5        0.0000 
     19 CA         33.2630    3.8460   36.2180 C.3       8 GLP5        0.0000 
     20 CA         31.0950    2.2025   31.2010 C.3       4 GLC5        0.0000 
     21 CA         30.0840    0.4490   31.0780 C.3      12 GLL5        0.0000 
     22 CA         32.1060    3.9560   31.3240 C.3       8 GLP5        0.0000 
     23 OD1        26.0910    4.8180   35.1965 O.co2     3 ASC3        0.0000 
     24 OD1        27.7540    5.7420   34.7740 O.co2    11 ASL3        0.0000 
     25 OD1        24.4280    3.8940   35.6190 O.co2     7 ASP3        0.0000 
     26 OD1        26.9755    5.2105   35.7215 O.co2     3 ASC3        0.0000 
     27 OD1        26.1970    4.6790   36.6690 O.co2     7 ASP3        0.0000 
     28 CA         29.7665   -5.0770   32.7695 C.3       4 GLC5        0.0000 
     29 CA         29.2470   -3.7140   34.1570 C.3      12 GLL5        0.0000 
     30 CA         30.2860   -6.4400   31.3820 C.3       8 GLP5        0.0000 
     31 CA         25.8495   -4.4595   33.7655 C.3       4 GLC5        0.0000 
     32 CA         27.7150   -3.7080   34.2120 C.3      12 GLL5        0.0000 
     33 CA         23.9840   -5.2110   33.3190 C.3       8 GLP5        0.0000 
     34 CA         33.7375    1.6790   38.0060 C.3       4 GLC5        0.0000 
     35 CA         33.3840   -0.1610   38.5600 C.3      12 GLL5        0.0000 
     36 CA         34.0910    3.5190   37.4520 C.3       8 GLP5        0.0000 
     37 N          28.8375   -1.6035   40.6865 N.am      2 SEC2        0.0000 
     38 N          30.1170   -1.5540   39.9900 N.am     10 SEL2        0.0000 
     39 N          27.5580   -1.6530   41.3830 N.am      6 SEP2        0.0000 
     40 CA         26.2910    6.7735   34.6495 C.3       4 GLC5        0.0000 
     41 CA         28.3850    6.9530   35.3670 C.3      12 GLL5        0.0000 
     42 CA         24.1970    6.5940   33.9320 C.3       8 GLP5        0.0000 
     43 CA         27.7370    8.7010   34.9685 C.3       4 GLC5        0.0000 
     44 CA         27.0890   10.4490   34.5700 C.3       8 GLP5        0.0000 
     45 CA         32.1650    9.0165   38.1940 C.3       4 GLC5        0.0000 
     46 CA         30.9610    8.0510   36.5870 C.3      12 GLL5        0.0000 
     47 CA         33.3690    9.9820   39.8010 C.3       8 GLP5        0.0000 
     48 O          25.9115    4.0690   32.4300 O.2       1 ALC1        0.0000 
     49 O          27.5730    4.5850   32.2710 O.2       9 ALL1        0.0000 
     50 O          24.2500    3.5530   32.5890 O.2       5 ALP1        0.0000 
     51 O          26.5155    4.2590   31.5305 O.2       1 ALC1        0.0000 
     52 O          25.4580    3.9330   30.7900 O.2       5 ALP1        0.0000 
     53 CA         29.1743    3.9525   31.5905 C.3       4 GLC5        0.0000 
     54 CA         32.0352   -0.4170   34.6238 C.3       4 GLC5        0.0000 
     55 CA         29.9880   -0.9460   34.9670 C.3      12 GLL5        0.0000 
     56 CA         33.8760   -0.5360   34.0800 C.3       8 GLP5        0.0000 
     57 CA         32.1997   -1.2508   35.2645 C.3       4 GLC5        0.0000 
     58 CA         30.2040   -2.0650   35.8190 C.3      12 GLL5        0.0000 
     59 CA         28.5311   -0.3187   36.3976 C.3       4 GLC5        0.0000 
     60 CA         26.8630    0.5440   37.3020 C.3       8 GLP5        0.0000 
     61 CA         32.5105   -0.2735   35.5670 C.3       4 GLC5        0.0000 
     62 CA         29.6850    0.6755   38.1660 C.3       4 GLC5        0.0000 
     63 CA         28.2250    1.3620   39.2780 C.3       8 GLP5        0.0000 
     64 CA         26.7295   -2.2408   30.6752 C.3       4 GLC5        0.0000 
     65 CA         27.9670   -0.7720   31.2260 C.3      12 GLL5        0.0000 
     66 CA         25.1660   -3.1140   30.3200 C.3       8 GLP5        0.0000 
     67 CA         27.2767    0.9525   29.8375 C.3       4 GLC5        0.0000 
     68 CA         26.4170    1.7620   28.2770 C.3       8 GLP5        0.0000 
     69 CA         27.7235   -5.6175   33.9318 C.3       4 GLC5        0.0000 
     70 CA         26.9660   -7.5240   33.6790 C.3       8 GLP5        0.0000 
     71 CA         28.8405    6.7353   39.0637 C.3       4 GLC5        0.0000 
     72 CA         28.8460    6.6620   36.8180 C.3      12 GLL5        0.0000 
     73 CA         28.4300    6.2190   41.0220 C.3       8 GLP5        0.0000 
     74 CA         27.4634    7.8786   37.4884 C.3       4 GLC5        0.0000 
     75 CA         29.6560    7.8410   37.3930 C.3      12 GLL5        0.0000 
     76 CA         25.7910    8.4330   38.2340 C.3       8 GLP5        0.0000 
     77 CA         32.1099    6.6465   32.1951 C.3       4 GLC5        0.0000 
     78 CA         30.5020    7.9240   32.2280 C.3      12 GLL5        0.0000 
     79 CA         33.0970    5.1120   31.5140 C.3       8 GLP5        0.0000 
@<TRIPOS>BOND
@<TRIPOS>SUBSTRUCTURE
     1 ALC1        1 GROUP        1 X    ALC  0     ROOT ALC X 1
     2 SEC2       11 GROUP        1 X    SEC  0     **** SEC X 2
     3 ASC3       23 GROUP        1 X    ASC  0     **** ASC X 3
     4 GLC5        4 GROUP        1 X    GLC  0     **** GLC X 6
     5 ALP1        3 GROUP        1 Y    ALP  0     ROOT ALP Y 8
     6 SEP2       13 GROUP        1 Y    SEP  0     **** SEP Y 9
     7 ASP3       25 GROUP        1 Y    ASP  0     **** ASP Y 10
     8 GLP5        6 GROUP        1 Y    GLP  0     **** GLP Y 13
     9 ALL1        2 GROUP        1 Z    ALL  0     ROOT ALL Z 15
    10 SEL2       12 GROUP        1 Z    SEL  0     **** SEL Z 16
    11 ASL3       24 GROUP        1 Z    ASL  0     **** ASL Z 17
    12 GLL5        5 GROUP        1 Z    GLL  0     **** GLL Z 20
@<TRIPOS>SET

