#    Name: 2vij_C44_1_ligand
#    Modification time : Tue Mar 25 01:52:52 2014

@<TRIPOS>MOLECULE
2vij_C44_1_ligand
   83    87     1     0     0
SMALL
NO_CHARGES


@<TRIPOS>ATOM
      1 C1         30.2050    1.5220   34.5170 C.2       1 C443000     0.0000 
      2 N2         28.9560    1.6770   34.0080 N.am      1 C443000     0.0000 
      3 C3         28.6740    2.5240   32.8540 C.3       1 C443000     0.0000 
      4 C4         27.8950    3.7520   33.3640 C.3       1 C443000     0.0000 
      5 C5         27.9250    1.6750   31.7880 C.3       1 C443000     0.0000 
      6 C6         28.6060    4.5960   34.4170 C.3       1 C443000     0.0000 
      7 O7         31.1080    2.3240   34.2700 O.2       1 C443000     0.0000 
      8 C8         30.4010    0.3500   35.3680 C.ar      1 C443000     0.0000 
      9 C9         29.9880   -0.9460   34.9670 C.ar      1 C443000     0.0000 
     10 C10        30.2040   -2.0650   35.8190 C.ar      1 C443000     0.0000 
     11 C11        30.8430   -1.8660   37.0790 C.ar      1 C443000     0.0000 
     12 C12        31.2610   -0.5560   37.4890 C.ar      1 C443000     0.0000 
     13 C13        31.0290    0.5340   36.6190 C.ar      1 C443000     0.0000 
     14 C14        28.6870    0.4410   31.3520 C.ar      1 C443000     0.0000 
     15 C15        30.0840    0.4490   31.0780 C.ar      1 C443000     0.0000 
     16 C16        30.7410   -0.7450   30.6860 C.ar      1 C443000     0.0000 
     17 C17        30.0060   -1.9500   30.5660 C.ar      1 C443000     0.0000 
     18 C18        28.6190   -1.9630   30.8350 C.ar      1 C443000     0.0000 
     19 C19        27.9670   -0.7720   31.2260 C.ar      1 C443000     0.0000 
     20 N20        27.7540    5.7420   34.7740 N.4       1 C443000     0.0000 
     21 N32        29.8130   -3.3460   35.4630 N.pl3     1 C443000     0.0000 
     22 C33        29.2470   -3.7140   34.1570 C.3       1 C443000     0.0000 
     23 C34        27.7150   -3.7080   34.2120 C.3       1 C443000     0.0000 
     24 S41        31.4930   -1.1420   40.0680 S.o2      1 C443000     0.0000 
     25 C42        32.4790   -2.6260   40.1570 C.3       1 C443000     0.0000 
     26 C43        33.9500   -2.2470   39.9490 C.3       1 C443000     0.0000 
     27 C44        34.1570   -1.4990   38.6200 C.3       1 C443000     0.0000 
     28 C45        33.3840   -0.1610   38.5600 C.3       1 C443000     0.0000 
     29 O52        31.8290   -0.3030   41.1740 O.2       1 C443000     0.0000 
     30 O53        30.1170   -1.5540   39.9900 O.2       1 C443000     0.0000 
     31 C54        28.3850    6.9530   35.3670 C.3       1 C443000     0.0000 
     32 C56        28.8460    6.6620   36.8180 C.3       1 C443000     0.0000 
     33 C57        29.6560    7.8410   37.3930 C.3       1 C443000     0.0000 
     34 C58        30.9610    8.0510   36.5870 C.3       1 C443000     0.0000 
     35 C59        30.7660    7.9920   35.0740 C.ar      1 C443000     0.0000 
     36 C60        29.5570    7.4780   34.4830 C.ar      1 C443000     0.0000 
     37 C67        31.8080    8.4550   34.2290 C.ar      1 C443000     0.0000 
     38 C68        31.6790    8.4210   32.8200 C.ar      1 C443000     0.0000 
     39 C69        30.5020    7.9240   32.2280 C.ar      1 C443000     0.0000 
     40 C70        29.4490    7.4570   33.0570 C.ar      1 C443000     0.0000 
     41 N75        31.8930   -0.3000   38.7030 N.pl3     1 C443000     0.0000 
     42 O82        27.5730    4.5850   32.2710 O.3       1 C443000     0.0000 
     43 H          28.1364    1.1887   34.4291 H         1 C443000     0.0000 
     44 H          29.6065    2.8642   32.4244 H         1 C443000     0.0000 
     45 H          26.9604    3.3775   33.8186 H         1 C443000     0.0000 
     46 H          27.7281    2.3162   30.9171 H         1 C443000     0.0000 
     47 H          26.9521    1.3813   32.2070 H         1 C443000     0.0000 
     48 H          29.5557    4.9348   34.0068 H         1 C443000     0.0000 
     49 H          28.7991    3.9730   35.2885 H         1 C443000     0.0000 
     50 H          29.5332   -1.0791   34.0629 H         1 C443000     0.0000 
     51 H          31.0059   -2.6606   37.6971 H         1 C443000     0.0000 
     52 H          31.3236    1.4783   36.9036 H         1 C443000     0.0000 
     53 H          30.6117    1.3172   31.1646 H         1 C443000     0.0000 
     54 H          31.7411   -0.7355   30.4909 H         1 C443000     0.0000 
     55 H          30.4804   -2.8089   30.2848 H         1 C443000     0.0000 
     56 H          28.0895   -2.8302   30.7471 H         1 C443000     0.0000 
     57 H          26.9599   -0.7847   31.4213 H         1 C443000     0.0000 
     58 H          29.9147   -4.1325   36.1513 H         1 C443000     0.0000 
     59 H          29.5749   -4.7146   33.8606 H         1 C443000     0.0000 
     60 H          29.5645   -3.0079   33.3842 H         1 C443000     0.0000 
     61 H          32.0887   -3.2238   39.3789 H         1 C443000     0.0000 
     62 H          32.2766   -2.9942   41.1258 H         1 C443000     0.0000 
     63 H          34.5571   -3.1520   39.9453 H         1 C443000     0.0000 
     64 H          34.2761   -1.6090   40.7700 H         1 C443000     0.0000 
     65 H          33.8240   -2.1358   37.7954 H         1 C443000     0.0000 
     66 H          35.2235   -1.2963   38.4858 H         1 C443000     0.0000 
     67 H          33.6222    0.3294   37.5993 H         1 C443000     0.0000 
     68 H          33.7752    0.4966   39.3567 H         1 C443000     0.0000 
     69 H          27.6365    7.7530   35.4207 H         1 C443000     0.0000 
     70 H          29.4642    5.7686   36.8187 H         1 C443000     0.0000 
     71 H          27.9704    6.4926   37.4385 H         1 C443000     0.0000 
     72 H          29.9088    7.6314   38.4262 H         1 C443000     0.0000 
     73 H          29.0592    8.7446   37.3406 H         1 C443000     0.0000 
     74 H          31.6850    7.2812   36.8903 H         1 C443000     0.0000 
     75 H          31.3857    9.0275   36.8608 H         1 C443000     0.0000 
     76 H          32.6715    8.8214   34.6496 H         1 C443000     0.0000 
     77 H          32.4449    8.7592   32.2326 H         1 C443000     0.0000 
     78 H          30.4026    7.8979   31.2170 H         1 C443000     0.0000 
     79 H          28.5886    7.0951   32.6280 H         1 C443000     0.0000 
     80 H          27.3652   -4.3544   34.8901 H         1 C443000     0.0000 
     81 H          27.3556   -2.8066   34.4535 H         1 C443000     0.0000 
     82 H          27.3108   -3.9587   33.3323 H         1 C443000     0.0000 
     83 H          26.7444    4.1867   31.8775 H         1 C443000     0.0000 
@<TRIPOS>BOND
     1    2    1 am   
     2    7    1 2    
     3    8    1 1    
     4    3    2 1    
     5   43    2 1    
     6    4    3 1    
     7    5    3 1    
     8   44    3 1    
     9    6    4 1    
    10   42    4 1    
    11   45    4 1    
    12   14    5 1    
    13   46    5 1    
    14   47    5 1    
    15   20    6 1    
    16   48    6 1    
    17   49    6 1    
    18    9    8 ar   
    19   13    8 ar   
    20   10    9 ar   
    21   50    9 1    
    22   11   10 ar   
    23   21   10 1    
    24   12   11 ar   
    25   51   11 1    
    26   13   12 ar   
    27   41   12 1    
    28   52   13 1    
    29   15   14 ar   
    30   19   14 ar   
    31   16   15 ar   
    32   53   15 1    
    33   17   16 ar   
    34   54   16 1    
    35   18   17 ar   
    36   55   17 1    
    37   19   18 ar   
    38   56   18 1    
    39   57   19 1    
    40   31   20 1    
    41   22   21 1    
    42   58   21 1    
    43   23   22 1    
    44   59   22 1    
    45   60   22 1    
    46   80   23 1    
    47   81   23 1    
    48   82   23 1    
    49   25   24 1    
    50   29   24 2    
    51   30   24 2    
    52   41   24 1    
    53   26   25 1    
    54   61   25 1    
    55   62   25 1    
    56   27   26 1    
    57   63   26 1    
    58   64   26 1    
    59   28   27 1    
    60   65   27 1    
    61   66   27 1    
    62   41   28 1    
    63   67   28 1    
    64   68   28 1    
    65   32   31 1    
    66   36   31 1    
    67   69   31 1    
    68   33   32 1    
    69   70   32 1    
    70   71   32 1    
    71   34   33 1    
    72   72   33 1    
    73   73   33 1    
    74   35   34 1    
    75   74   34 1    
    76   75   34 1    
    77   36   35 ar   
    78   37   35 ar   
    79   40   36 ar   
    80   38   37 ar   
    81   76   37 1    
    82   39   38 ar   
    83   77   38 1    
    84   40   39 ar   
    85   78   39 1    
    86   79   40 1    
    87   83   42 1    
@<TRIPOS>SUBSTRUCTURE
     1 C443000     1 GROUP   
@<TRIPOS>SET

