#    Name: 4an3_5Y0_1_INTS_M
#    Modification time : Tue Mar 25 05:48:31 2014

@<TRIPOS>MOLECULE
4an3_5Y0_1_INTS_M
   65     0     9     0     0
SMALL
NO_CHARGES


@<TRIPOS>ATOM
      1 CA          7.4165   35.6645    6.1675 C.3       3 GLC5        0.0000 
      2 CA          6.2150   36.5940    4.7370 C.3       9 GLL5        0.0000 
      3 CA          8.6180   34.7350    7.5980 C.3       6 GLP5        0.0000 
      4 CA          8.0825   36.6490    1.9345 C.3       3 GLC5        0.0000 
      5 CA          6.4510   37.0640    3.4270 C.3       9 GLL5        0.0000 
      6 CA          9.7140   36.2340    0.4420 C.3       6 GLP5        0.0000 
      7 CA          4.5400   37.1115    4.3830 C.3       3 GLC5        0.0000 
      8 CA          6.0880   37.5050    5.7620 C.3       9 GLL5        0.0000 
      9 CA          2.9920   36.7180    3.0040 C.3       6 GLP5        0.0000 
     10 CA          7.2390   34.4760    5.8715 C.3       3 GLC5        0.0000 
     11 CA          5.8600   34.2170    4.1450 C.3       9 GLL5        0.0000 
     12 N           3.3245   34.5680    7.2050 N.am      2 SEC2        0.0000 
     13 N           4.1460   33.8080    6.3810 N.am      8 SEL2        0.0000 
     14 N           2.5030   35.3280    8.0290 N.am      5 SEP2        0.0000 
     15 N           2.2170   33.8795    7.2245 N.am      2 SEC2        0.0000 
     16 N           1.9310   32.4310    6.4200 N.am      8 SEL2        0.0000 
     17 CA          2.7105   32.9190    8.8315 C.3       3 GLC5        0.0000 
     18 CA          1.8890   31.0650    8.6560 C.3       9 GLL5        0.0000 
     19 CA          3.5320   34.7730    9.0070 C.3       6 GLP5        0.0000 
     20 CA          2.9065   29.4455    7.9250 C.3       3 GLC5        0.0000 
     21 CA          3.9240   27.8260    7.1940 C.3       6 GLP5        0.0000 
     22 N          -0.2615   28.8935    9.3655 N.am      2 SEC2        0.0000 
     23 N           0.0600   29.6710    7.8380 N.am      8 SEL2        0.0000 
     24 N          -0.5830   28.1160   10.8930 N.am      5 SEP2        0.0000 
     25 O          -1.1185   30.4180    8.0485 O.2       1 ALC1        0.0000 
     26 O           0.0600   29.6710    7.8380 O.2       7 ALL1        0.0000 
     27 O          -2.2970   31.1650    8.2590 O.2       4 ALP1        0.0000 
     28 CA          8.4990   40.2045    3.7885 C.3       3 GLC5        0.0000 
     29 CA          6.6610   41.4760    3.9960 C.3       9 GLL5        0.0000 
     30 CA         10.3370   38.9330    3.5810 C.3       6 GLP5        0.0000 
     31 CA          5.2095   42.9485    4.3905 C.3       3 GLC5        0.0000 
     32 CA          3.7580   44.4210    4.7850 C.3       6 GLP5        0.0000 
     33 CA          4.4855   41.0810    4.2395 C.3       3 GLC5        0.0000 
     34 CA          2.3100   40.6860    4.4830 C.3       6 GLP5        0.0000 
     35 CA          6.6215   41.1535    1.8510 C.3       3 GLC5        0.0000 
     36 CA          6.5820   40.8310   -0.2940 C.3       6 GLP5        0.0000 
     37 CA          4.6895   35.9295    8.0205 C.3       3 GLC5        0.0000 
     38 CA          5.8470   37.0860    7.0340 C.3       9 GLL5        0.0000 
     39 CA          9.5545   34.8680    3.5275 C.3       3 GLC5        0.0000 
     40 CA          7.8250   34.9090    3.0170 C.3       9 GLL5        0.0000 
     41 CA         11.2840   34.8270    4.0380 C.3       6 GLP5        0.0000 
     42 CA          8.7695   35.5715    1.7295 C.3       3 GLC5        0.0000 
     43 CA          8.7350   34.6085    0.8740 C.3       3 GLC5        0.0000 
     44 CA          7.7560   32.9830    1.3060 C.3       9 GLL5        0.0000 
     45 CA          9.6515   32.4355    1.1595 C.3       3 GLC5        0.0000 
     46 CA         11.5470   31.8880    1.0130 C.3       6 GLP5        0.0000 
     47 CA          8.2355   32.1395    3.0365 C.3       3 GLC5        0.0000 
     48 CA          8.7150   31.2960    4.7670 C.3       6 GLP5        0.0000 
     49 CA          4.7190   37.1680    3.3265 C.3       3 GLC5        0.0000 
     50 CA          6.5590   38.4070    3.2160 C.3       9 GLL5        0.0000 
     51 CA          8.4097   38.7409    3.6804 C.3       3 GLC5        0.0000 
     52 CA          4.3197   39.8980    4.6835 C.3       3 GLC5        0.0000 
     53 CA          6.4600   39.3620    4.2380 C.3       9 GLL5        0.0000 
     54 CA          4.1647   35.2332    3.5957 C.3       3 GLC5        0.0000 
     55 CA          7.0263   32.5222    4.4772 C.3       3 GLC5        0.0000 
     56 CA          6.9655   31.7325    3.7727 C.3       3 GLC5        0.0000 
     57 CA          5.7040   32.1040    2.2720 C.3       9 GLL5        0.0000 
     58 CA          6.8468   33.3308   -0.0637 C.3       3 GLC5        0.0000 
     59 CA          6.7610   33.0200    2.2270 C.3       9 GLL5        0.0000 
     60 CA          6.4350   33.6600   -1.8940 C.3       6 GLP5        0.0000 
     61 CA          7.5431   37.7604    7.1540 C.3       3 GLC5        0.0000 
     62 CA          9.0910   37.8870    7.9680 C.3       6 GLP5        0.0000 
     63 CA          5.3856   39.2299    7.3485 C.3       3 GLC5        0.0000 
     64 CA          4.7760   40.8260    8.3570 C.3       6 GLP5        0.0000 
     65 CA          8.0092   32.7596    3.8073 C.3       3 GLC5        0.0000 
@<TRIPOS>BOND
@<TRIPOS>SUBSTRUCTURE
     1 ALC1       25 GROUP        1 X    ALC  0     ROOT ALC X 1
     2 SEC2       12 GROUP        1 X    SEC  0     **** SEC X 2
     3 GLC5        1 GROUP        1 X    GLC  0     **** GLC X 6
     4 ALP1       27 GROUP        1 Y    ALP  0     ROOT ALP Y 8
     5 SEP2       14 GROUP        1 Y    SEP  0     **** SEP Y 9
     6 GLP5        3 GROUP        1 Y    GLP  0     **** GLP Y 13
     7 ALL1       26 GROUP        1 Z    ALL  0     ROOT ALL Z 15
     8 SEL2       13 GROUP        1 Z    SEL  0     **** SEL Z 16
     9 GLL5        2 GROUP        1 Z    GLL  0     **** GLL Z 20
@<TRIPOS>SET

