#    Name: 4an3_5Y0_1_ligand
#    Modification time : Tue Mar 25 05:48:31 2014

@<TRIPOS>MOLECULE
4an3_5Y0_1_ligand
   40    41     1     0     0
SMALL
NO_CHARGES


@<TRIPOS>ATOM
      1 C13         6.2150   36.5940    4.7370 C.ar      1 5Y01384     0.0000 
      2 C14         6.4510   37.0640    3.4270 C.ar      1 5Y01384     0.0000 
      3 C15         6.5590   38.4070    3.2160 C.ar      1 5Y01384     0.0000 
      4 C16         6.4600   39.3620    4.2380 C.ar      1 5Y01384     0.0000 
      5 C17         6.1990   38.8580    5.5300 C.ar      1 5Y01384     0.0000 
      6 C18         6.0880   37.5050    5.7620 C.ar      1 5Y01384     0.0000 
      7 N9          6.0590   35.2600    5.0130 N.pl3     1 5Y01384     0.0000 
      8 C5          5.8600   34.2170    4.1450 C.ar      1 5Y01384     0.0000 
      9 C6          4.8150   33.2800    4.2300 C.ar      1 5Y01384     0.0000 
     10 C1          4.7280   32.2340    3.2850 C.ar      1 5Y01384     0.0000 
     11 C2          5.7040   32.1040    2.2720 C.ar      1 5Y01384     0.0000 
     12 C3          6.7610   33.0200    2.2270 C.ar      1 5Y01384     0.0000 
     13 C4          6.8030   34.0550    3.1290 C.ar      1 5Y01384     0.0000 
     14 C10         3.7900   33.3490    5.2940 C.2       1 5Y01384     0.0000 
     15 N12         2.6720   32.6270    5.2340 N.am      1 5Y01384     0.0000 
     16 O11         4.1460   33.8080    6.3810 O.2       1 5Y01384     0.0000 
     17 O21         1.9310   32.4310    6.4200 O.3       1 5Y01384     0.0000 
     18 C22         0.7310   31.6420    6.5050 C.3       1 5Y01384     0.0000 
     19 C24         1.8890   31.0650    8.6560 C.3       1 5Y01384     0.0000 
     20 O26         0.0600   29.6710    7.8380 O.3       1 5Y01384     0.0000 
     21 O23         1.8540   32.4070    9.1130 O.3       1 5Y01384     0.0000 
     22 C25         0.5740   31.0130    7.9020 C.3       1 5Y01384     0.0000 
     23 I20         6.6610   41.4760    3.9960 I         1 5Y01384     0.0000 
     24 F19         5.8470   37.0860    7.0340 F         1 5Y01384     0.0000 
     25 F7          7.8250   34.9090    3.0170 F         1 5Y01384     0.0000 
     26 F8          7.7560   32.9830    1.3060 F         1 5Y01384     0.0000 
     27 H           6.5363   36.3902    2.6628 H         1 5Y01384     0.0000 
     28 H           6.7262   38.7627    2.2362 H         1 5Y01384     0.0000 
     29 H           6.0910   39.5316    6.3104 H         1 5Y01384     0.0000 
     30 H           6.0989   34.9891    6.0764 H         1 5Y01384     0.0000 
     31 H           3.9537   31.5665    3.3342 H         1 5Y01384     0.0000 
     32 H           5.6342   31.3548    1.5893 H         1 5Y01384     0.0000 
     33 H           2.3262   32.2077    4.3650 H         1 5Y01384     0.0000 
     34 H           0.7341   30.8220    5.7719 H         1 5Y01384     0.0000 
     35 H          -0.1659   32.2492    6.3134 H         1 5Y01384     0.0000 
     36 H           1.8527   30.3614    9.4486 H         1 5Y01384     0.0000 
     37 H           2.6790   30.8860    7.9715 H         1 5Y01384     0.0000 
     38 H          -0.1372   31.6576    8.4549 H         1 5Y01384     0.0000 
     39 H          -0.9289   29.7671    7.9510 H         1 5Y01384     0.0000 
     40 H           2.0288   32.9619    8.2997 H         1 5Y01384     0.0000 
@<TRIPOS>BOND
     1    2    1 ar   
     2    6    1 ar   
     3    7    1 1    
     4    3    2 ar   
     5   27    2 1    
     6    4    3 ar   
     7   28    3 1    
     8    5    4 ar   
     9   23    4 1    
    10    6    5 ar   
    11   29    5 1    
    12   24    6 1    
    13    8    7 1    
    14   30    7 1    
    15    9    8 ar   
    16   13    8 ar   
    17   10    9 ar   
    18   14    9 1    
    19   11   10 ar   
    20   31   10 1    
    21   12   11 ar   
    22   32   11 1    
    23   13   12 ar   
    24   26   12 1    
    25   25   13 1    
    26   15   14 am   
    27   16   14 2    
    28   17   15 1    
    29   33   15 1    
    30   18   17 1    
    31   22   18 1    
    32   34   18 1    
    33   35   18 1    
    34   21   19 1    
    35   22   19 1    
    36   36   19 1    
    37   37   19 1    
    38   22   20 1    
    39   39   20 1    
    40   40   21 1    
    41   38   22 1    
@<TRIPOS>SUBSTRUCTURE
     1 5Y01384     1 GROUP   
@<TRIPOS>SET

