#    Name: 2ayr_L4G_1_INTS_M
#    Modification time : Mon Mar 24 19:43:10 2014

@<TRIPOS>MOLECULE
2ayr_L4G_1_INTS_M
  105     0    12     0     0
SMALL
NO_CHARGES


@<TRIPOS>ATOM
      1 CA         29.6870    2.7330   29.9280 C.3       4 GLC5        0.0000 
      2 CA         29.8570    1.3550   28.2530 C.3      12 GLL5        0.0000 
      3 CA         29.5170    4.1110   31.6030 C.3       8 GLP5        0.0000 
      4 CA         28.6670   -3.2025   25.2675 C.3       4 GLC5        0.0000 
      5 CA         28.2180   -2.4130   27.0040 C.3      12 GLL5        0.0000 
      6 CA         29.1160   -3.9920   23.5310 C.3       8 GLP5        0.0000 
      7 CA         31.9620    3.4285   27.3520 C.3       4 GLC5        0.0000 
      8 CA         32.8720    1.6290   27.7200 C.3      12 GLL5        0.0000 
      9 CA         31.0520    5.2280   26.9840 C.3       8 GLP5        0.0000 
     10 CA         32.9430    3.2035   29.2720 C.3       4 GLC5        0.0000 
     11 CA         33.0140    4.7780   30.8240 C.3       8 GLP5        0.0000 
     12 CA         25.3520    0.8780   28.7120 C.3       4 GLC5        0.0000 
     13 CA         26.5200   -0.1610   27.4720 C.3      12 GLL5        0.0000 
     14 CA         24.1840    1.9170   29.9520 C.3       8 GLP5        0.0000 
     15 CA         35.0265    3.3940   26.9640 C.3       4 GLC5        0.0000 
     16 CA         34.2670    1.8030   27.9250 C.3      12 GLL5        0.0000 
     17 CA         35.7860    4.9850   26.0030 C.3       8 GLP5        0.0000 
     18 CA         33.4915   -0.2885   23.5060 C.3       4 GLC5        0.0000 
     19 CA         31.9560   -1.3950   23.7080 C.3      12 GLL5        0.0000 
     20 CA         35.0270    0.8180   23.3040 C.3       8 GLP5        0.0000 
     21 CA         30.7780   -3.0555   28.3640 C.3       4 GLC5        0.0000 
     22 CA         30.2020   -1.0240   27.5980 C.3      12 GLL5        0.0000 
     23 CA         31.3540   -5.0870   29.1300 C.3       8 GLP5        0.0000 
     24 CA         32.4625   -2.1270   30.0495 C.3       4 GLC5        0.0000 
     25 CA         32.9800   -0.5030   28.9590 C.3      12 GLL5        0.0000 
     26 CA         31.9450   -3.7510   31.1400 C.3       8 GLP5        0.0000 
     27 CA         26.0815   -4.1335   27.6920 C.3       4 GLC5        0.0000 
     28 CA         26.8220   -2.5290   26.8260 C.3      12 GLL5        0.0000 
     29 CA         25.3410   -5.7380   28.5580 C.3       8 GLP5        0.0000 
     30 CA         27.3140   -3.6490   25.1090 C.3       4 GLC5        0.0000 
     31 CA         27.8060   -4.7690   23.3920 C.3       8 GLP5        0.0000 
     32 CA         29.4210   -0.8980   23.9030 C.3       4 GLC5        0.0000 
     33 CA         31.3180   -1.3050   24.9650 C.3      12 GLL5        0.0000 
     34 CA         27.5240   -0.4910   22.8410 C.3       8 GLP5        0.0000 
     35 N          23.6710   -1.6115   27.8490 N.am      2 SEC2        0.0000 
     36 N          24.6510   -1.5330   26.8790 N.am     10 SEL2        0.0000 
     37 N          22.6910   -1.6900   28.8190 N.am      6 SEP2        0.0000 
     38 O          24.5370   -2.5390   26.1170 O.2       1 ALC1        0.0000 
     39 O          24.6510   -1.5330   26.8790 O.2       9 ALL1        0.0000 
     40 O          24.4230   -3.5450   25.3550 O.2       5 ALP1        0.0000 
     41 O          23.5250   -2.1225   26.0090 O.2       1 ALC1        0.0000 
     42 O          22.3990   -2.7120   25.1390 O.2       5 ALP1        0.0000 
     43 CA         36.8160   -1.7485   28.0020 C.3       4 GLC5        0.0000 
     44 CA         38.0420   -0.2180   28.5040 C.3      12 GLL5        0.0000 
     45 CA         35.5900   -3.2790   27.5000 C.3       8 GLP5        0.0000 
     46 CA         38.8810   -1.2825   29.9305 C.3       4 GLC5        0.0000 
     47 CA         39.7200   -2.3470   31.3570 C.3       8 GLP5        0.0000 
     48 CA         39.0900    1.2115   27.8340 C.3       4 GLC5        0.0000 
     49 CA         40.1380    2.6410   27.1640 C.3       8 GLP5        0.0000 
     50 CA         37.1555   -0.5975   26.5195 C.3       4 GLC5        0.0000 
     51 CA         36.2690   -0.9770   24.5350 C.3       8 GLP5        0.0000 
     52 CA         39.2485   -1.5580   28.1385 C.3       4 GLC5        0.0000 
     53 CA         40.4550   -2.8980   27.7730 C.3       8 GLP5        0.0000 
     54 CA         35.2660   -2.2750   23.1475 C.3       4 GLC5        0.0000 
     55 CA         34.2630   -3.5730   21.7600 C.3      12 GLL5        0.0000 
     56 OD1        31.7240   -5.2585   19.8085 O.co2     3 ASC3        0.0000 
     57 OD1        32.5200   -4.1440   19.9020 O.co2    11 ASL3        0.0000 
     58 OD1        30.9280   -6.3730   19.7150 O.co2     7 ASP3        0.0000 
     59 O          31.7240   -5.2585   19.8085 O.2       1 ALC1        0.0000 
     60 O          32.5200   -4.1440   19.9020 O.2       9 ALL1        0.0000 
     61 O          30.9280   -6.3730   19.7150 O.2       5 ALP1        0.0000 
     62 CA         32.6935   -1.4950   19.6815 C.3       4 GLC5        0.0000 
     63 CA         33.4010   -3.4750   18.9190 C.3      12 GLL5        0.0000 
     64 CA         31.9860    0.4850   20.4440 C.3       8 GLP5        0.0000 
     65 CA         35.2200   -4.0690   18.1045 C.3       4 GLC5        0.0000 
     66 CA         37.0390   -4.6630   17.2900 C.3       8 GLP5        0.0000 
     67 CA         30.2395   -3.6215   21.8670 C.3       4 GLC5        0.0000 
     68 CA         31.3630   -3.2510   20.2030 C.3      12 GLL5        0.0000 
     69 CA         31.6770   -1.0040   19.1165 C.3       4 GLC5        0.0000 
     70 CA         31.3680   -2.4930   17.7890 C.3      12 GLL5        0.0000 
     71 CA         28.7338    3.1070   27.4935 C.3       4 GLC5        0.0000 
     72 CA         28.3090    4.9300   26.8270 C.3       8 GLP5        0.0000 
     73 CA         27.2730    1.1815   29.4982 C.3       4 GLC5        0.0000 
     74 CA         27.9180   -0.0290   27.6560 C.3      12 GLL5        0.0000 
     75 CA         26.3570    1.7710   31.1350 C.3       8 GLP5        0.0000 
     76 CA         31.7533   -3.8965   27.5282 C.3       4 GLC5        0.0000 
     77 CA         32.6480   -3.1980   25.8070 C.3      12 GLL5        0.0000 
     78 CA         32.5555   -5.0330   25.1258 C.3       4 GLC5        0.0000 
     79 CA         32.1430   -6.8220   25.0730 C.3       8 GLP5        0.0000 
     80 CA         31.0420   -3.6180   24.3547 C.3       4 GLC5        0.0000 
     81 CA         35.1910    3.0557   28.8833 C.3       4 GLC5        0.0000 
     82 CA         35.0090    0.8240   28.6360 C.3      12 GLL5        0.0000 
     83 CA         35.7440    4.7980   29.4860 C.3       8 GLP5        0.0000 
     84 CA         30.7840   -2.9407   23.5620 C.3       4 GLC5        0.0000 
     85 CA         30.9880    0.5655   24.1028 C.3       4 GLC5        0.0000 
     86 CA         30.3390    2.4810   23.8690 C.3       8 GLP5        0.0000 
     87 CA         34.6135   -1.8955   24.4316 C.3       4 GLC5        0.0000 
     88 CA         33.9513   -3.0040   26.5561 C.3       4 GLC5        0.0000 
     89 CA         30.3017   -2.8758   24.5182 C.3       4 GLC5        0.0000 
     90 CA         31.6570   -2.2140   26.0460 C.3      12 GLL5        0.0000 
     91 CA         34.7120   -1.7027   28.2135 C.3       4 GLC5        0.0000 
     92 CA         34.6940   -1.1578   30.4100 C.3       4 GLC5        0.0000 
     93 CA         34.3670   -0.3240   29.1540 C.3      12 GLL5        0.0000 
     94 CA         35.5540   -2.1890   31.8930 C.3       8 GLP5        0.0000 
     95 CA         26.3830    0.2605   25.6075 C.3       4 GLC5        0.0000 
     96 CA         26.1700    1.2740   23.9040 C.3       8 GLP5        0.0000 
     97 CA         33.7467   -5.8003   22.3410 C.3       4 GLC5        0.0000 
     98 CA         33.2780   -4.5520   21.0860 C.3      12 GLL5        0.0000 
     99 CA         33.7230   -7.5380   23.2590 C.3       8 GLP5        0.0000 
    100 CA         30.7815   -1.4287   20.1630 C.3       4 GLC5        0.0000 
    101 CA         30.6320    0.2910   20.7550 C.3       8 GLP5        0.0000 
    102 CA         31.8065   -2.3247   15.9080 C.3       4 GLC5        0.0000 
    103 CA         31.6020   -1.7410   14.1320 C.3       8 GLP5        0.0000 
    104 CA         29.4667   -3.1178   17.2210 C.3       4 GLC5        0.0000 
    105 CA         28.0000   -3.4660   16.0780 C.3       8 GLP5        0.0000 
@<TRIPOS>BOND
@<TRIPOS>SUBSTRUCTURE
     1 ALC1       38 GROUP        1 X    ALC  0     ROOT ALC X 1
     2 SEC2       35 GROUP        1 X    SEC  0     **** SEC X 2
     3 ASC3       56 GROUP        1 X    ASC  0     **** ASC X 3
     4 GLC5        1 GROUP        1 X    GLC  0     **** GLC X 6
     5 ALP1       40 GROUP        1 Y    ALP  0     ROOT ALP Y 8
     6 SEP2       37 GROUP        1 Y    SEP  0     **** SEP Y 9
     7 ASP3       58 GROUP        1 Y    ASP  0     **** ASP Y 10
     8 GLP5        3 GROUP        1 Y    GLP  0     **** GLP Y 13
     9 ALL1       39 GROUP        1 Z    ALL  0     ROOT ALL Z 15
    10 SEL2       36 GROUP        1 Z    SEL  0     **** SEL Z 16
    11 ASL3       57 GROUP        1 Z    ASL  0     **** ASL Z 17
    12 GLL5        2 GROUP        1 Z    GLL  0     **** GLL Z 20
@<TRIPOS>SET

