#    Name: 2ayr_L4G_1_ligand
#    Modification time : Mon Mar 24 19:43:10 2014

@<TRIPOS>MOLECULE
2ayr_L4G_1_ligand
   69    73     1     0     0
SMALL
NO_CHARGES


@<TRIPOS>ATOM
      1 C5         32.2070    0.4660   28.2400 C.ar      1 L4G201      0.0000 
      2 C6         29.8570    1.3550   28.2530 C.ar      1 L4G201      0.0000 
      3 C7         27.9180   -0.0290   27.6560 C.ar      1 L4G201      0.0000 
      4 C8         28.2180   -2.4130   27.0040 C.ar      1 L4G201      0.0000 
      5 C10        32.8720    1.6290   27.7200 C.ar      1 L4G201      0.0000 
      6 C13        26.5200   -0.1610   27.4720 C.ar      1 L4G201      0.0000 
      7 C15        32.6480   -3.1980   25.8070 C.ar      1 L4G201      0.0000 
      8 C17        34.2670    1.8030   27.9250 C.ar      1 L4G201      0.0000 
      9 C20        33.2880   -3.2900   24.5500 C.ar      1 L4G201      0.0000 
     10 C21        31.9560   -1.3950   23.7080 C.ar      1 L4G201      0.0000 
     11 C22        35.0090    0.8240   28.6360 C.ar      1 L4G201      0.0000 
     12 C24        32.9480   -2.3840   23.4780 C.ar      1 L4G201      0.0000 
     13 C1         30.2020   -1.0240   27.5980 C.ar      1 L4G201      0.0000 
     14 C2         30.7510    0.2590   28.0310 C.ar      1 L4G201      0.0000 
     15 C3         28.7900   -1.1620   27.4180 C.ar      1 L4G201      0.0000 
     16 O4         31.0320   -2.1570   27.3520 O.3       1 L4G201      0.0000 
     17 C9         31.6570   -2.2140   26.0460 C.ar      1 L4G201      0.0000 
     18 C11        32.9800   -0.5030   28.9590 C.ar      1 L4G201      0.0000 
     19 C12        28.4600    1.2130   28.0670 C.ar      1 L4G201      0.0000 
     20 C14        26.8220   -2.5290   26.8260 C.ar      1 L4G201      0.0000 
     21 C16        31.3180   -1.3050   24.9650 C.ar      1 L4G201      0.0000 
     22 C18        34.3670   -0.3240   29.1540 C.ar      1 L4G201      0.0000 
     23 C19        25.9730   -1.4110   27.0580 C.ar      1 L4G201      0.0000 
     24 O23        24.6510   -1.5330   26.8790 O.3       1 L4G201      0.0000 
     25 S25        36.7580    1.0300   28.9080 S.o2      1 L4G201      0.0000 
     26 O26        33.5370   -2.4060   22.1890 O.3       1 L4G201      0.0000 
     27 C27        38.0420   -0.2180   28.5040 C.3       1 L4G201      0.0000 
     28 O28        36.9320    1.3850   30.3880 O.2       1 L4G201      0.0000 
     29 O29        37.1800    2.3840   28.3060 O.2       1 L4G201      0.0000 
     30 C30        34.2630   -3.5730   21.7600 C.3       1 L4G201      0.0000 
     31 C31        33.2780   -4.5520   21.0860 C.3       1 L4G201      0.0000 
     32 N32        32.5200   -4.1440   19.9020 N.4       1 L4G201      0.0000 
     33 C33        33.4010   -3.4750   18.9190 C.3       1 L4G201      0.0000 
     34 C34        31.3630   -3.2510   20.2030 C.3       1 L4G201      0.0000 
     35 C35        32.6540   -3.3240   17.5790 C.3       1 L4G201      0.0000 
     36 C36        30.4990   -3.0460   18.9390 C.3       1 L4G201      0.0000 
     37 C37        31.3680   -2.4930   17.7890 C.3       1 L4G201      0.0000 
     38 H          30.2420    2.2578   28.5524 H         1 L4G201      0.0000 
     39 H          28.8290   -3.2106   26.8415 H         1 L4G201      0.0000 
     40 H          32.3374    2.3236   27.2060 H         1 L4G201      0.0000 
     41 H          25.9036    0.6319   27.6338 H         1 L4G201      0.0000 
     42 H          32.9030   -3.8507   26.5560 H         1 L4G201      0.0000 
     43 H          34.7349    2.6318   27.5609 H         1 L4G201      0.0000 
     44 H          34.0019   -4.0019   24.3845 H         1 L4G201      0.0000 
     45 H          31.7046   -0.7469   22.9591 H         1 L4G201      0.0000 
     46 H          32.5118   -1.3335   29.3329 H         1 L4G201      0.0000 
     47 H          27.8415    2.0093   28.2299 H         1 L4G201      0.0000 
     48 H          26.4150   -3.4178   26.5293 H         1 L4G201      0.0000 
     49 H          30.6030   -0.5937   25.1340 H         1 L4G201      0.0000 
     50 H          34.9055   -1.0216   29.6678 H         1 L4G201      0.0000 
     51 H          34.7249   -4.0938   22.5978 H         1 L4G201      0.0000 
     52 H          35.0336   -3.3257   21.0310 H         1 L4G201      0.0000 
     53 H          32.5614   -4.9026   21.8972 H         1 L4G201      0.0000 
     54 H          33.8659   -5.4987   20.8567 H         1 L4G201      0.0000 
     55 H          32.1164   -5.0528   19.4079 H         1 L4G201      0.0000 
     56 H          34.2995   -4.0616   18.7445 H         1 L4G201      0.0000 
     57 H          33.6832   -2.4841   19.2658 H         1 L4G201      0.0000 
     58 H          31.7126   -2.2764   20.5406 H         1 L4G201      0.0000 
     59 H          30.7365   -3.6889   20.9788 H         1 L4G201      0.0000 
     60 H          32.3870   -4.3026   17.2063 H         1 L4G201      0.0000 
     61 H          33.2920   -2.8169   16.8692 H         1 L4G201      0.0000 
     62 H          29.7088   -2.3409   19.1590 H         1 L4G201      0.0000 
     63 H          30.0751   -3.9953   18.6403 H         1 L4G201      0.0000 
     64 H          30.7854   -2.5022   16.8669 H         1 L4G201      0.0000 
     65 H          31.6448   -1.4627   18.0162 H         1 L4G201      0.0000 
     66 H          38.9589    0.1017   28.7429 H         1 L4G201      0.0000 
     67 H          37.8935   -1.0761   28.9955 H         1 L4G201      0.0000 
     68 H          38.0530   -0.4371   27.5284 H         1 L4G201      0.0000 
     69 H          24.5489   -1.9291   25.9665 H         1 L4G201      0.0000 
@<TRIPOS>BOND
     1    5    1 ar   
     2   14    1 1    
     3   18    1 ar   
     4   14    2 ar   
     5   19    2 ar   
     6   38    2 1    
     7    6    3 ar   
     8   15    3 ar   
     9   19    3 ar   
    10   15    4 ar   
    11   20    4 ar   
    12   39    4 1    
    13    8    5 ar   
    14   40    5 1    
    15   23    6 ar   
    16   41    6 1    
    17    9    7 ar   
    18   17    7 ar   
    19   42    7 1    
    20   11    8 ar   
    21   43    8 1    
    22   12    9 ar   
    23   44    9 1    
    24   12   10 ar   
    25   21   10 ar   
    26   45   10 1    
    27   22   11 ar   
    28   25   11 1    
    29   26   12 1    
    30   14   13 ar   
    31   15   13 ar   
    32   16   13 1    
    33   17   16 1    
    34   21   17 ar   
    35   22   18 ar   
    36   46   18 1    
    37   47   19 1    
    38   23   20 ar   
    39   48   20 1    
    40   49   21 1    
    41   50   22 1    
    42   24   23 1    
    43   69   24 1    
    44   27   25 1    
    45   28   25 2    
    46   29   25 2    
    47   30   26 1    
    48   66   27 1    
    49   67   27 1    
    50   68   27 1    
    51   31   30 1    
    52   51   30 1    
    53   52   30 1    
    54   32   31 1    
    55   53   31 1    
    56   54   31 1    
    57   33   32 1    
    58   34   32 1    
    59   55   32 1    
    60   35   33 1    
    61   56   33 1    
    62   57   33 1    
    63   36   34 1    
    64   58   34 1    
    65   59   34 1    
    66   37   35 1    
    67   60   35 1    
    68   61   35 1    
    69   37   36 1    
    70   62   36 1    
    71   63   36 1    
    72   64   37 1    
    73   65   37 1    
@<TRIPOS>SUBSTRUCTURE
     1 L4G201      1 GROUP   
@<TRIPOS>SET

