#    Name: 3zg6_APR_1_INTS_M
#    Modification time : Tue Mar 25 02:52:19 2014

@<TRIPOS>MOLECULE
3zg6_APR_1_INTS_M
  107     0    12     0     0
SMALL
NO_CHARGES


@<TRIPOS>ATOM
      1 N          25.8485  -19.5595   25.8800 N.am      2 SEC2        0.0000 
      2 N          26.9850  -20.3600   26.3880 N.am     10 SEL2        0.0000 
      3 N          24.7120  -18.7590   25.3720 N.am      6 SEP2        0.0000 
      4 CA         29.6650  -18.9445   24.4760 C.3       4 GLC5        0.0000 
      5 CA         28.0440  -19.8600   25.6660 C.3      12 GLL5        0.0000 
      6 CA         31.2860  -18.0290   23.2860 C.3       8 GLP5        0.0000 
      7 CA         28.9545  -18.9250   26.9905 C.3       4 GLC5        0.0000 
      8 CA         29.8650  -17.9900   28.3150 C.3       8 GLP5        0.0000 
      9 CA         26.6525  -18.7280   26.5610 C.3       4 GLC5        0.0000 
     10 CA         25.2610  -17.5960   27.4560 C.3       8 GLP5        0.0000 
     11 CA         26.8395  -19.9260   24.1305 C.3       4 GLC5        0.0000 
     12 CA         25.6350  -19.9920   22.5950 C.3       8 GLP5        0.0000 
     13 N          30.3815  -19.2785   25.7040 N.am      2 SEC2        0.0000 
     14 N          29.2140  -20.5210   25.6830 N.am     10 SEL2        0.0000 
     15 N          31.5490  -18.0360   25.7250 N.am      6 SEP2        0.0000 
     16 CA         26.1290  -19.5140   27.2945 C.3       4 GLC5        0.0000 
     17 CA         26.9970  -21.4320   27.1330 C.3      12 GLL5        0.0000 
     18 CA         25.6560  -21.4360   25.6325 C.3       4 GLC5        0.0000 
     19 CA         24.3150  -21.4400   24.1320 C.3       8 GLP5        0.0000 
     20 O          26.2665  -23.4965   28.0920 O.2       1 ALC1        0.0000 
     21 O          25.8980  -21.8600   27.8310 O.2       9 ALL1        0.0000 
     22 O          26.6350  -25.1330   28.3530 O.2       5 ALP1        0.0000 
     23 N          27.6360  -24.2300   28.0415 N.am      2 SEC2        0.0000 
     24 N          28.6370  -23.3270   27.7300 N.am     10 SEL2        0.0000 
     25 N          26.6350  -25.1330   28.3530 N.am      6 SEP2        0.0000 
     26 CA         30.1480  -23.8370   25.2355 C.3       4 GLC5        0.0000 
     27 CA         31.6240  -22.4800   25.9130 C.3      12 GLL5        0.0000 
     28 CA         28.6720  -25.1940   24.5580 C.3       8 GLP5        0.0000 
     29 CA         33.9790  -24.1340   28.1870 C.3       4 GLC5        0.0000 
     30 CA         32.8040  -22.9990   26.7120 C.3      12 GLL5        0.0000 
     31 CA         35.1540  -25.2690   29.6620 C.3       8 GLP5        0.0000 
     32 CA         34.5180  -21.7820   27.4065 C.3       4 GLC5        0.0000 
     33 CA         36.2320  -20.5650   28.1010 C.3       8 GLP5        0.0000 
     34 N          33.7730  -20.1465   26.9885 N.am      2 SEC2        0.0000 
     35 N          33.3270  -21.7390   27.2190 N.am     10 SEL2        0.0000 
     36 N          34.2190  -18.5540   26.7580 N.am      6 SEP2        0.0000 
     37 O          34.9720  -22.2325   27.1270 O.2       1 ALC1        0.0000 
     38 O          33.3270  -21.7390   27.2190 O.2       9 ALL1        0.0000 
     39 O          36.6170  -22.7260   27.0350 O.2       5 ALP1        0.0000 
     40 N          34.4075  -21.4410   24.4200 N.am      2 SEC2        0.0000 
     41 N          34.7050  -22.7150   25.1500 N.am     10 SEL2        0.0000 
     42 N          34.1100  -20.1670   23.6900 N.am      6 SEP2        0.0000 
     43 O          35.6610  -22.7205   26.0925 O.2       1 ALC1        0.0000 
     44 O          34.7050  -22.7150   25.1500 O.2       9 ALL1        0.0000 
     45 CA         31.1245  -23.2750   23.1660 C.3       4 GLC5        0.0000 
     46 CA         32.8290  -23.8570   24.3800 C.3      12 GLL5        0.0000 
     47 CA         29.4200  -22.6930   21.9520 C.3       8 GLP5        0.0000 
     48 CA         32.2505  -26.6280   25.5430 C.3       4 GLC5        0.0000 
     49 CA         32.9190  -25.3570   24.0630 C.3      12 GLL5        0.0000 
     50 CA         31.5820  -27.8990   27.0230 C.3       8 GLP5        0.0000 
     51 N          34.6190  -24.6245   22.2650 N.am      2 SEC2        0.0000 
     52 N          34.2330  -25.6010   23.5380 N.am     10 SEL2        0.0000 
     53 N          35.0050  -23.6480   20.9920 N.am      6 SEP2        0.0000 
     54 N          34.1460  -28.7290   25.8290 N.am      2 SEC2        0.0000 
     55 N          34.5150  -27.6470   24.9870 N.am     10 SEL2        0.0000 
     56 N          33.7770  -29.8110   26.6710 N.am      6 SEP2        0.0000 
     57 N          35.3490  -27.9890   26.0570 N.am      2 SEC2        0.0000 
     58 N          36.1830  -28.3310   27.1270 N.am      6 SEP2        0.0000 
     59 NZ         36.9560  -28.0145   22.7020 N.4       3 LYC4        0.0000 
     60 NZ         36.2390  -26.8940   23.1290 N.4      11 LYL4        0.0000 
     61 NZ         38.9240  -29.6530   22.5040 N.4       7 LYP4        0.0000 
     62 N          36.9560  -28.0145   22.7020 N.am      2 SEC2        0.0000 
     63 N          36.2390  -26.8940   23.1290 N.am     10 SEL2        0.0000 
     64 N          37.6730  -29.1350   22.2750 N.am      6 SEP2        0.0000 
     65 N          36.8625  -25.8110   22.6480 N.am      2 SEC2        0.0000 
     66 N          37.4860  -24.7280   22.1670 N.am      6 SEP2        0.0000 
     67 N          34.2365  -25.8065   19.4560 N.am      2 SEC2        0.0000 
     68 N          34.5280  -26.6230   20.5320 N.am     10 SEL2        0.0000 
     69 N          33.9450  -24.9900   18.3800 N.am      6 SEP2        0.0000 
     70 N          34.7665  -25.1355   20.7620 N.am      2 SEC2        0.0000 
     71 N          31.2925  -28.0615   21.1930 N.am      2 SEC2        0.0000 
     72 N          32.5950  -28.3090   20.5980 N.am     10 SEL2        0.0000 
     73 N          29.9900  -27.8140   21.7880 N.am      6 SEP2        0.0000 
     74 N          36.3180  -29.0995   21.5905 N.am      2 SEC2        0.0000 
     75 N          34.9630  -29.0640   20.9060 N.am     10 SEL2        0.0000 
     76 N          37.1705  -30.1605   21.4770 N.am      2 SEC2        0.0000 
     77 N          36.6680  -31.1860   20.6790 N.am     10 SEL2        0.0000 
     78 N          37.9950  -30.9925   21.3280 N.am      2 SEC2        0.0000 
     79 N          39.3220  -30.7990   21.9770 N.am      6 SEP2        0.0000 
     80 N          38.3935  -32.0460   21.8405 N.am      2 SEC2        0.0000 
     81 N          37.4650  -33.2930   21.7040 N.am     10 SEL2        0.0000 
     82 N          37.9690  -33.2820   22.9520 N.am      2 SEC2        0.0000 
     83 N          38.4730  -33.2710   24.2000 N.am      6 SEP2        0.0000 
     84 CA         35.6165  -32.2385   22.7635 C.3       4 GLC5        0.0000 
     85 CA         36.5830  -32.5720   20.9140 C.3      12 GLL5        0.0000 
     86 CA         34.6500  -31.9050   24.6130 C.3       8 GLP5        0.0000 
     87 CA         37.8050  -31.3685   19.6535 C.3       4 GLC5        0.0000 
     88 CA         39.0270  -30.1650   18.3930 C.3       8 GLP5        0.0000 
     89 CA         35.4310  -35.2150   21.0815 C.3       4 GLC5        0.0000 
     90 CA         35.1910  -33.0890   20.6930 C.3      12 GLL5        0.0000 
     91 CA         35.6710  -37.3410   21.4700 C.3       8 GLP5        0.0000 
     92 N          33.7435  -32.5015   17.7505 N.am      2 SEC2        0.0000 
     93 N          33.5370  -32.1130   19.1420 N.am     10 SEL2        0.0000 
     94 N          33.9500  -32.8900   16.3590 N.am      6 SEP2        0.0000 
     95 CA         28.7333  -23.5685   25.6600 C.3       4 GLC5        0.0000 
     96 CA         29.3440  -21.6910   26.3790 C.3      12 GLL5        0.0000 
     97 CA         28.5369  -20.3287   28.1142 C.3       4 GLC5        0.0000 
     98 CA         28.2450  -22.1950   27.1450 C.3      12 GLL5        0.0000 
     99 CA         29.1780  -18.9700   29.2810 C.3       8 GLP5        0.0000 
    100 CA         30.7730  -24.9005   24.3897 C.3       4 GLC5        0.0000 
    101 CA         32.7835  -24.2610   22.2533 C.3       4 GLC5        0.0000 
    102 CA         32.6930  -23.9150   20.2850 C.3       8 GLP5        0.0000 
    103 CA         37.2580  -30.1940   19.0078 C.3       4 GLC5        0.0000 
    104 CA         35.3370  -29.4870   19.5800 C.3      12 GLL5        0.0000 
    105 CA         33.7732  -32.5355   21.8438 C.3       4 GLC5        0.0000 
    106 CA         34.4880  -31.8450   20.1620 C.3      12 GLL5        0.0000 
    107 CA         32.7070  -32.6040   23.2600 C.3       8 GLP5        0.0000 
@<TRIPOS>BOND
@<TRIPOS>SUBSTRUCTURE
     1 ALC1       20 GROUP        1 X    ALC  0     ROOT ALC X 1
     2 SEC2        1 GROUP        1 X    SEC  0     **** SEC X 2
     3 LYC4       59 GROUP        1 X    LYC  0     **** LYC X 4
     4 GLC5        4 GROUP        1 X    GLC  0     **** GLC X 6
     5 ALP1       22 GROUP        1 Y    ALP  0     ROOT ALP Y 8
     6 SEP2        3 GROUP        1 Y    SEP  0     **** SEP Y 9
     7 LYP4       61 GROUP        1 Y    LYP  0     **** LYP Y 11
     8 GLP5        6 GROUP        1 Y    GLP  0     **** GLP Y 13
     9 ALL1       21 GROUP        1 Z    ALL  0     ROOT ALL Z 15
    10 SEL2        2 GROUP        1 Z    SEL  0     **** SEL Z 16
    11 LYL4       60 GROUP        1 Z    LYL  0     **** LYL Z 18
    12 GLL5        5 GROUP        1 Z    GLL  0     **** GLL Z 20
@<TRIPOS>SET

