#    Name: 3zg6_APR_1_ligand
#    Modification time : Tue Mar 25 02:52:19 2014

@<TRIPOS>MOLECULE
3zg6_APR_1_ligand
   57    60     1     0     0
SMALL
NO_CHARGES


@<TRIPOS>ATOM
      1 N1         26.9850  -20.3600   26.3880 N.ar      1 APR1296     0.0000 
      2 C2         28.0440  -19.8600   25.6660 C.ar      1 APR1296     0.0000 
      3 N3         29.2140  -20.5210   25.6830 N.ar      1 APR1296     0.0000 
      4 C4         29.3440  -21.6910   26.3790 C.ar      1 APR1296     0.0000 
      5 C5         28.2450  -22.1950   27.1450 C.ar      1 APR1296     0.0000 
      6 C6         26.9970  -21.4320   27.1330 C.ar      1 APR1296     0.0000 
      7 N6         25.8980  -21.8600   27.8310 N.pl3     1 APR1296     0.0000 
      8 N7         28.6370  -23.3270   27.7300 N.2       1 APR1296     0.0000 
      9 C8         29.9360  -23.5540   27.4130 C.2       1 APR1296     0.0000 
     10 N9         30.3110  -22.5350   26.5980 N.pl3     1 APR1296     0.0000 
     11 C1'        31.6240  -22.4800   25.9130 C.3       1 APR1296     0.0000 
     12 C2'        32.8040  -22.9990   26.7120 C.3       1 APR1296     0.0000 
     13 O2'        33.3270  -21.7390   27.2190 O.3       1 APR1296     0.0000 
     14 C3'        33.7040  -23.6330   25.6250 C.3       1 APR1296     0.0000 
     15 O3'        34.7050  -22.7150   25.1500 O.3       1 APR1296     0.0000 
     16 O4'        31.5120  -23.4400   24.8230 O.3       1 APR1296     0.0000 
     17 C4'        32.8290  -23.8570   24.3800 C.3       1 APR1296     0.0000 
     18 C5'        32.9190  -25.3570   24.0630 C.3       1 APR1296     0.0000 
     19 O5'        34.2330  -25.6010   23.5380 O.3       1 APR1296     0.0000 
     20 PA         34.8450  -27.0110   23.6650 P.3       1 APR1296     0.0000 
     21 O1A        34.5150  -27.6470   24.9870 O.co2     1 APR1296     0.0000 
     22 O2A        36.2390  -26.8940   23.1290 O.co2     1 APR1296     0.0000 
     23 O3A        33.8850  -27.9090   22.7190 O.3       1 APR1296     0.0000 
     24 PB         33.9500  -27.8560   21.1090 P.3       1 APR1296     0.0000 
     25 O1B        34.5280  -26.6230   20.5320 O.co2     1 APR1296     0.0000 
     26 O2B        32.5950  -28.3090   20.5980 O.co2     1 APR1296     0.0000 
     27 O5D        34.9630  -29.0640   20.9060 O.3       1 APR1296     0.0000 
     28 C5D        35.3370  -29.4870   19.5800 C.3       1 APR1296     0.0000 
     29 O4D        36.6680  -31.1860   20.6790 O.3       1 APR1296     0.0000 
     30 O1D        37.4650  -33.2930   21.7040 O.3       1 APR1296     0.0000 
     31 C1D        36.5830  -32.5720   20.9140 C.3       1 APR1296     0.0000 
     32 O2D        35.4990  -33.8480   19.4860 O.3       1 APR1296     0.0000 
     33 C2D        35.1910  -33.0890   20.6930 C.3       1 APR1296     0.0000 
     34 O3D        33.5370  -32.1130   19.1420 O.3       1 APR1296     0.0000 
     35 C3D        34.4880  -31.8450   20.1620 C.3       1 APR1296     0.0000 
     36 C4D        35.6410  -30.9590   19.6650 C.3       1 APR1296     0.0000 
     37 H          27.9269  -18.9897   25.1244 H         1 APR1296     0.0000 
     38 H          25.0650  -21.3190   27.7151 H         1 APR1296     0.0000 
     39 H          26.0253  -22.6758   28.3951 H         1 APR1296     0.0000 
     40 H          30.4752  -24.2791   27.7023 H         1 APR1296     0.0000 
     41 H          31.8306  -21.5283   25.5240 H         1 APR1296     0.0000 
     42 H          32.4975  -23.6536   27.4026 H         1 APR1296     0.0000 
     43 H          34.0853  -24.5423   25.9367 H         1 APR1296     0.0000 
     44 H          33.2078  -23.2825   23.6042 H         1 APR1296     0.0000 
     45 H          32.1441  -25.5929   23.3429 H         1 APR1296     0.0000 
     46 H          32.7413  -25.9034   24.9820 H         1 APR1296     0.0000 
     47 H          36.2230  -28.9666   19.2333 H         1 APR1296     0.0000 
     48 H          34.5280  -29.3374   18.8736 H         1 APR1296     0.0000 
     49 H          37.0199  -32.9560   19.7248 H         1 APR1296     0.0000 
     50 H          34.8006  -33.5311   21.4107 H         1 APR1296     0.0000 
     51 H          34.0577  -31.3332   21.0175 H         1 APR1296     0.0000 
     52 H          35.9815  -31.3422   18.7301 H         1 APR1296     0.0000 
     53 H          34.1819  -21.5944   26.7206 H         1 APR1296     0.0000 
     54 H          35.5453  -22.9816   25.6221 H         1 APR1296     0.0000 
     55 H          36.8847  -33.8625   22.2861 H         1 APR1296     0.0000 
     56 H          35.0907  -33.3231   18.7392 H         1 APR1296     0.0000 
     57 H          33.0926  -32.9646   19.4199 H         1 APR1296     0.0000 
@<TRIPOS>BOND
     1    2    1 ar   
     2    6    1 ar   
     3    3    2 ar   
     4   37    2 1    
     5    4    3 ar   
     6    5    4 ar   
     7   10    4 1    
     8    6    5 ar   
     9    8    5 1    
    10    7    6 1    
    11   38    7 1    
    12   39    7 1    
    13    9    8 2    
    14   10    9 1    
    15   40    9 1    
    16   11   10 1    
    17   12   11 1    
    18   16   11 1    
    19   41   11 1    
    20   13   12 1    
    21   14   12 1    
    22   42   12 1    
    23   53   13 1    
    24   15   14 1    
    25   17   14 1    
    26   43   14 1    
    27   54   15 1    
    28   17   16 1    
    29   18   17 1    
    30   44   17 1    
    31   19   18 1    
    32   45   18 1    
    33   46   18 1    
    34   20   19 1    
    35   21   20 ar   
    36   22   20 ar   
    37   23   20 1    
    38   24   23 1    
    39   25   24 ar   
    40   26   24 ar   
    41   27   24 1    
    42   28   27 1    
    43   36   28 1    
    44   47   28 1    
    45   48   28 1    
    46   31   29 1    
    47   36   29 1    
    48   31   30 1    
    49   55   30 1    
    50   33   31 1    
    51   49   31 1    
    52   33   32 1    
    53   56   32 1    
    54   35   33 1    
    55   50   33 1    
    56   35   34 1    
    57   57   34 1    
    58   36   35 1    
    59   51   35 1    
    60   52   36 1    
@<TRIPOS>SUBSTRUCTURE
     1 APR1296     1 GROUP   
@<TRIPOS>SET

