#    Name: 2jh0_701_1_INTS_M
#    Modification time : Tue Mar 25 20:45:48 2014

@<TRIPOS>MOLECULE
2jh0_701_1_INTS_M
   67     0     6     0     0
SMALL
NO_CHARGES


@<TRIPOS>ATOM
      1 CA          9.0250   25.5665   44.3290 C.3       2 GLC5        0.0000 
      2 CA         10.2540   25.4630   46.1290 C.3       6 GLL5        0.0000 
      3 CA          7.7960   25.6700   42.5290 C.3       4 GLP5        0.0000 
      4 CA         11.0540   26.8775   45.3730 C.3       2 GLC5        0.0000 
      5 CA         11.8540   28.2920   44.6170 C.3       4 GLP5        0.0000 
      6 CA         11.3185   23.4400   44.7930 C.3       2 GLC5        0.0000 
      7 CA         11.4820   22.9090   46.5700 C.3       6 GLL5        0.0000 
      8 CA         11.1550   23.9710   43.0160 C.3       4 GLP5        0.0000 
      9 CA         10.2960   21.2135   52.4080 C.3       2 GLC5        0.0000 
     10 CA          9.3690   21.5090   50.7740 C.3       6 GLL5        0.0000 
     11 CA         11.2230   20.9180   54.0420 C.3       4 GLP5        0.0000 
     12 N          10.3900   16.7240   47.8840 N.am      1 SEC2        0.0000 
     13 N          10.2150   17.2610   49.4240 N.am      5 SEL2        0.0000 
     14 N          10.5650   16.1870   46.3440 N.am      3 SEP2        0.0000 
     15 N           7.2635   20.6655   47.4710 N.am      1 SEC2        0.0000 
     16 N           6.7690   20.2030   48.8590 N.am      5 SEL2        0.0000 
     17 N           7.7580   21.1280   46.0830 N.am      3 SEP2        0.0000 
     18 CA          2.7790   20.9195   48.1105 C.3       2 GLC5        0.0000 
     19 CA          4.1070   19.2320   48.3000 C.3       6 GLL5        0.0000 
     20 CA          1.4510   22.6070   47.9210 C.3       4 GLP5        0.0000 
     21 CA          3.7015   18.6430   52.1850 C.3       2 GLC5        0.0000 
     22 CA          3.9190   20.0720   51.0600 C.3       6 GLL5        0.0000 
     23 CA          3.4840   17.2140   53.3100 C.3       4 GLP5        0.0000 
     24 CA          3.2350   22.8240   52.2340 C.3       2 GLC5        0.0000 
     25 CA          3.4790   21.4240   51.5780 C.3       6 GLL5        0.0000 
     26 CA          2.9910   24.2240   52.8900 C.3       4 GLP5        0.0000 
     27 CA          3.3390   19.7320   52.9945 C.3       2 GLC5        0.0000 
     28 CA          3.1990   18.0400   54.4110 C.3       4 GLP5        0.0000 
     29 CA          2.4650   22.0155   49.7495 C.3       2 GLC5        0.0000 
     30 CA          0.8760   22.6820   51.7895 C.3       2 GLC5        0.0000 
     31 CA          1.2070   20.8470   51.4970 C.3       6 GLL5        0.0000 
     32 CA          0.5450   24.5170   52.0820 C.3       4 GLP5        0.0000 
     33 CA         -0.5625   20.8240   51.7985 C.3       2 GLC5        0.0000 
     34 CA         -2.3320   20.8010   52.1000 C.3       4 GLP5        0.0000 
     35 CA          0.1360   18.8470   51.7695 C.3       2 GLC5        0.0000 
     36 CA          1.5270   19.4270   51.0740 C.3       6 GLL5        0.0000 
     37 CA         -1.2550   18.2670   52.4650 C.3       4 GLP5        0.0000 
     38 CA          2.5055   18.3205   52.1920 C.3       2 GLC5        0.0000 
     39 CA         11.4360   24.5160   48.5805 C.3       2 GLC5        0.0000 
     40 CA          9.5570   23.4980   48.3110 C.3       6 GLL5        0.0000 
     41 CA         13.3150   25.5340   48.8500 C.3       4 GLP5        0.0000 
     42 CA          9.7515   25.2340   48.8245 C.3       2 GLC5        0.0000 
     43 CA          9.9460   26.9700   49.3380 C.3       4 GLP5        0.0000 
     44 CA         11.8582   25.1000   47.6887 C.3       2 GLC5        0.0000 
     45 CA         10.5490   23.8690   46.9260 C.3       6 GLL5        0.0000 
     46 CA         10.1737   25.8180   47.9327 C.3       2 GLC5        0.0000 
     47 CA         10.7782   24.3185   44.7717 C.3       2 GLC5        0.0000 
     48 CA          8.1785   23.3057   47.1497 C.3       2 GLC5        0.0000 
     49 CA          6.3040   22.9280   46.6810 C.3       4 GLP5        0.0000 
     50 CA         12.3742   23.9445   47.9267 C.3       2 GLC5        0.0000 
     51 CA         12.2182   21.8397   49.5335 C.3       2 GLC5        0.0000 
     52 CA         11.3850   21.8010   47.4370 C.3       6 GLL5        0.0000 
     53 CA         13.5360   21.8140   51.1270 C.3       4 GLP5        0.0000 
     54 CA          9.4198   20.3670   47.3330 C.3       2 GLC5        0.0000 
     55 CA          9.9940   20.9760   49.5190 C.3       6 GLL5        0.0000 
     56 CA          8.7390   20.4170   45.2720 C.3       4 GLP5        0.0000 
     57 CA         11.9183   19.5265   49.5935 C.3       2 GLC5        0.0000 
     58 CA         10.2070   19.6580   49.2690 C.3       6 GLL5        0.0000 
     59 CA         13.7360   18.7360   49.7930 C.3       4 GLP5        0.0000 
     60 CA          4.5875   17.0998   51.4960 C.3       2 GLC5        0.0000 
     61 CA          6.3840   16.8320   49.9840 C.3       6 GLL5        0.0000 
     62 CA          4.4858   20.6668   46.9348 C.3       2 GLC5        0.0000 
     63 CA          4.9370   22.3130   46.3020 C.3       4 GLP5        0.0000 
     64 CA          1.4090   21.3720   49.6033 C.3       2 GLC5        0.0000 
     65 CA         11.7401   21.1321   50.4174 C.3       2 GLC5        0.0000 
     66 CA          9.4983   21.7398   46.5498 C.3       2 GLC5        0.0000 
     67 CA         10.4160   21.9300   48.4430 C.3       6 GLL5        0.0000 
@<TRIPOS>BOND
@<TRIPOS>SUBSTRUCTURE
     1 SEC2       12 GROUP        1 X    SEC  0     ROOT SEC X 2
     2 GLC5        1 GROUP        1 X    GLC  0     **** GLC X 6
     3 SEP2       14 GROUP        1 Y    SEP  0     ROOT SEP Y 9
     4 GLP5        3 GROUP        1 Y    GLP  0     **** GLP Y 13
     5 SEL2       13 GROUP        1 Z    SEL  0     ROOT SEL Z 16
     6 GLL5        2 GROUP        1 Z    GLL  0     **** GLL Z 20
@<TRIPOS>SET

