#    Name: 2jh0_701_1_ligand
#    Modification time : Tue Mar 25 20:45:48 2014

@<TRIPOS>MOLECULE
2jh0_701_1_ligand
   53    55     1     0     0
SMALL
NO_CHARGES


@<TRIPOS>ATOM
      1 CL1        10.2540   25.4630   46.1290 Cl        1 7011247     0.0000 
      2 C1         10.5490   23.8690   46.9260 C.2       1 7011247     0.0000 
      3 C2         11.4820   22.9090   46.5700 C.2       1 7011247     0.0000 
      4 C3         11.3850   21.8010   47.4370 C.2       1 7011247     0.0000 
      5 C4         10.4160   21.9300   48.4430 C.2       1 7011247     0.0000 
      6 C9          9.9940   20.9760   49.5190 C.2       1 7011247     0.0000 
      7 C8          9.3690   21.5090   50.7740 C.3       1 7011247     0.0000 
      8 S1          9.8380   18.4170   50.2030 S.o2      1 7011247     0.0000 
      9 O2         10.5700   18.4440   51.4290 O.2       1 7011247     0.0000 
     10 O1         10.2150   17.2610   49.4240 O.2       1 7011247     0.0000 
     11 N1          8.2880   18.3710   50.5490 N.pl3     1 7011247     0.0000 
     12 C12         7.3440   17.9470   49.5250 C.3       1 7011247     0.0000 
     13 C13         6.3840   16.8320   49.9840 C.3       1 7011247     0.0000 
     14 C14         4.9980   17.1390   49.3800 C.3       1 7011247     0.0000 
     15 C15         6.4270   19.0410   49.0630 C.2       1 7011247     0.0000 
     16 O3          6.7690   20.2030   48.8590 O.2       1 7011247     0.0000 
     17 N2          5.2180   18.5160   48.9150 N.am      1 7011247     0.0000 
     18 C16         4.1070   19.2320   48.3000 C.3       1 7011247     0.0000 
     19 C17         3.9620   18.8090   46.8350 C.3       1 7011247     0.0000 
     20 C18         2.8260   19.0720   49.0630 C.2       1 7011247     0.0000 
     21 O4          1.8930   18.4910   48.5290 O.2       1 7011247     0.0000 
     22 N3          2.7710   19.5210   50.3220 N.am      1 7011247     0.0000 
     23 C19         3.9190   20.0720   51.0600 C.3       1 7011247     0.0000 
     24 C20         3.4790   21.4240   51.5780 C.3       1 7011247     0.0000 
     25 O5          2.2790   21.2540   52.3390 O.3       1 7011247     0.0000 
     26 C22         1.2070   20.8470   51.4970 C.3       1 7011247     0.0000 
     27 C23         1.5270   19.4270   51.0740 C.3       1 7011247     0.0000 
     28 S6          9.5570   23.4980   48.3110 S.3       1 7011247     0.0000 
     29 C6         10.2070   19.6580   49.2690 C.2       1 7011247     0.0000 
     30 H          12.1049   22.9746   45.8469 H         1 7011247     0.0000 
     31 H          11.9538   21.0023   47.3407 H         1 7011247     0.0000 
     32 H           8.0295   18.6358   51.4564 H         1 7011247     0.0000 
     33 H           7.8577   17.5605   48.6415 H         1 7011247     0.0000 
     34 H           6.3156   16.8374   51.0531 H         1 7011247     0.0000 
     35 H           6.7315   15.8877   49.6161 H         1 7011247     0.0000 
     36 H           4.2789   17.0972   50.1467 H         1 7011247     0.0000 
     37 H           4.8258   16.4801   48.5782 H         1 7011247     0.0000 
     38 H           4.3565   20.3159   48.2833 H         1 7011247     0.0000 
     39 H           4.7671   20.2024   50.4077 H         1 7011247     0.0000 
     40 H           4.1769   19.4406   51.8947 H         1 7011247     0.0000 
     41 H           3.3220   22.0844   50.7217 H         1 7011247     0.0000 
     42 H           4.2866   21.8367   52.1874 H         1 7011247     0.0000 
     43 H           1.1329   21.4586   50.6067 H         1 7011247     0.0000 
     44 H           0.2584   20.8409   52.0187 H         1 7011247     0.0000 
     45 H           1.6467   18.8197   51.9540 H         1 7011247     0.0000 
     46 H           0.7251   19.0573   50.4593 H         1 7011247     0.0000 
     47 H          10.6671   19.3256   48.3716 H         1 7011247     0.0000 
     48 H           9.9817   22.1341   51.2575 H         1 7011247     0.0000 
     49 H           8.5263   22.0129   50.5842 H         1 7011247     0.0000 
     50 H           9.1347   20.7759   51.4125 H         1 7011247     0.0000 
     51 H           4.7883   19.0069   46.3078 H         1 7011247     0.0000 
     52 H           3.7862   17.8285   46.7472 H         1 7011247     0.0000 
     53 H           3.2060   19.2839   46.3844 H         1 7011247     0.0000 
@<TRIPOS>BOND
     1    2    1 1    
     2    3    2 2    
     3   28    2 1    
     4    4    3 1    
     5   30    3 1    
     6    5    4 2    
     7   31    4 1    
     8    6    5 1    
     9   28    5 1    
    10    7    6 1    
    11   29    6 2    
    12   48    7 1    
    13   49    7 1    
    14   50    7 1    
    15    9    8 2    
    16   10    8 2    
    17   11    8 1    
    18   29    8 1    
    19   12   11 1    
    20   32   11 1    
    21   13   12 1    
    22   15   12 1    
    23   33   12 1    
    24   14   13 1    
    25   34   13 1    
    26   35   13 1    
    27   17   14 1    
    28   36   14 1    
    29   37   14 1    
    30   16   15 2    
    31   17   15 am   
    32   18   17 1    
    33   19   18 1    
    34   20   18 1    
    35   38   18 1    
    36   51   19 1    
    37   52   19 1    
    38   53   19 1    
    39   21   20 2    
    40   22   20 am   
    41   23   22 1    
    42   27   22 1    
    43   24   23 1    
    44   39   23 1    
    45   40   23 1    
    46   25   24 1    
    47   41   24 1    
    48   42   24 1    
    49   26   25 1    
    50   27   26 1    
    51   43   26 1    
    52   44   26 1    
    53   45   27 1    
    54   46   27 1    
    55   47   29 1    
@<TRIPOS>SUBSTRUCTURE
     1 7011247     1 GROUP   
@<TRIPOS>SET

