#    Name: 3G6M_2_CAVITY_N1_6.mol2
#    Modification time : Mon Mar 10 18:29:00 2014

@<TRIPOS>MOLECULE
3G6M_2_CAVITY_N1_6.mol2
  159     0     6     0     0
SMALL
NO_CHARGES


@<TRIPOS>ATOM
      1 O          12.2841   -3.5758   -4.7846 O.2       2 ALA2        0.0000 
      2 DU         11.2477   -5.2492   -3.9937 H         6 CUB7        0.0000 
      3 O          10.8698   -4.0721   -4.8432 O.2       2 ALA2        0.0000 
      4 CZ          9.8334   -5.7455   -4.0523 C.ar      4 PHE5        0.0000 
      5 CZ          9.4556   -4.5685   -4.9019 C.ar      4 PHE5        0.0000 
      6 CZ         13.3713   -2.2932   -3.4911 C.ar      4 PHE5        0.0000 
      7 CZ         12.9934   -1.1162   -4.3407 C.ar      4 PHE5        0.0000 
      8 N          12.7127   -5.1437   -1.8506 N.2       2 ALA2        0.0000 
      9 DU         12.3349   -3.9666   -2.7002 H         6 CUB7        0.0000 
     10 CZ         11.9570   -2.7895   -3.5498 C.ar      4 PHE5        0.0000 
     11 N          11.2984   -5.6400   -1.9093 N.2       2 ALA2        0.0000 
     12 DU         10.9206   -4.4629   -2.7588 H         6 CUB7        0.0000 
     13 O          10.5427   -3.2859   -3.6084 O.2       2 ALA2        0.0000 
     14 CZ          9.5063   -4.9593   -2.8175 C.ar      4 PHE5        0.0000 
     15 CZ          9.1284   -3.7822   -3.6670 C.ar      4 PHE5        0.0000 
     16 O          15.7756    4.6903   -5.4787 O.2       2 ALA2        0.0000 
     17 O          14.7392    3.0169   -4.6877 O.2       2 ALA2        0.0000 
     18 CZ         14.0806    0.1664   -3.0472 C.ar      4 PHE5        0.0000 
     19 CZ         13.7027    1.3435   -3.8968 C.ar      4 PHE5        0.0000 
     20 CZ         13.7999   -3.8611   -0.5572 C.ar      4 PHE5        0.0000 
     21 CZ         13.4220   -2.6840   -1.4067 C.ar      4 PHE5        0.0000 
     22 CZ         13.0442   -1.5070   -2.2563 C.ar      4 PHE5        0.0000 
     23 CZ         12.6663   -0.3299   -3.1059 C.ar      4 PHE5        0.0000 
     24 N          12.3856   -4.3574   -0.6158 N.2       2 ALA2        0.0000 
     25 DU         12.0078   -3.1804   -1.4654 H         6 CUB7        0.0000 
     26 N          11.6299   -2.0033   -2.3149 N.2       2 ALA2        0.0000 
     27 N          11.2520   -0.8262   -3.1645 N.2       2 ALA2        0.0000 
     28 CA         10.9713   -4.8538   -0.6744 C.3       5 GLY6        0.0000 
     29 DU         10.5935   -3.6767   -1.5240 H         6 CUB7        0.0000 
     30 N          10.2156   -2.4996   -2.3736 N.2       2 ALA2        0.0000 
     31 CZ          9.5570   -5.3501   -0.7331 C.ar      4 PHE5        0.0000 
     32 CZ          9.1792   -4.1730   -1.5826 C.ar      4 PHE5        0.0000 
     33 CZ          8.8013   -2.9960   -2.4322 C.ar      4 PHE5        0.0000 
     34 DU         15.8263    4.2995   -3.3943 H         6 CUB7        0.0000 
     35 NZ         15.4485    5.4765   -4.2438 N.2       3 LYS4        0.0000 
     36 O          14.7899    2.6261   -2.6033 O.2       2 ALA2        0.0000 
     37 O          14.4120    3.8031   -3.4529 O.2       2 ALA2        0.0000 
     38 CZ         13.7535    0.9527   -1.8124 C.ar      4 PHE5        0.0000 
     39 NZ         13.3756    2.1297   -2.6620 N.2       3 LYS4        0.0000 
     40 CZ         12.7171   -0.7207   -1.0215 C.ar      4 PHE5        0.0000 
     41 CA         12.3392    0.4563   -1.8710 C.3       5 GLY6        0.0000 
     42 CA         11.9613    1.6334   -2.7206 C.3       5 GLY6        0.0000 
     43 CZ         12.0585   -3.5712    0.6190 C.ar      4 PHE5        0.0000 
     44 OG         11.6806   -2.3941   -0.2305 O.2       1 SER1        0.0000 
     45 N          11.3028   -1.2171   -1.0801 N.2       2 ALA2        0.0000 
     46 N          10.9249   -0.0400   -1.9297 N.2       2 ALA2        0.0000 
     47 CA         10.6442   -4.0675    0.5604 C.3       5 GLY6        0.0000 
     48 OG         10.2663   -2.8904   -0.2892 O.2       1 SER1        0.0000 
     49 N           9.8885   -1.7134   -1.1387 N.2       2 ALA2        0.0000 
     50 CA          9.2299   -4.5638    0.5018 C.3       5 GLY6        0.0000 
     51 O           8.8521   -3.3868   -0.3478 O.2       2 ALA2        0.0000 
     52 N           8.4742   -2.2097   -1.1974 N.2       2 ALA2        0.0000 
     53 CA          7.4378   -3.8831   -0.4064 C.3       5 GLY6        0.0000 
     54 CZ          7.0599   -2.7061   -1.2560 C.ar      4 PHE5        0.0000 
     55 NZ         16.9135    5.5821   -2.1008 N.2       3 LYS4        0.0000 
     56 NZ         16.5356    6.7591   -2.9504 N.2       3 LYS4        0.0000 
     57 CA         15.8771    3.9087   -1.3099 C.3       5 GLY6        0.0000 
     58 DU         15.4992    5.0857   -2.1594 H         6 CUB7        0.0000 
     59 CA         15.1213    6.2628   -3.0090 C.3       5 GLY6        0.0000 
     60 CZ         14.8406    2.2353   -0.5189 C.ar      4 PHE5        0.0000 
     61 NZ         14.4628    3.4123   -1.3685 N.2       3 LYS4        0.0000 
     62 O          14.0849    4.5894   -2.2181 O.2       2 ALA2        0.0000 
     63 O          13.7071    5.7664   -3.0676 O.2       2 ALA2        0.0000 
     64 NZ         13.4264    1.7389   -0.5776 N.2       3 LYS4        0.0000 
     65 CZ         12.3899    0.0655    0.2134 C.ar      4 PHE5        0.0000 
     66 NZ         12.0121    1.2426   -0.6362 N.2       3 LYS4        0.0000 
     67 CA         10.9756   -0.4308    0.1547 C.3       5 GLY6        0.0000 
     68 OG          9.9392   -2.1042    0.9457 O.2       1 SER1        0.0000 
     69 N           9.5614   -0.9271    0.0961 N.2       2 ALA2        0.0000 
     70 O           8.9028   -3.7776    1.7366 O.2       2 ALA2        0.0000 
     71 O           8.5249   -2.6005    0.8870 O.2       2 ALA2        0.0000 
     72 N           8.1471   -1.4235    0.0375 N.2       2 ALA2        0.0000 
     73 O           7.1106   -3.0969    0.8284 O.2       2 ALA2        0.0000 
     74 CZ          6.7328   -1.9198   -0.0212 C.ar      4 PHE5        0.0000 
     75 CA         18.3785    5.6876    0.0422 C.3       5 GLY6        0.0000 
     76 NZ         18.0007    6.8646   -0.8073 N.2       3 LYS4        0.0000 
     77 NZ         17.6228    8.0417   -1.6569 N.2       3 LYS4        0.0000 
     78 CA         16.9642    5.1912   -0.0164 C.3       5 GLY6        0.0000 
     79 DU         16.5864    6.3683   -0.8660 H         6 CUB7        0.0000 
     80 NZ         16.2085    7.5454   -1.7155 N.2       3 LYS4        0.0000 
     81 NZ         15.8306    8.7224   -2.5651 N.2       3 LYS4        0.0000 
     82 CA         15.5499    4.6949   -0.0750 C.3       5 GLY6        0.0000 
     83 DU         15.1721    5.8720   -0.9246 H         6 CUB7        0.0000 
     84 DU         14.7942    7.0490   -1.7742 H         6 CUB7        0.0000 
     85 CA         14.4164    8.2261   -2.6237 C.3       5 GLY6        0.0000 
     86 CZ         14.5135    3.0215    0.7159 C.ar      4 PHE5        0.0000 
     87 NZ         14.1357    4.1986   -0.1337 N.2       3 LYS4        0.0000 
     88 NZ         13.7578    5.3756   -0.9832 N.2       3 LYS4        0.0000 
     89 O          13.3799    6.5527   -1.8328 O.2       2 ALA2        0.0000 
     90 CA         13.0021    7.7297   -2.6824 C.3       5 GLY6        0.0000 
     91 CZ         13.4771    1.3481    1.5068 C.ar      4 PHE5        0.0000 
     92 NZ         13.0992    2.5252    0.6573 N.2       3 LYS4        0.0000 
     93 NZ         11.9656    6.0563   -1.8914 N.2       3 LYS4        0.0000 
     94 OG         12.0628    0.8518    1.4482 O.2       1 SER1        0.0000 
     95 OG         10.6485    0.3554    1.3896 O.2       1 SER1        0.0000 
     96 CA         10.2707    1.5325    0.5400 C.3       5 GLY6        0.0000 
     97 OG          9.6121   -1.3180    2.1805 O.2       1 SER1        0.0000 
     98 N           9.2342   -0.1409    1.3309 N.2       2 ALA2        0.0000 
     99 O           8.1978   -1.8143    2.1219 O.2       2 ALA2        0.0000 
    100 N           7.8199   -0.6372    1.2723 N.2       2 ALA2        0.0000 
    101 OG         19.4657    6.9702    1.3357 O.2       1 SER1        0.0000 
    102 DU         19.0878    8.1472    0.4861 H         6 CUB7        0.0000 
    103 CA         18.4293    5.2968    2.1266 C.3       5 GLY6        0.0000 
    104 DU         18.0514    6.4738    1.2770 H         6 CUB7        0.0000 
    105 DU         17.6735    7.6509    0.4275 H         6 CUB7        0.0000 
    106 NZ         17.2957    8.8279   -0.4221 N.2       3 LYS4        0.0000 
    107 CA         16.6371    5.9775    1.2184 C.3       5 GLY6        0.0000 
    108 CZ         16.2593    7.1546    0.3689 C.ar      4 PHE5        0.0000 
    109 DU         15.8814    8.3316   -0.4807 H         6 CUB7        0.0000 
    110 NZ         15.5035    9.5087   -1.3303 N.2       3 LYS4        0.0000 
    111 CA         15.6007    4.3041    2.0094 C.3       5 GLY6        0.0000 
    112 CA         15.2228    5.4812    1.1598 C.3       5 GLY6        0.0000 
    113 DU         14.8450    6.6582    0.3102 H         6 CUB7        0.0000 
    114 O          14.4671    7.8353   -0.5393 O.2       2 ALA2        0.0000 
    115 O          14.0892    9.0123   -1.3889 O.2       2 ALA2        0.0000 
    116 CA         14.1864    3.8078    1.9507 C.3       5 GLY6        0.0000 
    117 NZ         13.8085    4.9848    1.1012 N.2       3 LYS4        0.0000 
    118 NZ         13.4307    6.1619    0.2516 N.2       3 LYS4        0.0000 
    119 O          13.0528    7.3389   -0.5980 O.2       2 ALA2        0.0000 
    120 O          12.6749    8.5160   -1.4475 O.2       2 ALA2        0.0000 
    121 NZ         13.1500    2.1344    2.7417 N.2       3 LYS4        0.0000 
    122 NZ         12.7721    3.3114    1.8921 N.2       3 LYS4        0.0000 
    123 OG         11.6385    6.8426   -0.6566 O.2       1 SER1        0.0000 
    124 CA         11.7357    1.6380    2.6830 C.3       5 GLY6        0.0000 
    125 NZ         11.3578    2.8151    1.8335 N.2       3 LYS4        0.0000 
    126 OG         10.6993   -0.0354    3.4740 O.2       1 SER1        0.0000 
    127 CA         10.3214    1.1417    2.6244 C.3       5 GLY6        0.0000 
    128 CA         18.1021    6.0830    3.3614 C.3       5 GLY6        0.0000 
    129 CZ         17.7243    7.2601    2.5119 C.ar      4 PHE5        0.0000 
    130 CZ         17.3464    8.4371    1.6623 C.ar      4 PHE5        0.0000 
    131 CA         16.6879    5.5867    3.3028 C.3       5 GLY6        0.0000 
    132 CZ         16.3100    6.7637    2.4532 C.ar      4 PHE5        0.0000 
    133 CZ         15.9321    7.9408    1.6037 C.ar      4 PHE5        0.0000 
    134 CZ         15.5543    9.1179    0.7541 C.ar      4 PHE5        0.0000 
    135 CA         15.6514    3.9133    4.0937 C.3       5 GLY6        0.0000 
    136 CA         15.2736    5.0903    3.2442 C.3       5 GLY6        0.0000 
    137 CZ         14.8957    6.2674    2.3946 C.ar      4 PHE5        0.0000 
    138 CZ         14.5178    7.4445    1.5451 C.ar      4 PHE5        0.0000 
    139 NZ         14.2371    3.4170    4.0351 N.2       3 LYS4        0.0000 
    140 NZ         13.8593    4.5940    3.1856 N.2       3 LYS4        0.0000 
    141 CZ         13.4814    5.7711    2.3360 C.ar      4 PHE5        0.0000 
    142 O          13.1036    6.9481    1.4864 O.2       2 ALA2        0.0000 
    143 NZ         12.8229    2.9206    3.9765 N.2       3 LYS4        0.0000 
    144 CZ         12.4450    4.0977    3.1269 C.ar      4 PHE5        0.0000 
    145 CZ         12.0671    5.2747    2.2774 C.ar      4 PHE5        0.0000 
    146 CA         11.6893    6.4518    1.4278 C.3       5 GLY6        0.0000 
    147 CZ         17.3972    8.0463    3.7467 C.ar      4 PHE5        0.0000 
    148 CZ         16.3607    6.3729    4.5376 C.ar      4 PHE5        0.0000 
    149 CZ         15.3243    4.6995    5.3286 C.ar      4 PHE5        0.0000 
    150 CZ         14.9465    5.8766    4.4790 C.ar      4 PHE5        0.0000 
    151 NZ         13.9100    4.2032    5.2699 N.2       3 LYS4        0.0000 
    152 CZ         13.5322    5.3803    4.4204 C.ar      4 PHE5        0.0000 
    153 CZ         13.1543    6.5573    3.5708 C.ar      4 PHE5        0.0000 
    154 CA         12.4957    3.7069    5.2113 C.3       5 GLY6        0.0000 
    155 OG         12.1179    4.8839    4.3618 O.2       1 SER1        0.0000 
    156 OG         11.7400    6.0610    3.5122 O.2       1 SER1        0.0000 
    157 OG         13.5829    4.9894    6.5048 O.2       1 SER1        0.0000 
    158 CZ         13.2050    6.1665    5.6552 C.ar      4 PHE5        0.0000 
    159 OG         11.7908    5.6702    5.5966 O.2       1 SER1        0.0000 
@<TRIPOS>BOND
@<TRIPOS>SUBSTRUCTURE
     1 SER1       44 GROUP   
     2 ALA2        1 GROUP   
     3 LYS4       35 GROUP   
     4 PHE5        4 GROUP   
     5 GLY6       28 GROUP   
     6 CUB7        2 GROUP   
@<TRIPOS>SET

