#    Name: 3g6m_CFF_2_INTS_M
#    Modification time : Tue Mar 25 07:14:17 2014

@<TRIPOS>MOLECULE
3g6m_CFF_2_INTS_M
   20     0     3     0     0
SMALL
NO_CHARGES


@<TRIPOS>ATOM
      1 CA         13.9085   -1.1015   -1.2585 C.3       1 GLC5        0.0000 
      2 CA         12.4110   -0.6470   -2.4300 C.3       3 GLL5        0.0000 
      3 CA         15.4060   -1.5560   -0.0870 C.3       2 GLP5        0.0000 
      4 CA         11.0555    0.8350   -2.1660 C.3       1 GLC5        0.0000 
      5 CA          9.7000    2.3170   -1.9020 C.3       2 GLP5        0.0000 
      6 CA         12.0455    0.1240   -4.1390 C.3       1 GLC5        0.0000 
      7 CA         11.6800    0.8950   -5.8480 C.3       2 GLP5        0.0000 
      8 CA         13.6925    0.7430    1.8660 C.3       1 GLC5        0.0000 
      9 CA         11.6810    1.5050    1.9390 C.3       3 GLL5        0.0000 
     10 CA         15.7040   -0.0190    1.7930 C.3       2 GLP5        0.0000 
     11 CA         11.3645    1.6040    3.8490 C.3       1 GLC5        0.0000 
     12 CA         11.0480    1.7030    5.7590 C.3       2 GLP5        0.0000 
     13 CA         10.2515    3.0915    2.3570 C.3       1 GLC5        0.0000 
     14 CA          8.8220    4.6780    2.7750 C.3       2 GLP5        0.0000 
     15 CA         10.6905    1.9110    0.0185 C.3       1 GLC5        0.0000 
     16 CA         11.5380    2.3320   -0.7460 C.3       1 GLC5        0.0000 
     17 CA         13.3760    2.3470    0.4100 C.3       3 GLL5        0.0000 
     18 CA         17.1135    2.8485   -0.8605 C.3       1 GLC5        0.0000 
     19 CA         15.9780    3.6910   -1.8930 C.3       3 GLL5        0.0000 
     20 CA         18.2490    2.0060    0.1720 C.3       2 GLP5        0.0000 
@<TRIPOS>BOND
@<TRIPOS>SUBSTRUCTURE
     1 GLC5        1 GROUP        1 X    GLC  0     ROOT GLC X 6
     2 GLP5        3 GROUP        1 Y    GLP  0     ROOT GLP Y 13
     3 GLL5        2 GROUP        1 Z    GLL  0     ROOT GLL Z 20
@<TRIPOS>SET

