#    Name: 3g6m_CFF_2_ligand
#    Modification time : Tue Mar 25 07:14:17 2014

@<TRIPOS>MOLECULE
3g6m_CFF_2_ligand
   24    25     1     0     0
SMALL
NO_CHARGES


@<TRIPOS>ATOM
      1 N1         12.7870    0.4150   -1.4830 N.am      1 CFF427      0.0000 
      2 C2         12.1360    0.5050   -0.2770 C.2       1 CFF427      0.0000 
      3 C10        12.4110   -0.6470   -2.4300 C.3       1 CFF427      0.0000 
      4 C6         13.7720    1.2710   -1.8410 C.2       1 CFF427      0.0000 
      5 N3         12.4120    1.4550    0.6640 N.am      1 CFF427      0.0000 
      6 O11        11.2300   -0.3280   -0.0240 O.2       1 CFF427      0.0000 
      7 C12        11.6810    1.5050    1.9390 C.3       1 CFF427      0.0000 
      8 C4         13.3760    2.3470    0.4100 C.2       1 CFF427      0.0000 
      9 C5         14.1110    2.3180   -0.8500 C.2       1 CFF427      0.0000 
     10 N9         13.8620    3.3730    1.1270 N.2       1 CFF427      0.0000 
     11 O13        14.3750    1.1920   -2.9400 O.2       1 CFF427      0.0000 
     12 N7         14.9990    3.3140   -0.8380 N.pl3     1 CFF427      0.0000 
     13 C8         14.8390    3.9340    0.3500 C.2       1 CFF427      0.0000 
     14 C14        15.9780    3.6910   -1.8930 C.3       1 CFF427      0.0000 
     15 H          15.3726    4.7205    0.6409 H         1 CFF427      0.0000 
     16 H          12.9538   -0.6058   -3.2689 H         1 CFF427      0.0000 
     17 H          12.5445   -1.5576   -2.0389 H         1 CFF427      0.0000 
     18 H          11.4501   -0.5815   -2.6991 H         1 CFF427      0.0000 
     19 H          11.7952    0.6628    2.4659 H         1 CFF427      0.0000 
     20 H          11.9949    2.2576    2.5178 H         1 CFF427      0.0000 
     21 H          10.6990    1.6325    1.7994 H         1 CFF427      0.0000 
     22 H          16.5265    4.4830   -1.6248 H         1 CFF427      0.0000 
     23 H          16.6155    2.9465   -2.0912 H         1 CFF427      0.0000 
     24 H          15.5251    3.9258   -2.7531 H         1 CFF427      0.0000 
@<TRIPOS>BOND
     1    2    1 am   
     2    3    1 1    
     3    4    1 am   
     4    5    2 am   
     5    6    2 2    
     6   16    3 1    
     7   17    3 1    
     8   18    3 1    
     9    9    4 1    
    10   11    4 2    
    11    7    5 1    
    12    8    5 1    
    13   19    7 1    
    14   20    7 1    
    15   21    7 1    
    16    9    8 2    
    17   10    8 1    
    18   12    9 1    
    19   13   10 2    
    20   13   12 1    
    21   14   12 1    
    22   15   13 1    
    23   22   14 1    
    24   23   14 1    
    25   24   14 1    
@<TRIPOS>SUBSTRUCTURE
     1 CFF427      1 GROUP   
@<TRIPOS>SET

