#    Name: 2rcy_NAP_1_INTS_M
#    Modification time : Mon Mar 24 23:40:18 2014

@<TRIPOS>MOLECULE
2rcy_NAP_1_INTS_M
   88     0    12     0     0
SMALL
NO_CHARGES


@<TRIPOS>ATOM
      1 N          55.4785   47.1845   11.9580 N.am      2 SEC2        0.0000 
      2 N          56.8150   47.1770   12.7040 N.am     10 SEL2        0.0000 
      3 N          54.1420   47.1920   11.2120 N.am      6 SEP2        0.0000 
      4 CA         57.4920   46.1925   17.0640 C.3       4 GLC5        0.0000 
      5 CA         56.0110   47.7390   16.3860 C.3      12 GLL5        0.0000 
      6 CA         58.9730   44.6460   17.7420 C.3       8 GLP5        0.0000 
      7 CA         53.0810   50.1110   18.2920 C.3       4 GLC5        0.0000 
      8 CA         55.0800   50.6480   18.2320 C.3      12 GLL5        0.0000 
      9 CA         51.0820   49.5740   18.3520 C.3       8 GLP5        0.0000 
     10 CA         54.4200   49.6935   24.3920 C.3       4 GLC5        0.0000 
     11 CA         54.6730   51.1170   23.0590 C.3      12 GLL5        0.0000 
     12 CA         54.1670   48.2700   25.7250 C.3       8 GLP5        0.0000 
     13 N          52.1730   51.0570   24.0350 N.am      2 SEC2        0.0000 
     14 N          53.3200   51.0970   23.0690 N.am     10 SEL2        0.0000 
     15 N          51.0260   51.0170   25.0010 N.am      6 SEP2        0.0000 
     16 CA         51.8525   50.2750   20.1395 C.3       4 GLC5        0.0000 
     17 CA         52.6230   50.9760   21.9270 C.3      12 GLL5        0.0000 
     18 CA         52.2410   52.6970   20.6390 C.3       4 GLC5        0.0000 
     19 CA         51.8590   54.4180   19.3510 C.3       8 GLP5        0.0000 
     20 CA         53.6775   52.5975   20.9195 C.3       4 GLC5        0.0000 
     21 CA         54.7320   54.2190   19.9120 C.3       8 GLP5        0.0000 
     22 CA         53.0770   49.2220   21.6425 C.3       4 GLC5        0.0000 
     23 CA         53.5310   47.4680   21.3580 C.3       8 GLP5        0.0000 
     24 CA         52.8455   50.2280   19.5155 C.3       4 GLC5        0.0000 
     25 CA         54.6090   50.8820   20.6790 C.3      12 GLL5        0.0000 
     26 N          57.0135   42.5040   12.7875 N.am      2 SEC2        0.0000 
     27 N          56.3920   43.6390   12.4090 N.am     10 SEL2        0.0000 
     28 N          57.6350   41.3690   13.1660 N.am      6 SEP2        0.0000 
     29 N          53.6150   45.0600   12.2850 N.am      2 SEC2        0.0000 
     30 N          54.6000   45.2690   13.3910 N.am     10 SEL2        0.0000 
     31 N          52.6300   44.8510   11.1790 N.am      6 SEP2        0.0000 
     32 N          56.5380   42.3150   13.9270 N.am      2 SEC2        0.0000 
     33 N          55.4410   43.2610   14.6880 N.am     10 SEL2        0.0000 
     34 CA         54.3880   44.5310   17.8665 C.3       4 GLC5        0.0000 
     35 CA         54.7110   43.5640   15.8730 C.3      12 GLL5        0.0000 
     36 CA         54.0650   45.4980   19.8600 C.3       8 GLP5        0.0000 
     37 CA         52.0225   42.0490   16.1595 C.3       4 GLC5        0.0000 
     38 CA         54.2320   42.2590   16.5010 C.3      12 GLL5        0.0000 
     39 CA         49.8130   41.8390   15.8180 C.3       8 GLP5        0.0000 
     40 CA         56.3900   42.5055   18.2050 C.3       4 GLC5        0.0000 
     41 CA         55.3880   41.3480   16.8940 C.3      12 GLL5        0.0000 
     42 CA         57.3920   43.6630   19.5160 C.3       8 GLP5        0.0000 
     43 CA         56.7750   41.0880   18.2755 C.3       4 GLC5        0.0000 
     44 CA         58.1620   40.8280   19.6570 C.3       8 GLP5        0.0000 
     45 CA         54.2740   40.0100   18.2765 C.3       4 GLC5        0.0000 
     46 CA         53.1600   38.6720   19.6590 C.3       8 GLP5        0.0000 
     47 O          54.9155   42.0525   18.9620 O.2       1 ALC1        0.0000 
     48 O          55.1980   40.9320   18.2480 O.2       9 ALL1        0.0000 
     49 O          54.6330   43.1730   19.6760 O.2       5 ALP1        0.0000 
     50 CA         57.1120   40.8225   14.8545 C.3       4 GLC5        0.0000 
     51 CA         55.3090   40.1610   15.9500 C.3      12 GLL5        0.0000 
     52 CA         58.9150   41.4840   13.7590 C.3       8 GLP5        0.0000 
     53 N          55.1885   38.0685   17.5950 N.am      2 SEC2        0.0000 
     54 N          55.6170   38.9250   16.6020 N.am     10 SEL2        0.0000 
     55 N          54.7600   37.2120   18.5880 N.am      6 SEP2        0.0000 
     56 CA         52.4445   40.8770   13.9085 C.3       4 GLC5        0.0000 
     57 CA         53.8630   40.1740   15.4820 C.3      12 GLL5        0.0000 
     58 CA         51.0260   41.5800   12.3350 C.3       8 GLP5        0.0000 
     59 CA         51.8380   41.0065   15.6500 C.3       4 GLC5        0.0000 
     60 CA         53.5115   39.4230   17.5705 C.3       4 GLC5        0.0000 
     61 CA         53.1150   41.5160   12.6795 C.3       4 GLC5        0.0000 
     62 CA         54.2210   40.2900   13.0650 C.3      12 GLL5        0.0000 
     63 CA         52.0090   42.7420   12.2940 C.3       8 GLP5        0.0000 
     64 CA         52.5360   40.6870   12.0550 C.3       4 GLC5        0.0000 
     65 CA         54.0460   39.7940   11.7750 C.3      12 GLL5        0.0000 
     66 CA         52.0090   39.7160   11.0780 C.3       4 GLC5        0.0000 
     67 CA         53.3150   38.6210   11.5850 C.3      12 GLL5        0.0000 
     68 CA         50.7030   40.8110   10.5710 C.3       8 GLP5        0.0000 
     69 NZ         56.0580   53.3905   13.8040 N.4       3 LYC4        0.0000 
     70 NZ         57.0920   53.0390   14.8210 N.4      11 LYL4        0.0000 
     71 NZ         55.0240   53.7420   12.7870 N.4       7 LYP4        0.0000 
     72 CA         54.7717   49.0211   14.6438 C.3       4 GLC5        0.0000 
     73 CA         55.2230   49.0320   16.5480 C.3      12 GLL5        0.0000 
     74 CA         53.7260   48.7320   13.0230 C.3       8 GLP5        0.0000 
     75 CA         55.1677   52.5632   18.8278 C.3       4 GLC5        0.0000 
     76 CA         56.1270   51.1670   17.2550 C.3      12 GLL5        0.0000 
     77 CA         56.3140   49.4142   21.6642 C.3       4 GLC5        0.0000 
     78 CA         55.3470   51.0090   21.8460 C.3      12 GLL5        0.0000 
     79 CA         57.6500   47.8830   22.0660 C.3       8 GLP5        0.0000 
     80 CA         54.7708   52.5958   20.7389 C.3       4 GLC5        0.0000 
     81 CA         54.1702   49.2203   21.4619 C.3       4 GLC5        0.0000 
     82 CA         51.9523   39.9137   12.8302 C.3       4 GLC5        0.0000 
     83 CA         52.9810   38.5190   13.9590 C.3      12 GLL5        0.0000 
     84 CA         52.4818   36.6278   13.9742 C.3       4 GLC5        0.0000 
     85 CA         52.0850   35.0080   14.6230 C.3       8 GLP5        0.0000 
     86 CA         50.9612   37.7202   13.6762 C.3       4 GLC5        0.0000 
     87 CA         52.7760   37.9760   12.6920 C.3      12 GLL5        0.0000 
     88 CA         49.0440   37.1930   14.0270 C.3       8 GLP5        0.0000 
@<TRIPOS>BOND
@<TRIPOS>SUBSTRUCTURE
     1 ALC1       47 GROUP        1 X    ALC  0     ROOT ALC X 1
     2 SEC2        1 GROUP        1 X    SEC  0     **** SEC X 2
     3 LYC4       69 GROUP        1 X    LYC  0     **** LYC X 4
     4 GLC5        4 GROUP        1 X    GLC  0     **** GLC X 6
     5 ALP1       49 GROUP        1 Y    ALP  0     ROOT ALP Y 8
     6 SEP2        3 GROUP        1 Y    SEP  0     **** SEP Y 9
     7 LYP4       71 GROUP        1 Y    LYP  0     **** LYP Y 11
     8 GLP5        6 GROUP        1 Y    GLP  0     **** GLP Y 13
     9 ALL1       48 GROUP        1 Z    ALL  0     ROOT ALL Z 15
    10 SEL2        2 GROUP        1 Z    SEL  0     **** SEL Z 16
    11 LYL4       70 GROUP        1 Z    LYL  0     **** LYL Z 18
    12 GLL5        5 GROUP        1 Z    GLL  0     **** GLL Z 20
@<TRIPOS>SET

