#    Name: 2rcy_NAP_1_ligand
#    Modification time : Mon Mar 24 23:40:19 2014

@<TRIPOS>MOLECULE
2rcy_NAP_1_ligand
   73    77     1     0     0
SMALL
NO_CHARGES


@<TRIPOS>ATOM
      1 PA         57.1020   46.8050   14.1370 P.3       1 NAP264      0.0000 
      2 O1A        56.8150   47.1770   12.7040 O.co2     1 NAP264      0.0000 
      3 O2A        58.4040   47.2390   14.7670 O.co2     1 NAP264      0.0000 
      4 O5B        55.8630   47.3030   15.0370 O.3       1 NAP264      0.0000 
      5 C5B        56.0110   47.7390   16.3860 C.3       1 NAP264      0.0000 
      6 C4B        55.2230   49.0320   16.5480 C.3       1 NAP264      0.0000 
      7 O4B        54.9000   49.2640   17.9210 O.3       1 NAP264      0.0000 
      8 C3B        56.0180   50.2350   16.0620 C.3       1 NAP264      0.0000 
      9 O3B        55.3140   50.8650   14.9870 O.3       1 NAP264      0.0000 
     10 C2B        56.1270   51.1670   17.2550 C.3       1 NAP264      0.0000 
     11 O2B        55.8610   52.5230   16.8980 O.3       1 NAP264      0.0000 
     12 C1B        55.0800   50.6480   18.2320 C.3       1 NAP264      0.0000 
     13 N9A        55.4710   50.7980   19.6600 N.pl3     1 NAP264      0.0000 
     14 C8A        56.7160   50.8630   20.1600 C.2       1 NAP264      0.0000 
     15 N7A        56.6500   50.9960   21.5040 N.2       1 NAP264      0.0000 
     16 C5A        55.3470   51.0090   21.8460 C.ar      1 NAP264      0.0000 
     17 C6A        54.6730   51.1170   23.0590 C.ar      1 NAP264      0.0000 
     18 N6A        55.3600   51.2400   24.2200 N.pl3     1 NAP264      0.0000 
     19 N1A        53.3200   51.0970   23.0690 N.ar      1 NAP264      0.0000 
     20 C2A        52.6230   50.9760   21.9270 C.ar      1 NAP264      0.0000 
     21 N3A        53.2500   50.8700   20.7450 N.ar      1 NAP264      0.0000 
     22 C4A        54.6090   50.8820   20.6790 C.ar      1 NAP264      0.0000 
     23 O3         56.9820   45.2080   14.2920 O.3       1 NAP264      0.0000 
     24 PN         55.8000   44.3730   13.5860 P.3       1 NAP264      0.0000 
     25 O1N        56.3920   43.6390   12.4090 O.co2     1 NAP264      0.0000 
     26 O2N        54.6000   45.2690   13.3910 O.co2     1 NAP264      0.0000 
     27 O5D        55.4410   43.2610   14.6880 O.3       1 NAP264      0.0000 
     28 C5D        54.7110   43.5640   15.8730 C.3       1 NAP264      0.0000 
     29 C4D        54.2320   42.2590   16.5010 C.3       1 NAP264      0.0000 
     30 O4D        53.4220   41.5340   15.5730 O.3       1 NAP264      0.0000 
     31 C3D        55.3880   41.3480   16.8940 C.3       1 NAP264      0.0000 
     32 O3D        55.1980   40.9320   18.2480 O.3       1 NAP264      0.0000 
     33 C2D        55.3090   40.1610   15.9500 C.3       1 NAP264      0.0000 
     34 O2D        55.6170   38.9250   16.6020 O.3       1 NAP264      0.0000 
     35 C1D        53.8630   40.1740   15.4820 C.3       1 NAP264      0.0000 
     36 N1N        53.6900   39.6490   14.1220 N.pl3     1 NAP264      0.0000 
     37 C2N        54.2210   40.2900   13.0650 C.ar      1 NAP264      0.0000 
     38 C3N        54.0460   39.7940   11.7750 C.ar      1 NAP264      0.0000 
     39 C7N        54.6330   40.5200   10.6010 C.2       1 NAP264      0.0000 
     40 O7N        55.3820   41.6060   10.7800 O.2       1 NAP264      0.0000 
     41 N7N        54.3980   40.1120    9.4370 N.am      1 NAP264      0.0000 
     42 C4N        53.3150   38.6210   11.5850 C.ar      1 NAP264      0.0000 
     43 C5N        52.7760   37.9760   12.6920 C.ar      1 NAP264      0.0000 
     44 C6N        52.9810   38.5190   13.9590 C.ar      1 NAP264      0.0000 
     45 P2B        56.9930   53.4820   16.2610 P.3       1 NAP264      0.0000 
     46 O1X        56.4180   54.8700   16.4320 O.co2     1 NAP264      0.0000 
     47 O2X        58.2360   53.2170   17.0800 O.co2     1 NAP264      0.0000 
     48 O3X        57.0920   53.0390   14.8210 O.co2     1 NAP264      0.0000 
     49 H          57.0510   47.9448   16.6360 H         1 NAP264      0.0000 
     50 H          55.6156   47.0125   17.0948 H         1 NAP264      0.0000 
     51 H          54.3226   48.9673   15.9516 H         1 NAP264      0.0000 
     52 H          56.9890   49.9088   15.7879 H         1 NAP264      0.0000 
     53 H          57.0874   51.0287   17.7011 H         1 NAP264      0.0000 
     54 H          54.1582   51.1862   18.0444 H         1 NAP264      0.0000 
     55 H          57.5371   50.8215   19.6423 H         1 NAP264      0.0000 
     56 H          54.8098   51.2943   25.0532 H         1 NAP264      0.0000 
     57 H          56.3565   51.2656   24.1410 H         1 NAP264      0.0000 
     58 H          51.5733   50.9642   21.9600 H         1 NAP264      0.0000 
     59 H          53.8315   44.1783   15.6649 H         1 NAP264      0.0000 
     60 H          55.3272   44.0842   16.6104 H         1 NAP264      0.0000 
     61 H          53.6684   42.4889   17.3942 H         1 NAP264      0.0000 
     62 H          56.2936   41.8631   16.7359 H         1 NAP264      0.0000 
     63 H          55.9280   40.3611   15.1062 H         1 NAP264      0.0000 
     64 H          53.2935   39.5655   16.1900 H         1 NAP264      0.0000 
     65 H          54.7697   41.1639   13.1897 H         1 NAP264      0.0000 
     66 H          53.8115   39.3054    9.3635 H         1 NAP264      0.0000 
     67 H          54.8198   40.6326    8.6947 H         1 NAP264      0.0000 
     68 H          53.1794   38.2440   10.6463 H         1 NAP264      0.0000 
     69 H          52.2367   37.1157   12.5802 H         1 NAP264      0.0000 
     70 H          52.5689   38.0245   14.7795 H         1 NAP264      0.0000 
     71 H          55.8455   51.6851   14.7752 H         1 NAP264      0.0000 
     72 H          55.0126   41.7745   18.7539 H         1 NAP264      0.0000 
     73 H          56.5816   38.7582   16.3978 H         1 NAP264      0.0000 
@<TRIPOS>BOND
     1    2    1 ar   
     2    3    1 ar   
     3    4    1 1    
     4   23    1 1    
     5    5    4 1    
     6    6    5 1    
     7   49    5 1    
     8   50    5 1    
     9    7    6 1    
    10    8    6 1    
    11   51    6 1    
    12   12    7 1    
    13    9    8 1    
    14   10    8 1    
    15   52    8 1    
    16   71    9 1    
    17   11   10 1    
    18   12   10 1    
    19   53   10 1    
    20   45   11 1    
    21   13   12 1    
    22   54   12 1    
    23   14   13 1    
    24   22   13 1    
    25   15   14 2    
    26   55   14 1    
    27   16   15 1    
    28   17   16 ar   
    29   22   16 ar   
    30   18   17 1    
    31   19   17 ar   
    32   56   18 1    
    33   57   18 1    
    34   20   19 ar   
    35   21   20 ar   
    36   58   20 1    
    37   22   21 ar   
    38   24   23 1    
    39   25   24 ar   
    40   26   24 ar   
    41   27   24 1    
    42   28   27 1    
    43   29   28 1    
    44   59   28 1    
    45   60   28 1    
    46   30   29 1    
    47   31   29 1    
    48   61   29 1    
    49   35   30 1    
    50   32   31 1    
    51   33   31 1    
    52   62   31 1    
    53   72   32 1    
    54   34   33 1    
    55   35   33 1    
    56   63   33 1    
    57   73   34 1    
    58   36   35 1    
    59   64   35 1    
    60   37   36 ar   
    61   44   36 ar   
    62   38   37 ar   
    63   65   37 1    
    64   39   38 1    
    65   42   38 ar   
    66   40   39 2    
    67   41   39 am   
    68   66   41 1    
    69   67   41 1    
    70   43   42 ar   
    71   68   42 1    
    72   44   43 ar   
    73   69   43 1    
    74   70   44 1    
    75   46   45 ar   
    76   47   45 ar   
    77   48   45 ar   
@<TRIPOS>SUBSTRUCTURE
     1 NAP264      1 GROUP   
@<TRIPOS>SET

