#    Name: 3qem_QEM_1_INTS_M
#    Modification time : Mon Apr  7 19:24:56 2014

@<TRIPOS>MOLECULE
3qem_QEM_1_INTS_M
   74     0     6     0     0
SMALL
NO_CHARGES


@<TRIPOS>ATOM
      1 O          84.6270    7.1875  -31.6690 O.2       1 ALC1        0.0000 
      2 O          85.7180    6.4090  -32.3030 O.2       5 ALL1        0.0000 
      3 O          83.5360    7.9660  -31.0350 O.2       3 ALP1        0.0000 
      4 O          92.3975   13.1925  -30.2205 O.2       1 ALC1        0.0000 
      5 O          92.0740   12.7470  -31.8080 O.2       5 ALL1        0.0000 
      6 O          92.7210   13.6380  -28.6330 O.2       3 ALP1        0.0000 
      7 O          92.7245   12.2655  -30.7160 O.2       1 ALC1        0.0000 
      8 O          93.3750   11.7840  -29.6240 O.2       3 ALP1        0.0000 
      9 O          87.2130   10.5505  -35.0305 O.2       1 ALC1        0.0000 
     10 O          87.9650    9.0930  -34.7650 O.2       5 ALL1        0.0000 
     11 O          86.4610   12.0080  -35.2960 O.2       3 ALP1        0.0000 
     12 CA         84.5980    1.2365  -31.1280 C.3       2 GLC5        0.0000 
     13 CA         82.4780    1.6770  -31.3330 C.3       6 GLL5        0.0000 
     14 CA         86.7180    0.7960  -30.9230 C.3       4 GLP5        0.0000 
     15 CA         82.9670    0.1675  -30.0770 C.3       2 GLC5        0.0000 
     16 CA         83.4560   -1.3420  -28.8210 C.3       4 GLP5        0.0000 
     17 CA         81.9610   -0.7550  -30.3975 C.3       2 GLC5        0.0000 
     18 CA         81.6890    0.6110  -31.8060 C.3       6 GLL5        0.0000 
     19 CA         82.2330   -2.1210  -28.9890 C.3       4 GLP5        0.0000 
     20 CA         82.0370    5.6155  -29.8625 C.3       2 GLC5        0.0000 
     21 CA         82.7440    4.0560  -30.5850 C.3       6 GLL5        0.0000 
     22 CA         81.3300    7.1750  -29.1400 C.3       4 GLP5        0.0000 
     23 CA         85.2225    5.0055  -28.6475 C.3       2 GLC5        0.0000 
     24 CA         84.9880    4.8830  -30.5240 C.3       6 GLL5        0.0000 
     25 CA         85.4570    5.1280  -26.7710 C.3       4 GLP5        0.0000 
     26 CA         86.9400    3.6820  -31.3405 C.3       2 GLC5        0.0000 
     27 CA         86.1390    5.5770  -31.1970 C.3       6 GLL5        0.0000 
     28 CA         87.7410    1.7870  -31.4840 C.3       4 GLP5        0.0000 
     29 CA         83.5955    5.2570  -34.6240 C.3       2 GLC5        0.0000 
     30 CA         84.9960    5.6140  -33.2550 C.3       6 GLL5        0.0000 
     31 CA         82.1950    4.9000  -35.9930 C.3       4 GLP5        0.0000 
     32 CA         89.4570    8.4640  -35.0975 C.3       2 GLC5        0.0000 
     33 CA         88.4050    8.6430  -33.5170 C.3       6 GLL5        0.0000 
     34 CA         90.5090    8.2850  -36.6780 C.3       4 GLP5        0.0000 
     35 CA         86.8700   10.7310  -30.5070 C.3       2 GLC5        0.0000 
     36 CA         86.3920    9.6320  -32.3450 C.3       6 GLL5        0.0000 
     37 CA         87.3480   11.8300  -28.6690 C.3       4 GLP5        0.0000 
     38 CA         85.7345   11.4245  -32.4740 C.3       2 GLC5        0.0000 
     39 CA         85.0770   13.2170  -32.6030 C.3       4 GLP5        0.0000 
     40 CA         88.4935   12.1830  -35.2360 C.3       2 GLC5        0.0000 
     41 CA         89.3610   10.9500  -33.6230 C.3       6 GLL5        0.0000 
     42 CA         87.6260   13.4160  -36.8490 C.3       4 GLP5        0.0000 
     43 CA         90.8350   13.5375  -34.3910 C.3       2 GLC5        0.0000 
     44 CA         90.2480   11.9630  -33.2210 C.3       6 GLL5        0.0000 
     45 CA         91.4220   15.1120  -35.5610 C.3       4 GLP5        0.0000 
     46 CA         90.8593    9.4930  -33.7210 C.3       2 GLC5        0.0000 
     47 CA         90.3090    9.4610  -32.0140 C.3       6 GLL5        0.0000 
     48 CA         91.8760    9.4010  -34.9200 C.3       4 GLP5        0.0000 
     49 CA         81.7028    2.8120  -33.0823 C.3       2 GLC5        0.0000 
     50 CA         81.8930    2.9090  -31.1000 C.3       6 GLL5        0.0000 
     51 CA         82.2070    2.6170  -34.9490 C.3       4 GLP5        0.0000 
     52 CA         79.6548    3.0460  -29.7860 C.3       2 GLC5        0.0000 
     53 CA         80.5040    3.1050  -31.3310 C.3       6 GLL5        0.0000 
     54 CA         79.2000    3.5200  -27.9990 C.3       4 GLP5        0.0000 
     55 CA         78.2508    3.1105  -31.5095 C.3       2 GLC5        0.0000 
     56 CA         76.3920    3.6490  -31.4460 C.3       4 GLP5        0.0000 
     57 CA         82.1453    1.8805  -33.2592 C.3       2 GLC5        0.0000 
     58 CA         83.0902    0.0605  -32.7802 C.3       2 GLC5        0.0000 
     59 CA         84.0970   -1.0230  -33.9910 C.3       4 GLP5        0.0000 
     60 CA         81.1082    2.0208  -33.4405 C.3       2 GLC5        0.0000 
     61 CA         80.3040    0.8100  -32.0490 C.3       6 GLL5        0.0000 
     62 CA         81.8574    2.6778  -29.1844 C.3       2 GLC5        0.0000 
     63 CA         81.2500    2.1810  -27.4680 C.3       4 GLP5        0.0000 
     64 CA         83.0707    3.5985  -33.4862 C.3       2 GLC5        0.0000 
     65 CA         84.0680    4.2060  -31.4010 C.3       6 GLL5        0.0000 
     66 CA         85.2285    2.9992  -29.7937 C.3       2 GLC5        0.0000 
     67 CA         85.9290    1.4540  -28.6250 C.3       4 GLP5        0.0000 
     68 CA         90.8403   10.4287  -34.1710 C.3       2 GLC5        0.0000 
     69 CA         88.1433   12.4682  -32.7990 C.3       2 GLC5        0.0000 
     70 CA         86.4820   13.4800  -32.1760 C.3       4 GLP5        0.0000 
     71 CA         91.5228   10.2450  -33.4200 C.3       2 GLC5        0.0000 
     72 CA         91.1630   11.7190  -32.2190 C.3       6 GLL5        0.0000 
     73 CA         89.6739   13.2099  -32.1848 C.3       2 GLC5        0.0000 
     74 CA         88.8640   14.8320  -31.5490 C.3       4 GLP5        0.0000 
@<TRIPOS>BOND
@<TRIPOS>SUBSTRUCTURE
     1 ALC1        1 GROUP        1 X    ALC  0     ROOT ALC X 1
     2 GLC5       12 GROUP        1 X    GLC  0     **** GLC X 6
     3 ALP1        3 GROUP        1 Y    ALP  0     ROOT ALP Y 8
     4 GLP5       14 GROUP        1 Y    GLP  0     **** GLP Y 13
     5 ALL1        2 GROUP        1 Z    ALL  0     ROOT ALL Z 15
     6 GLL5       13 GROUP        1 Z    GLL  0     **** GLL Z 20
@<TRIPOS>SET

