#    Name: 3qem_QEM_1_ligand
#    Modification time : Mon Apr  7 19:24:56 2014

@<TRIPOS>MOLECULE
3qem_QEM_1_ligand
   55    57     1     0     0
SMALL
NO_CHARGES


@<TRIPOS>ATOM
      1 C          90.3090    9.4610  -32.0140 C.ar      1 QEM396      0.0000 
      2 N          85.7180    6.4090  -32.3030 N.4       1 QEM396      0.0000 
      3 O          92.0740   12.7470  -31.8080 O.3       1 QEM396      0.0000 
      4 C01        80.5040    3.1050  -31.3310 C.ar      1 QEM396      0.0000 
      5 O01        87.9650    9.0930  -34.7650 O.3       1 QEM396      0.0000 
      6 C02        81.8930    2.9090  -31.1000 C.ar      1 QEM396      0.0000 
      7 C03        82.4780    1.6770  -31.3330 C.ar      1 QEM396      0.0000 
      8 C04        81.6890    0.6110  -31.8060 C.ar      1 QEM396      0.0000 
      9 C05        80.3040    0.8100  -32.0490 C.ar      1 QEM396      0.0000 
     10 C06        79.7150    2.0390  -31.8150 C.ar      1 QEM396      0.0000 
     11 C07        82.7440    4.0560  -30.5850 C.3       1 QEM396      0.0000 
     12 C08        84.0680    4.2060  -31.4010 C.3       1 QEM396      0.0000 
     13 C09        84.9880    4.8830  -30.5240 C.3       1 QEM396      0.0000 
     14 C10        86.1390    5.5770  -31.1970 C.3       1 QEM396      0.0000 
     15 C11        84.9960    5.6140  -33.2550 C.3       1 QEM396      0.0000 
     16 C12        83.8010    4.9540  -32.6460 C.3       1 QEM396      0.0000 
     17 C13        86.3600    7.3130  -33.2510 C.3       1 QEM396      0.0000 
     18 C14        87.2370    8.3710  -32.6290 C.3       1 QEM396      0.0000 
     19 C15        88.4050    8.6430  -33.5170 C.3       1 QEM396      0.0000 
     20 C16        89.3760    9.7090  -33.0300 C.ar      1 QEM396      0.0000 
     21 C17        86.3920    9.6320  -32.3450 C.3       1 QEM396      0.0000 
     22 C18        89.3610   10.9500  -33.6230 C.ar      1 QEM396      0.0000 
     23 C19        90.2480   11.9630  -33.2210 C.ar      1 QEM396      0.0000 
     24 C20        91.1630   11.7190  -32.2190 C.ar      1 QEM396      0.0000 
     25 C21        91.1760   10.4590  -31.6210 C.ar      1 QEM396      0.0000 
     26 H          90.3390    8.5356  -31.5697 H         1 QEM396      0.0000 
     27 H          84.7939    7.0663  -31.8925 H         1 QEM396      0.0000 
     28 H          80.0832    4.0139  -31.1464 H         1 QEM396      0.0000 
     29 H          83.4773    1.5302  -31.1660 H         1 QEM396      0.0000 
     30 H          82.1060   -0.3037  -31.9753 H         1 QEM396      0.0000 
     31 H          79.7462    0.0200  -32.4034 H         1 QEM396      0.0000 
     32 H          78.7186    2.1875  -31.9868 H         1 QEM396      0.0000 
     33 H          83.0054    3.8855  -29.5406 H         1 QEM396      0.0000 
     34 H          82.1906    4.9922  -30.6592 H         1 QEM396      0.0000 
     35 H          84.4039    3.2089  -31.6160 H         1 QEM396      0.0000 
     36 H          85.4118    4.1636  -29.7736 H         1 QEM396      0.0000 
     37 H          84.4449    5.6431  -29.9015 H         1 QEM396      0.0000 
     38 H          86.6746    6.1807  -30.4371 H         1 QEM396      0.0000 
     39 H          86.8579    4.8064  -31.5406 H         1 QEM396      0.0000 
     40 H          85.6480    4.8281  -33.6862 H         1 QEM396      0.0000 
     41 H          84.6561    6.2344  -34.1083 H         1 QEM396      0.0000 
     42 H          83.0227    5.7303  -32.4530 H         1 QEM396      0.0000 
     43 H          83.3470    4.2686  -33.4008 H         1 QEM396      0.0000 
     44 H          85.5882    7.8248  -33.8751 H         1 QEM396      0.0000 
     45 H          86.9790    6.7313  -33.9760 H         1 QEM396      0.0000 
     46 H          87.5925    7.9897  -31.6714 H         1 QEM396      0.0000 
     47 H          88.9817    7.7195  -33.6479 H         1 QEM396      0.0000 
     48 H          88.6857   11.1551  -34.3840 H         1 QEM396      0.0000 
     49 H          90.2053   12.8809  -33.6808 H         1 QEM396      0.0000 
     50 H          91.8608   10.2736  -30.8584 H         1 QEM396      0.0000 
     51 H          86.9376   10.3583  -31.9268 H         1 QEM396      0.0000 
     52 H          85.9944   10.0088  -33.1816 H         1 QEM396      0.0000 
     53 H          85.6343    9.4387  -31.7216 H         1 QEM396      0.0000 
     54 H          92.5288   12.3803  -30.9964 H         1 QEM396      0.0000 
     55 H          87.5408    9.9805  -34.5851 H         1 QEM396      0.0000 
@<TRIPOS>BOND
     1   20    1 ar   
     2   25    1 ar   
     3   26    1 1    
     4   14    2 1    
     5   15    2 1    
     6   17    2 1    
     7   27    2 1    
     8   24    3 1    
     9   54    3 1    
    10    6    4 ar   
    11   10    4 ar   
    12   28    4 1    
    13   19    5 1    
    14   55    5 1    
    15    7    6 ar   
    16   11    6 1    
    17    8    7 ar   
    18   29    7 1    
    19    9    8 ar   
    20   30    8 1    
    21   10    9 ar   
    22   31    9 1    
    23   32   10 1    
    24   12   11 1    
    25   33   11 1    
    26   34   11 1    
    27   13   12 1    
    28   16   12 1    
    29   35   12 1    
    30   14   13 1    
    31   36   13 1    
    32   37   13 1    
    33   38   14 1    
    34   39   14 1    
    35   16   15 1    
    36   40   15 1    
    37   41   15 1    
    38   42   16 1    
    39   43   16 1    
    40   18   17 1    
    41   44   17 1    
    42   45   17 1    
    43   19   18 1    
    44   21   18 1    
    45   46   18 1    
    46   20   19 1    
    47   47   19 1    
    48   22   20 ar   
    49   51   21 1    
    50   52   21 1    
    51   53   21 1    
    52   23   22 ar   
    53   48   22 1    
    54   24   23 ar   
    55   49   23 1    
    56   25   24 ar   
    57   50   25 1    
@<TRIPOS>SUBSTRUCTURE
     1 QEM396      1 GROUP   
@<TRIPOS>SET

