#    Name: 3SFH_1_CAVITY_N1_ALL.mol2
#    Modification time : Mon Mar 10 23:47:36 2014

@<TRIPOS>MOLECULE
3SFH_1_CAVITY_N1_ALL.mol2
   84     0     7     0     0
SMALL
NO_CHARGES


@<TRIPOS>ATOM
      1 CA         14.0744   15.6739  -17.8139 C.3       6 GLY6        0.0000 
      2 CZ         12.8230   16.1665  -24.3860 C.ar      5 PHE5        0.0000 
      3 CZ         12.5896   17.5476  -24.9227 C.ar      5 PHE5        0.0000 
      4 CZ         13.3270   11.4558  -24.1503 C.ar      5 PHE5        0.0000 
      5 CZ         12.6268   15.5991  -25.7606 C.ar      5 PHE5        0.0000 
      6 CZ         13.1308   10.8884  -25.5249 C.ar      5 PHE5        0.0000 
      7 CZ         12.8974   12.2695  -26.0616 C.ar      5 PHE5        0.0000 
      8 CZ         12.6641   13.6506  -26.5984 C.ar      5 PHE5        0.0000 
      9 DU         12.4307   15.0317  -27.1352 H         7 CUB7        0.0000 
     10 CZ         12.7013   11.7021  -27.4363 C.ar      5 PHE5        0.0000 
     11 CA         12.4679   13.0832  -27.9730 C.3       6 GLY6        0.0000 
     12 CA         12.2717   12.5158  -29.3477 C.3       6 GLY6        0.0000 
     13 CA         12.8019   16.0976  -16.1704 C.3       6 GLY6        0.0000 
     14 CA         12.6057   15.5302  -17.5451 C.3       6 GLY6        0.0000 
     15 CA         12.3724   16.9113  -18.0818 C.3       6 GLY6        0.0000 
     16 OG         11.3543   16.0228  -24.1171 O.2       1 SER1        0.0000 
     17 CZ         11.6249   12.6932  -24.4181 C.ar      5 PHE5        0.0000 
     18 CZ         11.3915   14.0743  -24.9549 C.ar      5 PHE5        0.0000 
     19 CZ         11.1582   15.4554  -25.4917 C.ar      5 PHE5        0.0000 
     20 CA         10.9248   16.8365  -26.0285 C.3       6 GLY6        0.0000 
     21 CA         11.6621   10.7447  -25.2560 C.3       6 GLY6        0.0000 
     22 CZ         11.4287   12.1258  -25.7928 C.ar      5 PHE5        0.0000 
     23 DU         11.1954   13.5069  -26.3295 H         7 CUB7        0.0000 
     24 N          10.9620   14.8880  -26.8663 N.2       2 ALA2        0.0000 
     25 CA         10.7286   16.2691  -27.4031 C.3       6 GLY6        0.0000 
     26 CA         10.9992   12.9395  -27.7041 C.3       6 GLY6        0.0000 
     27 N          10.7658   14.3206  -28.2409 N.2       2 ALA2        0.0000 
     28 CZ         11.3332   15.9540  -15.9015 C.ar      5 PHE5        0.0000 
     29 O          11.0998   17.3351  -16.4383 O.2       2 ALA2        0.0000 
     30 CZ         11.1371   15.3866  -17.2762 C.ar      5 PHE5        0.0000 
     31 CZ         10.9037   16.7677  -17.8129 C.ar      5 PHE5        0.0000 
     32 O          10.6703   18.1487  -18.3497 O.2       2 ALA2        0.0000 
     33 OG         10.7075   16.2003  -19.1875 O.2       1 SER1        0.0000 
     34 OG         10.3152   15.0654  -21.9368 O.2       1 SER1        0.0000 
     35 CZ         10.1190   14.4980  -23.3114 C.ar      5 PHE5        0.0000 
     36 OG          9.8856   15.8791  -23.8482 O.2       1 SER1        0.0000 
     37 N          10.1562   12.5495  -24.1492 N.2       2 ALA2        0.0000 
     38 CZ          9.9228   13.9306  -24.6860 C.ar      5 PHE5        0.0000 
     39 N           9.6895   15.3117  -25.2228 N.2       2 ALA2        0.0000 
     40 CA          9.4561   16.6928  -25.7596 C.3       6 GLY6        0.0000 
     41 CZ          9.9601   11.9821  -25.5239 C.ar      5 PHE5        0.0000 
     42 N           9.7267   13.3632  -26.0606 N.2       2 ALA2        0.0000 
     43 CZ          9.4350   16.6240  -17.5440 C.ar      5 PHE5        0.0000 
     44 CA          9.2016   18.0051  -18.0808 C.3       6 GLY6        0.0000 
     45 CZ          9.2388   16.0566  -18.9187 C.ar      5 PHE5        0.0000 
     46 CZ          9.0054   17.4377  -19.4554 C.ar      5 PHE5        0.0000 
     47 CA          9.2760   14.1081  -19.7565 C.3       6 GLY6        0.0000 
     48 OG          9.0427   15.4892  -20.2933 O.2       1 SER1        0.0000 
     49 OG          8.8093   16.8703  -20.8300 O.2       1 SER1        0.0000 
     50 OG          8.8465   14.9218  -21.6679 O.2       1 SER1        0.0000 
     51 OG          8.6131   16.3029  -22.2047 O.2       1 SER1        0.0000 
     52 CZ          8.3797   17.6839  -22.7414 C.ar      5 PHE5        0.0000 
     53 N           8.6503   14.3544  -23.0425 N.2       2 ALA2        0.0000 
     54 OG          8.4169   15.7355  -23.5793 O.2       1 SER1        0.0000 
     55 CZ          8.1836   17.1165  -24.1160 C.ar      5 PHE5        0.0000 
     56 CA          8.6875   12.4059  -23.8803 C.3       6 GLY6        0.0000 
     57 O           8.4542   13.7870  -24.4171 O.2       2 ALA2        0.0000 
     58 O           8.2208   15.1680  -24.9539 O.2       2 ALA2        0.0000 
     59 NZ          7.9874   16.5491  -25.4907 N.2       4 LYS4        0.0000 
     60 N           8.2580   13.2196  -25.7917 N.2       2 ALA2        0.0000 
     61 CA          7.7329   17.8614  -17.8119 C.3       6 GLY6        0.0000 
     62 CZ          7.7701   15.9129  -18.6498 C.ar      5 PHE5        0.0000 
     63 CA          7.5367   17.2940  -19.1865 C.3       6 GLY6        0.0000 
     64 CA          7.3034   18.6751  -19.7233 C.3       6 GLY6        0.0000 
     65 CZ          7.8073   13.9644  -19.4876 C.ar      5 PHE5        0.0000 
     66 CZ          7.5740   15.3455  -20.0244 C.ar      5 PHE5        0.0000 
     67 CA          7.3406   16.7266  -20.5611 C.3       6 GLY6        0.0000 
     68 CA          7.1072   18.1077  -21.0979 C.3       6 GLY6        0.0000 
     69 N           7.6112   13.3970  -20.8622 N.2       2 ALA2        0.0000 
     70 CA          7.3778   14.7781  -21.3990 C.3       6 GLY6        0.0000 
     71 CA          7.1444   16.1592  -21.9358 C.3       6 GLY6        0.0000 
     72 N           7.4150   12.8296  -22.2368 N.2       2 ALA2        0.0000 
     73 OD1         7.1816   14.2107  -22.7736 O.3       3 ASP3        0.0000 
     74 OD1         6.9482   15.5918  -23.3104 O.3       3 ASP3        0.0000 
     75 NZ          6.7149   16.9729  -23.8471 N.2       4 LYS4        0.0000 
     76 OD1         6.9855   13.6433  -24.1482 O.3       3 ASP3        0.0000 
     77 CZ          6.3014   15.7692  -18.3809 C.ar      5 PHE5        0.0000 
     78 N           6.0681   17.1503  -18.9176 N.2       2 ALA2        0.0000 
     79 CZ          6.3386   13.8207  -19.2187 C.ar      5 PHE5        0.0000 
     80 N           6.1053   15.2018  -19.7555 N.2       2 ALA2        0.0000 
     81 CA          6.1425   13.2533  -20.5933 C.3       6 GLY6        0.0000 
     82 O           5.9091   14.6344  -21.1301 O.2       2 ALA2        0.0000 
     83 N           5.9463   12.6859  -21.9679 N.2       2 ALA2        0.0000 
     84 OD1         5.7129   14.0670  -22.5047 O.3       3 ASP3        0.0000 
@<TRIPOS>BOND
@<TRIPOS>SUBSTRUCTURE
     1 SER1       16 GROUP   
     2 ALA2       24 GROUP   
     3 ASP3       73 GROUP   
     4 LYS4       59 GROUP   
     5 PHE5        2 GROUP   
     6 GLY6        1 GROUP   
     7 CUB7        9 GROUP   
@<TRIPOS>SET

