#    Name: 3sfh_1DI_1_INTS_M
#    Modification time : Tue Mar 25 12:33:36 2014

@<TRIPOS>MOLECULE
3sfh_1DI_1_INTS_M
   53     0     6     0     0
SMALL
NO_CHARGES


@<TRIPOS>ATOM
      1 Zn          5.1975   14.1550  -24.2335 Zn        1 ZIC7        0.0000 
      2 Zn          5.5700   13.6050  -23.3180 Zn        5 ZIL7        0.0000 
      3 Zn          4.8250   14.7050  -25.1490 Zn        3 ZIP7        0.0000 
      4 CA          5.5045   11.7835  -22.9000 C.3       2 GLC5        0.0000 
      5 CA          7.0170   13.2910  -23.3000 C.3       6 GLL5        0.0000 
      6 CA          3.9920   10.2760  -22.5000 C.3       4 GLP5        0.0000 
      7 CA         10.0055   14.0440  -20.2125 C.3       2 GLC5        0.0000 
      8 CA          8.2980   15.2690  -20.6970 C.3       6 GLL5        0.0000 
      9 CA         11.7130   12.8190  -19.7280 C.3       4 GLP5        0.0000 
     10 CA          7.1180   18.6810  -16.6070 C.3       2 GLC5        0.0000 
     11 CA          6.6460   17.7860  -17.9390 C.3       6 GLL5        0.0000 
     12 CA          7.5900   19.5760  -15.2750 C.3       4 GLP5        0.0000 
     13 CA          7.3400   16.3005  -17.0430 C.3       2 GLC5        0.0000 
     14 CA          8.0340   14.8150  -16.1470 C.3       4 GLP5        0.0000 
     15 CA          3.7980   15.6140  -19.5410 C.3       2 GLC5        0.0000 
     16 CA          5.8760   15.4320  -19.1430 C.3       6 GLL5        0.0000 
     17 CA          1.7200   15.7960  -19.9390 C.3       4 GLP5        0.0000 
     18 CA          4.4295   11.7770  -19.0285 C.3       2 GLC5        0.0000 
     19 CA          4.7600   13.1270  -20.1140 C.3       6 GLL5        0.0000 
     20 CA          4.0990   10.4270  -17.9430 C.3       4 GLP5        0.0000 
     21 CA          4.3760   11.7015  -21.3070 C.3       2 GLC5        0.0000 
     22 CA          6.0390   11.5520  -19.7895 C.3       2 GLC5        0.0000 
     23 CA          7.3180    9.9770  -19.4650 C.3       4 GLP5        0.0000 
     24 CA          3.2400   14.4615  -20.0265 C.3       2 GLC5        0.0000 
     25 CA          8.5595   11.3195  -24.1360 C.3       2 GLC5        0.0000 
     26 CA          9.7200   12.7590  -24.7040 C.3       6 GLL5        0.0000 
     27 CA          7.3990    9.8800  -23.5680 C.3       4 GLP5        0.0000 
     28 CA         11.0580   13.1260  -23.3785 C.3       2 GLC5        0.0000 
     29 CA         12.3960   13.4930  -22.0530 C.3       4 GLP5        0.0000 
     30 CA          8.4985   12.8775  -26.5530 C.3       2 GLC5        0.0000 
     31 CA          7.2770   12.9960  -28.4020 C.3       4 GLP5        0.0000 
     32 CA          9.5780   11.2405  -26.0165 C.3       2 GLC5        0.0000 
     33 CA          9.4360    9.7220  -27.3290 C.3       4 GLP5        0.0000 
     34 CA         11.4285   10.9025  -24.3910 C.3       2 GLC5        0.0000 
     35 CA         11.8820   12.0660  -26.0890 C.3       6 GLL5        0.0000 
     36 CA         10.9750    9.7390  -22.6930 C.3       4 GLP5        0.0000 
     37 CA         11.6475   14.5760  -24.0970 C.3       2 GLC5        0.0000 
     38 CA          9.9540   15.2270  -25.2190 C.3       6 GLL5        0.0000 
     39 CA         13.3410   13.9250  -22.9750 C.3       4 GLP5        0.0000 
     40 CA          9.5280   16.5610  -26.8585 C.3       2 GLC5        0.0000 
     41 CA          9.1020   17.8950  -28.4980 C.3       4 GLP5        0.0000 
     42 CA         10.4210   17.1255  -24.4430 C.3       2 GLC5        0.0000 
     43 CA         10.8880   19.0240  -23.6670 C.3       4 GLP5        0.0000 
     44 CA          7.3420   11.5285  -23.0667 C.3       2 GLC5        0.0000 
     45 CA          7.3682   11.8105  -20.3997 C.3       2 GLC5        0.0000 
     46 CA          7.5530   13.0630  -21.8310 C.3       6 GLL5        0.0000 
     47 CA          5.9787   16.8667  -20.7345 C.3       2 GLC5        0.0000 
     48 CA          6.8900   16.4540  -19.0240 C.3       6 GLL5        0.0000 
     49 CA          4.4620   17.3200  -22.0580 C.3       4 GLP5        0.0000 
     50 CA          5.3671   16.0858  -20.9243 C.3       2 GLC5        0.0000 
     51 CA         10.6508   11.3150  -23.9163 C.3       2 GLC5        0.0000 
     52 CA         11.5192   11.4365  -27.9320 C.3       2 GLC5        0.0000 
     53 CA         10.6080   10.5720  -29.3630 C.3       4 GLP5        0.0000 
@<TRIPOS>BOND
@<TRIPOS>SUBSTRUCTURE
     1 ZIC7        1 GROUP        1 X    ZIC  0     ROOT ZIC X 5
     2 GLC5        4 GROUP        1 X    GLC  0     **** GLC X 6
     3 ZIP7        3 GROUP        1 Y    ZIP  0     ROOT ZIP Y 12
     4 GLP5        6 GROUP        1 Y    GLP  0     **** GLP Y 13
     5 ZIL7        2 GROUP        1 Z    ZIL  0     ROOT ZIL Z 19
     6 GLL5        5 GROUP        1 Z    GLL  0     **** GLL Z 20
@<TRIPOS>SET

