#    Name: 3sfh_1DI_1_ligand
#    Modification time : Tue Mar 25 12:33:36 2014

@<TRIPOS>MOLECULE
3sfh_1DI_1_ligand
   38    40     1     0     0
SMALL
NO_CHARGES


@<TRIPOS>ATOM
      1 N1          5.5700   13.6050  -23.3180 N.3       1 1DI501      0.0000 
      2 C2          7.0170   13.2910  -23.3000 C.3       1 1DI501      0.0000 
      3 C3          7.5530   13.0630  -21.8310 C.3       1 1DI501      0.0000 
      4 C4          7.2840   14.2250  -20.8380 C.ar      1 1DI501      0.0000 
      5 C5          8.2980   15.2690  -20.6970 C.ar      1 1DI501      0.0000 
      6 C6          8.1010   16.3730  -19.7980 C.ar      1 1DI501      0.0000 
      7 C7          6.8900   16.4540  -19.0240 C.ar      1 1DI501      0.0000 
      8 CL8         6.6460   17.7860  -17.9390 Cl        1 1DI501      0.0000 
      9 C9          5.8760   15.4320  -19.1430 C.ar      1 1DI501      0.0000 
     10 C10         6.0530   14.3170  -20.0380 C.ar      1 1DI501      0.0000 
     11 CL11        4.7600   13.1270  -20.1140 Cl        1 1DI501      0.0000 
     12 C12         7.8940   14.3550  -24.0070 C.2       1 1DI501      0.0000 
     13 O13         7.4220   15.4900  -23.9730 O.2       1 1DI501      0.0000 
     14 N14         9.1370   14.1280  -24.6390 N.am      1 1DI501      0.0000 
     15 C15         9.7200   12.7590  -24.7040 C.3       1 1DI501      0.0000 
     16 C16        10.9330   13.0230  -25.5750 C.ar      1 1DI501      0.0000 
     17 C17        11.8820   12.0660  -26.0890 C.ar      1 1DI501      0.0000 
     18 C18        12.9790   12.5360  -26.9130 C.ar      1 1DI501      0.0000 
     19 C19        13.1170   13.9480  -27.2150 C.ar      1 1DI501      0.0000 
     20 C20        12.1560   14.9040  -26.6920 C.ar      1 1DI501      0.0000 
     21 C21        11.0650   14.4180  -25.8690 C.ar      1 1DI501      0.0000 
     22 C22         9.9540   15.2270  -25.2190 C.3       1 1DI501      0.0000 
     23 H           7.1928   12.3339  -23.8274 H         1 1DI501      0.0000 
     24 H           8.6373   12.8847  -21.8897 H         1 1DI501      0.0000 
     25 H           7.0917   12.1433  -21.4408 H         1 1DI501      0.0000 
     26 H           9.1493   15.2035  -21.2464 H         1 1DI501      0.0000 
     27 H           8.8079   17.0887  -19.7091 H         1 1DI501      0.0000 
     28 H           5.0272   15.5020  -18.5873 H         1 1DI501      0.0000 
     29 H           9.0664   12.0970  -25.1971 H         1 1DI501      0.0000 
     30 H          10.0308   12.4390  -23.7503 H         1 1DI501      0.0000 
     31 H          11.7877   11.0896  -25.8817 H         1 1DI501      0.0000 
     32 H          13.6516   11.8757  -27.2791 H         1 1DI501      0.0000 
     33 H          13.8822   14.2683  -27.7898 H         1 1DI501      0.0000 
     34 H          12.2459   15.8777  -26.8961 H         1 1DI501      0.0000 
     35 H          10.3579   15.8353  -24.4616 H         1 1DI501      0.0000 
     36 H           9.4157   15.7451  -25.9597 H         1 1DI501      0.0000 
     37 H           5.2832   14.0825  -22.4875 H         1 1DI501      0.0000 
     38 H           5.0115   12.7785  -23.3886 H         1 1DI501      0.0000 
@<TRIPOS>BOND
     1    2    1 1    
     2   37    1 1    
     3   38    1 1    
     4    3    2 1    
     5   12    2 1    
     6   23    2 1    
     7    4    3 1    
     8   24    3 1    
     9   25    3 1    
    10    5    4 ar   
    11   10    4 ar   
    12    6    5 ar   
    13   26    5 1    
    14    7    6 ar   
    15   27    6 1    
    16    8    7 1    
    17    9    7 ar   
    18   10    9 ar   
    19   28    9 1    
    20   11   10 1    
    21   13   12 2    
    22   14   12 am   
    23   15   14 1    
    24   22   14 1    
    25   16   15 1    
    26   29   15 1    
    27   30   15 1    
    28   17   16 ar   
    29   21   16 ar   
    30   18   17 ar   
    31   31   17 1    
    32   19   18 ar   
    33   32   18 1    
    34   20   19 ar   
    35   33   19 1    
    36   21   20 ar   
    37   34   20 1    
    38   22   21 1    
    39   35   22 1    
    40   36   22 1    
@<TRIPOS>SUBSTRUCTURE
     1 1DI501      1 GROUP   
@<TRIPOS>SET

