#    Name: 3f1k_NAP_1_INTS_M
#    Modification time : Tue Mar 25 03:04:02 2014

@<TRIPOS>MOLECULE
3f1k_NAP_1_INTS_M
   80     0    12     0     0
SMALL
NO_CHARGES


@<TRIPOS>ATOM
      1 CA         32.8965   26.0640   33.4590 C.3       4 GLC5        0.0000 
      2 CA         34.7420   25.3890   34.3710 C.3      12 GLL5        0.0000 
      3 CA         31.0510   26.7390   32.5470 C.3       8 GLP5        0.0000 
      4 N          32.3770   26.6920   34.7485 N.am      2 SEC2        0.0000 
      5 N          33.9630   26.5670   34.5300 N.am     10 SEL2        0.0000 
      6 N          30.7910   26.8170   34.9670 N.am      6 SEP2        0.0000 
      7 CA         37.8205   24.4215   33.8640 C.3       4 GLC5        0.0000 
      8 CA         36.2090   25.8150   34.2360 C.3      12 GLL5        0.0000 
      9 CA         39.4320   23.0280   33.4920 C.3       8 GLP5        0.0000 
     10 CA         34.5000   26.8450   32.2100 C.3       4 GLC5        0.0000 
     11 CA         34.7180   27.6550   34.0490 C.3      12 GLL5        0.0000 
     12 CA         34.2820   26.0350   30.3710 C.3       8 GLP5        0.0000 
     13 CA         32.9915   27.8980   33.0030 C.3       4 GLC5        0.0000 
     14 CA         31.2650   28.1410   31.9570 C.3       8 GLP5        0.0000 
     15 CA         32.1085   32.9960   33.6960 C.3       4 GLC5        0.0000 
     16 CA         33.8590   32.4120   34.4360 C.3      12 GLL5        0.0000 
     17 CA         30.3580   33.5800   32.9560 C.3       8 GLP5        0.0000 
     18 O          34.1180   34.5650   34.7745 O.2       1 ALC1        0.0000 
     19 O          33.6010   33.3730   35.3180 O.2       9 ALL1        0.0000 
     20 O          34.6350   35.7570   34.2310 O.2       5 ALP1        0.0000 
     21 N          33.1145   33.8650   32.7845 N.am      2 SEC2        0.0000 
     22 N          33.9730   32.6860   33.0790 N.am     10 SEL2        0.0000 
     23 N          32.2560   35.0440   32.4900 N.am      6 SEP2        0.0000 
     24 CA         35.4950   31.0500   30.4070 C.3       4 GLC5        0.0000 
     25 CA         34.2450   31.6780   32.1670 C.3      12 GLL5        0.0000 
     26 CA         36.7450   30.4220   28.6470 C.3       8 GLP5        0.0000 
     27 CA         36.2165   32.1150   32.5995 C.3       4 GLC5        0.0000 
     28 CA         38.1880   32.5520   33.0320 C.3       8 GLP5        0.0000 
     29 CA         34.2600   33.8505   31.8840 C.3       4 GLC5        0.0000 
     30 CA         34.2750   36.0230   31.6010 C.3       8 GLP5        0.0000 
     31 CA         32.3085   32.2270   31.9175 C.3       4 GLC5        0.0000 
     32 CA         30.3720   32.7760   31.6680 C.3       8 GLP5        0.0000 
     33 CA         32.7790   29.1265   32.9550 C.3       4 GLC5        0.0000 
     34 CA         34.2930   30.1120   33.9530 C.3      12 GLL5        0.0000 
     35 N          34.7445   18.8915   37.8165 N.am      2 SEC2        0.0000 
     36 N          34.0230   19.7440   36.9660 N.am     10 SEL2        0.0000 
     37 N          35.4660   18.0390   38.6670 N.am      6 SEP2        0.0000 
     38 N          34.5885   19.4155   33.5560 N.am      2 SEC2        0.0000 
     39 N          34.1150   20.0700   34.3650 N.am     10 SEL2        0.0000 
     40 N          35.0620   18.7610   32.7470 N.am      6 SEP2        0.0000 
     41 CA         32.1720   19.7090   33.5175 C.3       4 GLC5        0.0000 
     42 CA         31.5800   21.4260   34.6090 C.3      12 GLL5        0.0000 
     43 CA         32.7640   17.9920   32.4260 C.3       8 GLP5        0.0000 
     44 CA         29.8935   24.6845   36.0740 C.3       4 GLC5        0.0000 
     45 CA         29.7360   22.5760   35.9430 C.3      12 GLL5        0.0000 
     46 CA         30.0510   26.7930   36.2050 C.3       8 GLP5        0.0000 
     47 N          27.6740   22.1520   38.8565 N.am      2 SEC2        0.0000 
     48 N          28.1100   22.5250   37.7290 N.am     10 SEL2        0.0000 
     49 N          27.2380   21.7790   39.9840 N.am      6 SEP2        0.0000 
     50 N          26.7465   23.4545   37.1800 N.am      2 SEC2        0.0000 
     51 N          25.3830   24.3840   36.6310 N.am      6 SEP2        0.0000 
     52 CA         28.2715   18.6165   36.1070 C.3       4 GLC5        0.0000 
     53 CA         28.8290   20.4730   36.6210 C.3      12 GLL5        0.0000 
     54 CA         27.7140   16.7600   35.5930 C.3       8 GLP5        0.0000 
     55 CA         30.6955   17.7060   36.0585 C.3       4 GLC5        0.0000 
     56 CA         29.8060   18.4670   37.6680 C.3      12 GLL5        0.0000 
     57 CA         31.5850   16.9450   34.4490 C.3       8 GLP5        0.0000 
     58 N          31.6705   14.7495   39.6890 N.am      2 SEC2        0.0000 
     59 N          31.2920   16.1350   40.1830 N.am     10 SEL2        0.0000 
     60 N          32.0490   13.3640   39.1950 N.am      6 SEP2        0.0000 
     61 NZ         38.1590   30.4215   35.3525 N.4       3 LYC4        0.0000 
     62 NZ         38.5500   29.0460   35.3930 N.4      11 LYL4        0.0000 
     63 NZ         37.4250   31.8100   36.5950 N.4       7 LYP4        0.0000 
     64 N          38.1590   30.4215   35.3525 N.am      2 SEC2        0.0000 
     65 N          38.5500   29.0460   35.3930 N.am     10 SEL2        0.0000 
     66 N          37.7680   31.7970   35.3120 N.am      6 SEP2        0.0000 
     67 N          37.9495   29.8530   36.3280 N.am      2 SEC2        0.0000 
     68 N          37.3490   30.6600   37.2630 N.am      6 SEP2        0.0000 
     69 CA         34.8787   25.8185   32.3372 C.3       4 GLC5        0.0000 
     70 CA         35.9080   32.3702   34.5620 C.3       4 GLC5        0.0000 
     71 CA         34.0190   31.1090   34.8820 C.3      12 GLL5        0.0000 
     72 CA         37.8770   32.9800   34.4650 C.3       8 GLP5        0.0000 
     73 CA         28.7640   17.3590   36.8678 C.3       4 GLC5        0.0000 
     74 CA         25.9263   19.1725   39.4623 C.3       4 GLC5        0.0000 
     75 CA         27.7520   18.3280   39.5170 C.3      12 GLL5        0.0000 
     76 CA         24.0880   19.5120   39.8890 C.3       8 GLP5        0.0000 
     77 CA         27.8675   17.6784   37.3174 C.3       4 GLC5        0.0000 
     78 CA         27.7770   19.3380   38.5540 C.3      12 GLL5        0.0000 
     79 CA         28.1429   21.2030   35.1039 C.3       4 GLC5        0.0000 
     80 CA         26.8150   20.8210   34.0310 C.3       8 GLP5        0.0000 
@<TRIPOS>BOND
@<TRIPOS>SUBSTRUCTURE
     1 ALC1       18 GROUP        1 X    ALC  0     ROOT ALC X 1
     2 SEC2        4 GROUP        1 X    SEC  0     **** SEC X 2
     3 LYC4       61 GROUP        1 X    LYC  0     **** LYC X 4
     4 GLC5        1 GROUP        1 X    GLC  0     **** GLC X 6
     5 ALP1       20 GROUP        1 Y    ALP  0     ROOT ALP Y 8
     6 SEP2        6 GROUP        1 Y    SEP  0     **** SEP Y 9
     7 LYP4       63 GROUP        1 Y    LYP  0     **** LYP Y 11
     8 GLP5        3 GROUP        1 Y    GLP  0     **** GLP Y 13
     9 ALL1       19 GROUP        1 Z    ALL  0     ROOT ALL Z 15
    10 SEL2        5 GROUP        1 Z    SEL  0     **** SEL Z 16
    11 LYL4       62 GROUP        1 Z    LYL  0     **** LYL Z 18
    12 GLL5        2 GROUP        1 Z    GLL  0     **** GLL Z 20
@<TRIPOS>SET

