#    Name: 3f1k_NAP_1_ligand
#    Modification time : Tue Mar 25 03:04:02 2014

@<TRIPOS>MOLECULE
3f1k_NAP_1_ligand
   73    77     1     0     0
SMALL
NO_CHARGES


@<TRIPOS>ATOM
      1 PA         35.9710   22.4720   36.4160 P.3       1 NAP300      0.0000 
      2 O1A        36.1600   22.1700   37.8550 O.co2     1 NAP300      0.0000 
      3 O2A        37.0690   21.9290   35.5830 O.co2     1 NAP300      0.0000 
      4 O5B        35.7130   24.0460   36.1850 O.3       1 NAP300      0.0000 
      5 C5B        34.5040   24.4450   35.5510 C.3       1 NAP300      0.0000 
      6 C4B        34.7420   25.3890   34.3710 C.3       1 NAP300      0.0000 
      7 O4B        33.9630   26.5670   34.5300 O.3       1 NAP300      0.0000 
      8 C3B        36.2090   25.8150   34.2360 C.3       1 NAP300      0.0000 
      9 O3B        36.7780   25.4300   32.9940 O.3       1 NAP300      0.0000 
     10 C2B        36.1780   27.3270   34.3760 C.3       1 NAP300      0.0000 
     11 O2B        37.1180   27.9780   33.5260 O.3       1 NAP300      0.0000 
     12 C1B        34.7180   27.6550   34.0490 C.3       1 NAP300      0.0000 
     13 N9A        34.3960   28.9470   34.6630 N.pl3     1 NAP300      0.0000 
     14 C8A        34.2080   29.2250   35.9940 C.2       1 NAP300      0.0000 
     15 N7A        33.9700   30.5490   36.1170 N.2       1 NAP300      0.0000 
     16 C5A        34.0190   31.1090   34.8820 C.ar      1 NAP300      0.0000 
     17 C6A        33.8590   32.4120   34.4360 C.ar      1 NAP300      0.0000 
     18 N6A        33.6010   33.3730   35.3180 N.pl3     1 NAP300      0.0000 
     19 N1A        33.9730   32.6860   33.0790 N.ar      1 NAP300      0.0000 
     20 C2A        34.2450   31.6780   32.1670 C.ar      1 NAP300      0.0000 
     21 N3A        34.4050   30.3820   32.6210 N.ar      1 NAP300      0.0000 
     22 C4A        34.2930   30.1120   33.9530 C.ar      1 NAP300      0.0000 
     23 O3         34.5470   21.9620   35.8780 O.3       1 NAP300      0.0000 
     24 PN         33.8080   20.5470   35.7330 P.3       1 NAP300      0.0000 
     25 O1N        34.0230   19.7440   36.9660 O.co2     1 NAP300      0.0000 
     26 O2N        34.1150   20.0700   34.3650 O.co2     1 NAP300      0.0000 
     27 O5D        32.2810   21.0450   35.7710 O.3       1 NAP300      0.0000 
     28 C5D        31.5800   21.4260   34.6090 C.3       1 NAP300      0.0000 
     29 C4D        30.1080   21.4460   34.9740 C.3       1 NAP300      0.0000 
     30 O4D        29.8390   20.2450   35.6600 O.3       1 NAP300      0.0000 
     31 C3D        29.7360   22.5760   35.9430 C.3       1 NAP300      0.0000 
     32 O3D        28.7460   23.4330   35.3890 O.3       1 NAP300      0.0000 
     33 C2D        29.2100   21.8450   37.1690 C.3       1 NAP300      0.0000 
     34 O2D        28.1100   22.5250   37.7290 O.3       1 NAP300      0.0000 
     35 C1D        28.8290   20.4730   36.6210 C.3       1 NAP300      0.0000 
     36 N1N        28.8070   19.4060   37.6470 N.pl3     1 NAP300      0.0000 
     37 C2N        29.8060   18.4670   37.6680 C.ar      1 NAP300      0.0000 
     38 C3N        29.8220   17.4490   38.6170 C.ar      1 NAP300      0.0000 
     39 C7N        31.1480   16.8200   38.9570 C.2       1 NAP300      0.0000 
     40 O7N        31.2920   16.1350   40.1830 O.2       1 NAP300      0.0000 
     41 N7N        32.1590   16.9230   38.0950 N.am      1 NAP300      0.0000 
     42 C4N        28.7780   17.3830   39.5420 C.ar      1 NAP300      0.0000 
     43 C5N        27.7520   18.3280   39.5170 C.ar      1 NAP300      0.0000 
     44 C6N        27.7770   19.3380   38.5540 C.ar      1 NAP300      0.0000 
     45 P2B        38.6170   28.3860   34.0300 P.3       1 NAP300      0.0000 
     46 O1X        39.2100   29.3850   33.0610 O.co2     1 NAP300      0.0000 
     47 O2X        39.5130   27.1570   34.0930 O.co2     1 NAP300      0.0000 
     48 O3X        38.5500   29.0460   35.3930 O.co2     1 NAP300      0.0000 
     49 H          33.8252   24.9645   36.2572 H         1 NAP300      0.0000 
     50 H          33.9379   23.5726   35.1664 H         1 NAP300      0.0000 
     51 H          34.4635   24.8720   33.4579 H         1 NAP300      0.0000 
     52 H          36.7388   25.4221   35.0845 H         1 NAP300      0.0000 
     53 H          36.3216   27.5493   35.4233 H         1 NAP300      0.0000 
     54 H          34.6648   27.7297   32.9697 H         1 NAP300      0.0000 
     55 H          34.2423   28.5815   36.7042 H         1 NAP300      0.0000 
     56 H          32.7527   33.2762   35.8386 H         1 NAP300      0.0000 
     57 H          34.2785   34.1058   35.3811 H         1 NAP300      0.0000 
     58 H          34.3262   31.8928   31.1681 H         1 NAP300      0.0000 
     59 H          31.7146   20.7191   33.7936 H         1 NAP300      0.0000 
     60 H          31.8551   22.4209   34.2669 H         1 NAP300      0.0000 
     61 H          29.5172   21.5323   34.0955 H         1 NAP300      0.0000 
     62 H          30.6345   23.0786   36.2169 H         1 NAP300      0.0000 
     63 H          30.0288   21.7124   37.8420 H         1 NAP300      0.0000 
     64 H          27.8735   20.5735   36.1408 H         1 NAP300      0.0000 
     65 H          30.5714   18.5086   36.9643 H         1 NAP300      0.0000 
     66 H          33.0248   16.5125   38.3811 H         1 NAP300      0.0000 
     67 H          31.9609   17.4016   37.2396 H         1 NAP300      0.0000 
     68 H          28.7659   16.6324   40.2463 H         1 NAP300      0.0000 
     69 H          26.9902   18.2815   40.1963 H         1 NAP300      0.0000 
     70 H          27.0136   20.0326   38.5310 H         1 NAP300      0.0000 
     71 H          37.0672   26.2860   32.5656 H         1 NAP300      0.0000 
     72 H          27.9674   23.3661   36.0129 H         1 NAP300      0.0000 
     73 H          28.5089   23.2903   38.2343 H         1 NAP300      0.0000 
@<TRIPOS>BOND
     1    2    1 ar   
     2    3    1 ar   
     3    4    1 1    
     4   23    1 1    
     5    5    4 1    
     6    6    5 1    
     7   49    5 1    
     8   50    5 1    
     9    7    6 1    
    10    8    6 1    
    11   51    6 1    
    12   12    7 1    
    13    9    8 1    
    14   10    8 1    
    15   52    8 1    
    16   71    9 1    
    17   11   10 1    
    18   12   10 1    
    19   53   10 1    
    20   45   11 1    
    21   13   12 1    
    22   54   12 1    
    23   14   13 1    
    24   22   13 1    
    25   15   14 2    
    26   55   14 1    
    27   16   15 1    
    28   17   16 ar   
    29   22   16 ar   
    30   18   17 1    
    31   19   17 ar   
    32   56   18 1    
    33   57   18 1    
    34   20   19 ar   
    35   21   20 ar   
    36   58   20 1    
    37   22   21 ar   
    38   24   23 1    
    39   25   24 ar   
    40   26   24 ar   
    41   27   24 1    
    42   28   27 1    
    43   29   28 1    
    44   59   28 1    
    45   60   28 1    
    46   30   29 1    
    47   31   29 1    
    48   61   29 1    
    49   35   30 1    
    50   32   31 1    
    51   33   31 1    
    52   62   31 1    
    53   72   32 1    
    54   34   33 1    
    55   35   33 1    
    56   63   33 1    
    57   73   34 1    
    58   36   35 1    
    59   64   35 1    
    60   37   36 ar   
    61   44   36 ar   
    62   38   37 ar   
    63   65   37 1    
    64   39   38 1    
    65   42   38 ar   
    66   40   39 2    
    67   41   39 am   
    68   66   41 1    
    69   67   41 1    
    70   43   42 ar   
    71   68   42 1    
    72   44   43 ar   
    73   69   43 1    
    74   70   44 1    
    75   46   45 ar   
    76   47   45 ar   
    77   48   45 ar   
@<TRIPOS>SUBSTRUCTURE
     1 NAP300      1 GROUP   
@<TRIPOS>SET

