#    Name: 2has_C3O_1_INTS_M
#    Modification time : Tue Mar 25 15:48:18 2014

@<TRIPOS>MOLECULE
2has_C3O_1_INTS_M
  134     0     9     0     0
SMALL
NO_CHARGES


@<TRIPOS>ATOM
      1 CA         17.1720   16.1340   34.7395 C.3       3 GLC5        0.0000 
      2 CA         16.0490   17.5040   33.6220 C.3       9 GLL5        0.0000 
      3 CA         18.2950   14.7640   35.8570 C.3       6 GLP5        0.0000 
      4 CA         17.2140   16.0500   32.7615 C.3       3 GLC5        0.0000 
      5 CA         18.3790   14.5960   31.9010 C.3       6 GLP5        0.0000 
      6 CA         16.6010   18.8380   35.3310 C.3       3 GLC5        0.0000 
      7 CA         17.1530   20.1720   37.0400 C.3       6 GLP5        0.0000 
      8 CA         16.1150   15.8590   35.6800 C.3       3 GLC5        0.0000 
      9 CA         14.9400   16.8190   34.5520 C.3       9 GLL5        0.0000 
     10 CA         17.2900   14.8990   36.8080 C.3       6 GLP5        0.0000 
     11 CA         14.3880   17.6560   37.3515 C.3       3 GLC5        0.0000 
     12 CA         14.1680   17.8870   35.4610 C.3       9 GLL5        0.0000 
     13 CA         14.6080   17.4250   39.2420 C.3       6 GLP5        0.0000 
     14 CA         15.6605   19.0295   36.2505 C.3       3 GLC5        0.0000 
     15 CA         12.5190   18.1300   32.8740 C.3       3 GLC5        0.0000 
     16 CA         13.5430   18.9980   34.5330 C.3       9 GLL5        0.0000 
     17 CA         11.4950   17.2620   31.2150 C.3       6 GLP5        0.0000 
     18 CA         15.6355   24.1755   33.8840 C.3       3 GLC5        0.0000 
     19 CA         13.8810   23.3360   33.6010 C.3       9 GLL5        0.0000 
     20 CA         17.3900   25.0150   34.1670 C.3       6 GLP5        0.0000 
     21 CA         15.0765   25.3325   34.5685 C.3       3 GLC5        0.0000 
     22 CA         13.1770   24.4520   34.3730 C.3       9 GLL5        0.0000 
     23 CA         16.9760   26.2130   34.7640 C.3       6 GLP5        0.0000 
     24 CA         10.8085   25.3865   30.4070 C.3       3 GLC5        0.0000 
     25 CA         12.1250   25.3610   32.2000 C.3       9 GLL5        0.0000 
     26 CA          9.4920   25.4120   28.6140 C.3       6 GLP5        0.0000 
     27 CA         11.7810   23.7940   29.9255 C.3       3 GLC5        0.0000 
     28 CA         13.1140   24.4820   31.3610 C.3       9 GLL5        0.0000 
     29 CA         10.4480   23.1060   28.4900 C.3       6 GLP5        0.0000 
     30 CA         15.1365   25.2125   31.6500 C.3       3 GLC5        0.0000 
     31 CA         17.1590   25.9430   31.9390 C.3       6 GLP5        0.0000 
     32 CA         15.8650   24.3075   32.4570 C.3       3 GLC5        0.0000 
     33 CA         14.2430   23.7560   32.1500 C.3       9 GLL5        0.0000 
     34 CA         17.4870   24.8590   32.7640 C.3       6 GLP5        0.0000 
     35 CA          9.7765   24.7485   37.4925 C.3       3 GLC5        0.0000 
     36 CA         11.4770   25.1570   36.0780 C.3       9 GLL5        0.0000 
     37 CA          8.0760   24.3400   38.9070 C.3       6 GLP5        0.0000 
     38 CA         11.5190   18.9675   32.8775 C.3       3 GLC5        0.0000 
     39 CA         12.1980   19.2970   34.5610 C.3       9 GLL5        0.0000 
     40 CA         10.8400   18.6380   31.1940 C.3       6 GLP5        0.0000 
     41 CA         11.0260   17.9105   35.3900 C.3       3 GLC5        0.0000 
     42 CA          9.8540   16.5240   36.2190 C.3       6 GLP5        0.0000 
     43 N          17.8695   16.9420   34.7730 N.am      2 SEC2        0.0000 
     44 N          17.0720   18.0300   34.4380 N.am      8 SEL2        0.0000 
     45 N          18.6670   15.8540   35.1080 N.am      5 SEP2        0.0000 
     46 O          17.9120   18.8495   33.7300 O.2       1 ALC1        0.0000 
     47 O          17.0720   18.0300   34.4380 O.2       7 ALL1        0.0000 
     48 O          18.7520   19.6690   33.0220 O.2       4 ALP1        0.0000 
     49 N          13.2335   15.9605   36.8625 N.am      2 SEC2        0.0000 
     50 N          13.1720   17.1980   36.1840 N.am      8 SEL2        0.0000 
     51 N          13.2950   14.7230   37.5410 N.am      5 SEP2        0.0000 
     52 O          11.9160   16.8495   35.6190 O.2       1 ALC1        0.0000 
     53 O          13.1720   17.1980   36.1840 O.2       7 ALL1        0.0000 
     54 O          10.6600   16.5010   35.0540 O.2       4 ALP1        0.0000 
     55 CA          8.3380   25.0360   36.9855 C.3       3 GLC5        0.0000 
     56 CA          8.6000   25.7320   35.0640 C.3       9 GLL5        0.0000 
     57 CA          9.3285   22.5710   33.7430 C.3       3 GLC5        0.0000 
     58 CA         10.7950   23.5730   33.4770 C.3       9 GLL5        0.0000 
     59 CA          7.8620   21.5690   34.0090 C.3       6 GLP5        0.0000 
     60 CA          8.2215   28.7220   33.9905 C.3       3 GLC5        0.0000 
     61 CA          9.7360   27.9390   35.1870 C.3       9 GLL5        0.0000 
     62 CA          6.7070   29.5050   32.7940 C.3       6 GLP5        0.0000 
     63 CA          9.3490   29.5125   35.9055 C.3       3 GLC5        0.0000 
     64 CA          8.9620   31.0860   36.6240 C.3       6 GLP5        0.0000 
     65 CA         11.8840   28.0855   35.7625 C.3       3 GLC5        0.0000 
     66 CA         14.0320   28.2320   36.3380 C.3       6 GLP5        0.0000 
     67 CA          8.0285   28.0010   36.3980 C.3       3 GLC5        0.0000 
     68 CA          6.3210   28.0630   37.6090 C.3       6 GLP5        0.0000 
     69 CA          7.0625   27.6445   33.4395 C.3       3 GLC5        0.0000 
     70 CA          7.4180   25.7840   34.0850 C.3       9 GLL5        0.0000 
     71 N           5.1520   27.9025   34.2285 N.am      2 SEC2        0.0000 
     72 N           4.4930   26.7890   34.7420 N.am      8 SEL2        0.0000 
     73 N           5.8110   29.0160   33.7150 N.am      5 SEP2        0.0000 
     74 N           4.9280   26.9575   36.0230 N.am      2 SEC2        0.0000 
     75 N           5.3630   27.1260   37.3040 N.am      5 SEP2        0.0000 
     76 CA          2.2380   25.7810   35.3770 C.3       3 GLC5        0.0000 
     77 CA          3.6620   24.5280   34.6220 C.3       9 GLL5        0.0000 
     78 CA          0.8140   27.0340   36.1320 C.3       6 GLP5        0.0000 
     79 CA          2.2600   23.2780   34.7850 C.3       3 GLC5        0.0000 
     80 CA          0.8580   22.0280   34.9480 C.3       6 GLP5        0.0000 
     81 CA          3.5360   23.5720   36.5150 C.3       3 GLC5        0.0000 
     82 CA          3.4100   22.6160   38.4080 C.3       6 GLP5        0.0000 
     83 CA          3.9220   25.7355   30.9650 C.3       3 GLC5        0.0000 
     84 CA          4.6320   25.6540   32.5900 C.3       9 GLL5        0.0000 
     85 CA          3.2120   25.8170   29.3400 C.3       6 GLP5        0.0000 
     86 CA          5.6695   27.5795   32.6920 C.3       3 GLC5        0.0000 
     87 CA          3.2440   27.2805   32.1630 C.3       3 GLC5        0.0000 
     88 CA          1.8560   28.9070   31.7360 C.3       6 GLP5        0.0000 
     89 CA         12.6190   16.0230   32.5320 C.3       3 GLC5        0.0000 
     90 CA         13.7430   14.7840   33.8490 C.3       9 GLL5        0.0000 
     91 CA         17.2540   13.2535   34.7875 C.3       3 GLC5        0.0000 
     92 CA         15.6040   12.9740   33.9250 C.3       9 GLL5        0.0000 
     93 CA         18.9040   13.5330   35.6500 C.3       6 GLP5        0.0000 
     94 CA         16.4335   11.0345   33.9035 C.3       3 GLC5        0.0000 
     95 CA         17.2630    9.0950   33.8820 C.3       6 GLP5        0.0000 
     96 CA         15.1452   20.3220   35.3287 C.3       3 GLC5        0.0000 
     97 CA         14.5740   19.6680   33.5940 C.3       9 GLL5        0.0000 
     98 CA         16.2320   21.3110   36.5940 C.3       6 GLP5        0.0000 
     99 CA         17.7030   18.3788   32.9205 C.3       3 GLC5        0.0000 
    100 CA         15.4150   18.6770   32.7660 C.3       9 GLL5        0.0000 
    101 CA         19.6740   18.6670   32.6470 C.3       6 GLP5        0.0000 
    102 CA         16.4645   18.0947   31.4785 C.3       3 GLC5        0.0000 
    103 CA         17.1970   18.0990   29.7630 C.3       6 GLP5        0.0000 
    104 CA         12.0302   20.0903   36.1300 C.3       3 GLC5        0.0000 
    105 CA         11.1900   21.0330   37.7130 C.3       6 GLP5        0.0000 
    106 CA         13.3439   19.8796   31.9602 C.3       3 GLC5        0.0000 
    107 CA         14.8050   20.9940   33.4390 C.3       9 GLL5        0.0000 
    108 CA         11.7880   19.6760   30.6110 C.3       6 GLP5        0.0000 
    109 CA         16.2825   22.2455   33.7552 C.3       3 GLC5        0.0000 
    110 CA         14.1510   22.1180   34.1040 C.3       9 GLL5        0.0000 
    111 CA         18.0870   22.9350   33.7390 C.3       6 GLP5        0.0000 
    112 CA         15.2058   21.8785   35.1401 C.3       3 GLC5        0.0000 
    113 CA         12.7628   26.6543   31.0158 C.3       3 GLC5        0.0000 
    114 CA         12.9060   28.3870   30.2510 C.3       6 GLP5        0.0000 
    115 CA         14.5397   24.2645   29.9213 C.3       3 GLC5        0.0000 
    116 CA         15.4010   24.4100   28.0870 C.3       6 GLP5        0.0000 
    117 CA         11.6457   22.8657   36.8483 C.3       3 GLC5        0.0000 
    118 CA         12.7260   24.2400   35.8890 C.3       9 GLL5        0.0000 
    119 CA         12.3918   24.9917   38.0933 C.3       3 GLC5        0.0000 
    120 CA         12.6820   25.2850   40.2030 C.3       6 GLP5        0.0000 
    121 CA         10.3290   28.3158   33.0867 C.3       3 GLC5        0.0000 
    122 CA          9.8240   26.5440   34.5340 C.3       9 GLL5        0.0000 
    123 CA         10.8780   29.3900   31.3130 C.3       6 GLP5        0.0000 
    124 CA          7.4810   23.4712   34.2846 C.3       3 GLC5        0.0000 
    125 CA          6.7105   26.7182   36.0846 C.3       3 GLC5        0.0000 
    126 CA          6.1910   24.9890   34.5460 C.3       9 GLL5        0.0000 
    127 CA         14.1333   14.3430   31.4835 C.3       3 GLC5        0.0000 
    128 CA         14.0140   14.3380   29.5170 C.3       6 GLP5        0.0000 
    129 CA         12.6457   13.2105   33.1780 C.3       3 GLC5        0.0000 
    130 CA         14.7620   13.9120   33.0510 C.3       9 GLL5        0.0000 
    131 CA         11.0390   12.0730   32.9060 C.3       6 GLP5        0.0000 
    132 CA         16.3955   13.7355   32.1885 C.3       3 GLC5        0.0000 
    133 CA         17.6080   14.0280   30.8890 C.3       6 GLP5        0.0000 
    134 CA         13.1014   26.5869   35.8014 C.3       3 GLC5        0.0000 
@<TRIPOS>BOND
@<TRIPOS>SUBSTRUCTURE
     1 ALC1       46 GROUP        1 X    ALC  0     ROOT ALC X 1
     2 SEC2       43 GROUP        1 X    SEC  0     **** SEC X 2
     3 GLC5        1 GROUP        1 X    GLC  0     **** GLC X 6
     4 ALP1       48 GROUP        1 Y    ALP  0     ROOT ALP Y 8
     5 SEP2       45 GROUP        1 Y    SEP  0     **** SEP Y 9
     6 GLP5        3 GROUP        1 Y    GLP  0     **** GLP Y 13
     7 ALL1       47 GROUP        1 Z    ALL  0     ROOT ALL Z 15
     8 SEL2       44 GROUP        1 Z    SEL  0     **** SEL Z 16
     9 GLL5        2 GROUP        1 Z    GLL  0     **** GLL Z 20
@<TRIPOS>SET

