#    Name: 2has_C3O_1_ligand
#    Modification time : Tue Mar 25 15:48:18 2014

@<TRIPOS>MOLECULE
2has_C3O_1_ligand
   82    84     1     0     0
SMALL
NO_CHARGES


@<TRIPOS>ATOM
      1 C5         14.5740   19.6680   33.5940 C.2       1 C3O1001     0.0000 
      2 C4         15.4150   18.6770   32.7660 C.3       1 C3O1001     0.0000 
      3 C3         16.0490   17.5040   33.6220 C.3       1 C3O1001     0.0000 
      4 C2         14.9400   16.8190   34.5520 C.3       1 C3O1001     0.0000 
      5 C1         14.1680   17.8870   35.4610 C.3       1 C3O1001     0.0000 
      6 C10        13.5430   18.9980   34.5330 C.2       1 C3O1001     0.0000 
      7 C6         14.8050   20.9940   33.4390 C.2       1 C3O1001     0.0000 
      8 C7         14.1510   22.1180   34.1040 C.2       1 C3O1001     0.0000 
      9 C8         13.8810   23.3360   33.6010 C.2       1 C3O1001     0.0000 
     10 C14        13.1770   24.4520   34.3730 C.3       1 C3O1001     0.0000 
     11 C13        11.7700   24.8440   33.6680 C.3       1 C3O1001     0.0000 
     12 C12        12.1250   25.3610   32.2000 C.3       1 C3O1001     0.0000 
     13 C11        13.1140   24.4820   31.3610 C.3       1 C3O1001     0.0000 
     14 C9         14.2430   23.7560   32.1500 C.3       1 C3O1001     0.0000 
     15 C15        12.7260   24.2400   35.8890 C.3       1 C3O1001     0.0000 
     16 C16        11.4770   25.1570   36.0780 C.3       1 C3O1001     0.0000 
     17 C17        11.3030   25.9180   34.7190 C.3       1 C3O1001     0.0000 
     18 C19        12.1980   19.2970   34.5610 C.2       1 C3O1001     0.0000 
     19 O2         17.0720   18.0300   34.4380 O.3       1 C3O1001     0.0000 
     20 O1         13.1720   17.1980   36.1840 O.3       1 C3O1001     0.0000 
     21 C20         9.8240   26.5440   34.5340 C.3       1 C3O1001     0.0000 
     22 C22         8.6000   25.7320   35.0640 C.3       1 C3O1001     0.0000 
     23 C18        10.7950   23.5730   33.4770 C.3       1 C3O1001     0.0000 
     24 C21         9.7360   27.9390   35.1870 C.3       1 C3O1001     0.0000 
     25 C23         7.4180   25.7840   34.0850 C.3       1 C3O1001     0.0000 
     26 C24         6.1910   24.9890   34.5460 C.3       1 C3O1001     0.0000 
     27 C25         4.7530   25.5270   34.1400 C.3       1 C3O1001     0.0000 
     28 O25         4.4930   26.7890   34.7420 O.3       1 C3O1001     0.0000 
     29 C27         3.6620   24.5280   34.6220 C.3       1 C3O1001     0.0000 
     30 C26         4.6320   25.6540   32.5900 C.3       1 C3O1001     0.0000 
     31 O28        14.0460   16.1520   33.6690 O.3       1 C3O1001     0.0000 
     32 C29        13.7430   14.7840   33.8490 C.3       1 C3O1001     0.0000 
     33 C30        14.7620   13.9120   33.0510 C.3       1 C3O1001     0.0000 
     34 C31        15.6040   12.9740   33.9250 C.3       1 C3O1001     0.0000 
     35 H          16.2329   19.2128   32.2742 H         1 C3O1001     0.0000 
     36 H          14.7893   18.2252   31.9900 H         1 C3O1001     0.0000 
     37 H          16.3988   16.7575   32.9438 H         1 C3O1001     0.0000 
     38 H          15.4537   16.1384   35.1974 H         1 C3O1001     0.0000 
     39 H          14.9032   18.3453   36.0827 H         1 C3O1001     0.0000 
     40 H          15.5723   21.3011   32.7342 H         1 C3O1001     0.0000 
     41 H          13.8642   21.9025   35.1262 H         1 C3O1001     0.0000 
     42 H          13.7436   25.3838   34.3425 H         1 C3O1001     0.0000 
     43 H          12.5462   26.3770   32.2959 H         1 C3O1001     0.0000 
     44 H          11.1775   25.4609   31.6423 H         1 C3O1001     0.0000 
     45 H          13.5806   25.1264   30.5911 H         1 C3O1001     0.0000 
     46 H          12.5223   23.7228   30.8140 H         1 C3O1001     0.0000 
     47 H          14.5399   22.8552   31.5862 H         1 C3O1001     0.0000 
     48 H          15.1260   24.4168   32.1844 H         1 C3O1001     0.0000 
     49 H          13.5077   24.5627   36.5194 H         1 C3O1001     0.0000 
     50 H          12.4531   23.2294   36.0192 H         1 C3O1001     0.0000 
     51 H          11.6672   25.8585   36.8486 H         1 C3O1001     0.0000 
     52 H          10.6218   24.5572   36.2538 H         1 C3O1001     0.0000 
     53 H          12.0326   26.7154   34.7175 H         1 C3O1001     0.0000 
     54 H           9.6726   26.7058   33.4530 H         1 C3O1001     0.0000 
     55 H           8.2974   26.1495   36.0219 H         1 C3O1001     0.0000 
     56 H           8.9076   24.6985   35.2081 H         1 C3O1001     0.0000 
     57 H           7.7482   25.3966   33.1086 H         1 C3O1001     0.0000 
     58 H           7.1267   26.8353   33.9355 H         1 C3O1001     0.0000 
     59 H           6.2065   24.9015   35.6574 H         1 C3O1001     0.0000 
     60 H           6.2683   23.9428   34.1684 H         1 C3O1001     0.0000 
     61 H          12.7465   14.5204   33.4806 H         1 C3O1001     0.0000 
     62 H          13.8120   14.4705   34.8956 H         1 C3O1001     0.0000 
     63 H          15.4287   14.5852   32.4941 H         1 C3O1001     0.0000 
     64 H          14.2034   13.3178   32.3144 H         1 C3O1001     0.0000 
     65 H          11.2122   22.8677   32.9038 H         1 C3O1001     0.0000 
     66 H          10.5685   23.1440   34.3514 H         1 C3O1001     0.0000 
     67 H           9.9310   23.8295   33.0438 H         1 C3O1001     0.0000 
     68 H           9.9261   27.9025   36.1681 H         1 C3O1001     0.0000 
     69 H          10.3908   28.5791   34.7852 H         1 C3O1001     0.0000 
     70 H           8.8275   28.3428   35.0793 H         1 C3O1001     0.0000 
     71 H           3.7808   23.6229   34.2137 H         1 C3O1001     0.0000 
     72 H           3.6818   24.4068   35.6144 H         1 C3O1001     0.0000 
     73 H           2.7421   24.8389   34.3830 H         1 C3O1001     0.0000 
     74 H           5.3107   26.2854   32.2150 H         1 C3O1001     0.0000 
     75 H           4.7664   24.7744   32.1337 H         1 C3O1001     0.0000 
     76 H           3.7325   25.9929   32.3142 H         1 C3O1001     0.0000 
     77 H          16.2461   12.4350   33.3798 H         1 C3O1001     0.0000 
     78 H          16.1435   13.4788   34.5989 H         1 C3O1001     0.0000 
     79 H          15.0341   12.3268   34.4312 H         1 C3O1001     0.0000 
     80 H          17.5472   18.6944   33.8611 H         1 C3O1001     0.0000 
     81 H          12.4201   17.0756   35.5362 H         1 C3O1001     0.0000 
     82 H           3.6775   27.3673   34.7159 H         1 C3O1001     0.0000 
@<TRIPOS>BOND
     1    2    1 1    
     2    6    1 1    
     3    7    1 2    
     4    3    2 1    
     5   35    2 1    
     6   36    2 1    
     7    4    3 1    
     8   19    3 1    
     9   37    3 1    
    10    5    4 1    
    11   31    4 1    
    12   38    4 1    
    13    6    5 1    
    14   20    5 1    
    15   39    5 1    
    16   18    6 2    
    17    8    7 1    
    18   40    7 1    
    19    9    8 2    
    20   41    8 1    
    21   10    9 1    
    22   14    9 1    
    23   11   10 1    
    24   15   10 1    
    25   42   10 1    
    26   12   11 1    
    27   17   11 1    
    28   23   11 1    
    29   13   12 1    
    30   43   12 1    
    31   44   12 1    
    32   14   13 1    
    33   45   13 1    
    34   46   13 1    
    35   47   14 1    
    36   48   14 1    
    37   16   15 1    
    38   49   15 1    
    39   50   15 1    
    40   17   16 1    
    41   51   16 1    
    42   52   16 1    
    43   21   17 1    
    44   53   17 1    
    45   80   19 1    
    46   81   20 1    
    47   22   21 1    
    48   24   21 1    
    49   54   21 1    
    50   25   22 1    
    51   55   22 1    
    52   56   22 1    
    53   65   23 1    
    54   66   23 1    
    55   67   23 1    
    56   68   24 1    
    57   69   24 1    
    58   70   24 1    
    59   26   25 1    
    60   57   25 1    
    61   58   25 1    
    62   27   26 1    
    63   59   26 1    
    64   60   26 1    
    65   28   27 1    
    66   29   27 1    
    67   30   27 1    
    68   82   28 1    
    69   71   29 1    
    70   72   29 1    
    71   73   29 1    
    72   74   30 1    
    73   75   30 1    
    74   76   30 1    
    75   32   31 1    
    76   33   32 1    
    77   61   32 1    
    78   62   32 1    
    79   34   33 1    
    80   63   33 1    
    81   64   33 1    
    82   77   34 1    
    83   78   34 1    
    84   79   34 1    
@<TRIPOS>SUBSTRUCTURE
     1 C3O1001     1 GROUP   
@<TRIPOS>SET

