#    Name: 2pvk_P45_1_INTS_M
#    Modification time : Mon Mar 24 19:25:05 2014

@<TRIPOS>MOLECULE
2pvk_P45_1_INTS_M
   65     0     9     0     0
SMALL
NO_CHARGES


@<TRIPOS>ATOM
      1 N          19.0690   10.7855   20.2920 N.am      2 SEC2        0.0000 
      2 N          20.1200    9.4960   19.7630 N.am      8 SEL2        0.0000 
      3 N          18.0180   12.0750   20.8210 N.am      5 SEP2        0.0000 
      4 CA         19.7645    7.7075   18.3200 C.3       3 GLC5        0.0000 
      5 CA         21.3940    8.8920   18.0260 C.3       9 GLL5        0.0000 
      6 CA         18.1350    6.5230   18.6140 C.3       6 GLP5        0.0000 
      7 CA         20.2475    6.8395   19.5960 C.3       3 GLC5        0.0000 
      8 CA         21.6970    8.0640   19.1720 C.3       9 GLL5        0.0000 
      9 CA         18.7980    5.6150   20.0200 C.3       6 GLP5        0.0000 
     10 N          23.7450    6.5720   18.3540 N.am      2 SEC2        0.0000 
     11 N          22.5530    7.0510   19.3740 N.am      8 SEL2        0.0000 
     12 N          24.9370    6.0930   17.3340 N.am      5 SEP2        0.0000 
     13 O          18.9280    9.1085   22.5195 O.2       1 ALC1        0.0000 
     14 O          20.2110    8.3430   22.4170 O.2       7 ALL1        0.0000 
     15 O          17.6450    9.8740   22.6220 O.2       4 ALP1        0.0000 
     16 CA         21.7310    9.4080   22.7910 C.3       3 GLC5        0.0000 
     17 CA         20.2970    7.9630   23.7220 C.3       9 GLL5        0.0000 
     18 CA         23.1650   10.8530   21.8600 C.3       6 GLP5        0.0000 
     19 CA         17.9285    9.7175   24.6695 C.3       3 GLC5        0.0000 
     20 CA         19.9890    8.9020   24.7120 C.3       9 GLL5        0.0000 
     21 CA         15.8680   10.5330   24.6270 C.3       6 GLP5        0.0000 
     22 CA         18.4365    7.5240   23.8715 C.3       3 GLC5        0.0000 
     23 CA         16.8840    6.1460   23.0310 C.3       6 GLP5        0.0000 
     24 CA         24.1905    6.4035   23.2755 C.3       3 GLC5        0.0000 
     25 CA         23.6170    4.8260   22.0710 C.3       9 GLL5        0.0000 
     26 CA         24.7640    7.9810   24.4800 C.3       6 GLP5        0.0000 
     27 CA         25.2195    4.3055   23.2870 C.3       3 GLC5        0.0000 
     28 CA         26.8220    3.7850   24.5030 C.3       6 GLP5        0.0000 
     29 CA         24.9365    6.2880   21.5415 C.3       3 GLC5        0.0000 
     30 CA         26.2560    7.7500   21.0120 C.3       6 GLP5        0.0000 
     31 CA         23.3500    9.7015   18.0125 C.3       3 GLC5        0.0000 
     32 CA         21.9880    8.8670   16.7230 C.3       9 GLL5        0.0000 
     33 CA         24.7120   10.5360   19.3020 C.3       6 GLP5        0.0000 
     34 CA         20.8520    9.7040   15.3585 C.3       3 GLC5        0.0000 
     35 CA         19.7160   10.5410   13.9940 C.3       6 GLP5        0.0000 
     36 CA         22.6415   10.5780   16.0835 C.3       3 GLC5        0.0000 
     37 CA         23.2950   12.2890   15.4440 C.3       6 GLP5        0.0000 
     38 CA         20.6450    7.9970   15.8950 C.3       3 GLC5        0.0000 
     39 CA         19.3020    7.1270   15.0670 C.3       6 GLP5        0.0000 
     40 CA         18.0970    0.6755   24.6715 C.3       3 GLC5        0.0000 
     41 CA         19.6540    0.4560   23.4370 C.3       9 GLL5        0.0000 
     42 CA         16.5400    0.8950   25.9060 C.3       6 GLP5        0.0000 
     43 CA         18.4135   -0.9610   22.8790 C.3       3 GLC5        0.0000 
     44 CA         17.1730   -2.3780   22.3210 C.3       6 GLP5        0.0000 
     45 CA         20.7120   -0.6905   22.3445 C.3       3 GLC5        0.0000 
     46 CA         21.7700   -1.8370   21.2520 C.3       6 GLP5        0.0000 
     47 CA         22.1238    9.9500   19.5585 C.3       3 GLC5        0.0000 
     48 CA         22.7020   11.4220   20.5180 C.3       6 GLP5        0.0000 
     49 CA         21.3528    6.8960   17.6760 C.3       3 GLC5        0.0000 
     50 CA         21.1600    5.3140   16.7530 C.3       6 GLP5        0.0000 
     51 CA         22.4605    6.9885   25.3167 C.3       3 GLC5        0.0000 
     52 CA         20.6340    6.6690   24.1190 C.3       9 GLL5        0.0000 
     53 CA         24.2980    7.4960   25.8430 C.3       6 GLP5        0.0000 
     54 CA         18.7114    6.4752   23.8611 C.3       3 GLC5        0.0000 
     55 CA         20.6120    6.2930   25.4620 C.3       9 GLL5        0.0000 
     56 CA         21.9865    8.5312   26.1028 C.3       3 GLC5        0.0000 
     57 CA         20.2480    7.2200   26.4390 C.3       9 GLL5        0.0000 
     58 CA         23.9270    8.6740   26.7260 C.3       6 GLP5        0.0000 
     59 CA         21.3083    0.0495   21.8102 C.3       3 GLC5        0.0000 
     60 CA         20.7400    1.7500   23.0310 C.3       9 GLL5        0.0000 
     61 CA         20.0240    3.2627   20.5113 C.3       3 GLC5        0.0000 
     62 CA         20.9530    2.1220   21.7060 C.3       9 GLL5        0.0000 
     63 CA         18.6320    3.9080   19.4810 C.3       6 GLP5        0.0000 
     64 CA         23.5504    8.0328   17.1740 C.3       3 GLC5        0.0000 
     65 CA         25.3340    7.3930   16.6870 C.3       6 GLP5        0.0000 
@<TRIPOS>BOND
@<TRIPOS>SUBSTRUCTURE
     1 ALC1       13 GROUP        1 X    ALC  0     ROOT ALC X 1
     2 SEC2        1 GROUP        1 X    SEC  0     **** SEC X 2
     3 GLC5        4 GROUP        1 X    GLC  0     **** GLC X 6
     4 ALP1       15 GROUP        1 Y    ALP  0     ROOT ALP Y 8
     5 SEP2        3 GROUP        1 Y    SEP  0     **** SEP Y 9
     6 GLP5        6 GROUP        1 Y    GLP  0     **** GLP Y 13
     7 ALL1       14 GROUP        1 Z    ALL  0     ROOT ALL Z 15
     8 SEL2        2 GROUP        1 Z    SEL  0     **** SEL Z 16
     9 GLL5        5 GROUP        1 Z    GLL  0     **** GLL Z 20
@<TRIPOS>SET

