#    Name: 2pvk_P45_1_ligand
#    Modification time : Mon Mar 24 19:25:05 2014

@<TRIPOS>MOLECULE
2pvk_P45_1_ligand
   41    44     1     0     0
SMALL
NO_CHARGES


@<TRIPOS>ATOM
      1 N01        20.1200    9.4960   19.7630 N.2       1 P45501      0.0000 
      2 C02        20.3890    9.7720   18.4630 C.2       1 P45501      0.0000 
      3 C03        21.3940    8.8920   18.0260 C.2       1 P45501      0.0000 
      4 C04        21.6970    8.0640   19.1720 C.2       1 P45501      0.0000 
      5 N05        20.9030    8.4730   20.2070 N.pl3     1 P45501      0.0000 
      6 N06        22.5530    7.0510   19.3740 N.2       1 P45501      0.0000 
      7 C07        22.5820    6.5020   20.5830 C.2       1 P45501      0.0000 
      8 N08        21.8250    6.8860   21.6070 N.2       1 P45501      0.0000 
      9 C09        20.9800    7.8910   21.3940 C.2       1 P45501      0.0000 
     10 N10        20.2110    8.3430   22.4170 N.pl3     1 P45501      0.0000 
     11 C11        20.2970    7.9630   23.7220 C.ar      1 P45501      0.0000 
     12 C12        20.6340    6.6690   24.1190 C.ar      1 P45501      0.0000 
     13 C13        20.6120    6.2930   25.4620 C.ar      1 P45501      0.0000 
     14 C14        20.2480    7.2200   26.4390 C.ar      1 P45501      0.0000 
     15 C15        19.9580    8.5300   26.0550 C.ar      1 P45501      0.0000 
     16 C16        19.9890    8.9020   24.7120 C.ar      1 P45501      0.0000 
     17 N17        23.4510    5.4820   20.7780 N.pl3     1 P45501      0.0000 
     18 C18        23.6170    4.8260   22.0710 C.3       1 P45501      0.0000 
     19 C19        22.5940    3.7600   22.3850 C.ar      1 P45501      0.0000 
     20 C20        22.3590    3.4210   23.7160 C.ar      1 P45501      0.0000 
     21 C21        21.4360    2.4260   24.0330 C.ar      1 P45501      0.0000 
     22 C22        20.7400    1.7500   23.0310 C.ar      1 P45501      0.0000 
     23 C23        20.9530    2.1220   21.7060 C.ar      1 P45501      0.0000 
     24 C24        21.8790    3.1130   21.3770 C.ar      1 P45501      0.0000 
     25 C25        21.9880    8.8670   16.7230 C.1       1 P45501      0.0000 
     26 N26        22.4920    8.9460   15.6820 N.1       1 P45501      0.0000 
     27 CL27       19.6540    0.4560   23.4370 Cl        1 P45501      0.0000 
     28 H          19.9841   10.4389   17.9167 H         1 P45501      0.0000 
     29 H          19.4539    9.0783   22.1734 H         1 P45501      0.0000 
     30 H          20.9063    5.9726   23.4014 H         1 P45501      0.0000 
     31 H          20.8634    5.3350   25.7315 H         1 P45501      0.0000 
     32 H          20.1945    6.9446   27.4195 H         1 P45501      0.0000 
     33 H          19.7180    9.2305   26.7738 H         1 P45501      0.0000 
     34 H          19.7839    9.8752   24.4444 H         1 P45501      0.0000 
     35 H          24.0448    5.1191   20.0016 H         1 P45501      0.0000 
     36 H          23.5904    5.5836   22.8913 H         1 P45501      0.0000 
     37 H          24.6313    4.3630   22.1384 H         1 P45501      0.0000 
     38 H          22.8679    3.9062   24.4665 H         1 P45501      0.0000 
     39 H          21.2647    2.1856   25.0231 H         1 P45501      0.0000 
     40 H          20.4173    1.6574   20.9530 H         1 P45501      0.0000 
     41 H          22.0335    3.3653   20.3943 H         1 P45501      0.0000 
@<TRIPOS>BOND
     1    2    1 2    
     2    5    1 1    
     3    3    2 1    
     4   28    2 1    
     5    4    3 2    
     6   25    3 1    
     7    5    4 1    
     8    6    4 1    
     9    9    5 1    
    10    7    6 2    
    11    8    7 1    
    12   17    7 1    
    13    9    8 2    
    14   10    9 1    
    15   11   10 1    
    16   29   10 1    
    17   12   11 ar   
    18   16   11 ar   
    19   13   12 ar   
    20   30   12 1    
    21   14   13 ar   
    22   31   13 1    
    23   15   14 ar   
    24   32   14 1    
    25   16   15 ar   
    26   33   15 1    
    27   34   16 1    
    28   18   17 1    
    29   35   17 1    
    30   19   18 1    
    31   36   18 1    
    32   37   18 1    
    33   20   19 ar   
    34   24   19 ar   
    35   21   20 ar   
    36   38   20 1    
    37   22   21 ar   
    38   39   21 1    
    39   23   22 ar   
    40   27   22 1    
    41   24   23 ar   
    42   40   23 1    
    43   41   24 1    
    44   26   25 3    
@<TRIPOS>SUBSTRUCTURE
     1 P45501      1 GROUP   
@<TRIPOS>SET

