#    Name: 2hc4_VDX_1_INTS_M
#    Modification time : Tue Mar 25 15:51:34 2014

@<TRIPOS>MOLECULE
2hc4_VDX_1_INTS_M
  127     0     9     0     0
SMALL
NO_CHARGES


@<TRIPOS>ATOM
      1 N           0.5845   41.4825   40.9120 N.am      2 SEC2        0.0000 
      2 N           0.5230   40.2150   40.2930 N.am      8 SEL2        0.0000 
      3 N           0.6460   42.7500   41.5310 N.am      5 SEP2        0.0000 
      4 O          -0.7620   39.7485   40.7865 O.2       1 ALC1        0.0000 
      5 O           0.5230   40.2150   40.2930 O.2       7 ALL1        0.0000 
      6 O          -2.0470   39.2820   41.2800 O.2       4 ALP1        0.0000 
      7 N           4.4845   26.2350   34.6845 N.am      2 SEC2        0.0000 
      8 N           5.4460   27.0550   34.0870 N.am      8 SEL2        0.0000 
      9 N           3.5230   25.4150   35.2820 N.am      5 SEP2        0.0000 
     10 N           6.2150   27.0600   35.2795 N.am      2 SEC2        0.0000 
     11 N           6.9840   27.0650   36.4720 N.am      5 SEP2        0.0000 
     12 CA          4.7350   39.5085   39.6640 C.3       3 GLC5        0.0000 
     13 CA          2.9340   39.2100   38.8750 C.3       9 GLL5        0.0000 
     14 CA          6.5360   39.8070   40.4530 C.3       6 GLP5        0.0000 
     15 CA          2.3660   38.6810   40.7265 C.3       3 GLC5        0.0000 
     16 CA          1.7980   38.1520   42.5780 C.3       6 GLP5        0.0000 
     17 CA          2.5780   41.7845   39.9230 C.3       3 GLC5        0.0000 
     18 CA          2.1480   40.4940   38.4890 C.3       9 GLL5        0.0000 
     19 CA          3.0080   43.0750   41.3570 C.3       6 GLP5        0.0000 
     20 CA          1.1665   41.9790   40.1255 C.3       3 GLC5        0.0000 
     21 CA          0.6100   40.3570   38.8650 C.3       9 GLL5        0.0000 
     22 CA          1.7230   43.6010   41.3860 C.3       6 GLP5        0.0000 
     23 CA          1.2040   39.2545   40.7215 C.3       3 GLC5        0.0000 
     24 CA         -0.1675   40.1685   36.4780 C.3       3 GLC5        0.0000 
     25 CA         -0.0330   39.1040   38.1590 C.3       9 GLL5        0.0000 
     26 CA         -0.3020   41.2330   34.7970 C.3       6 GLP5        0.0000 
     27 CA          0.6005   38.7560   36.1640 C.3       3 GLC5        0.0000 
     28 CA          1.2340   38.4080   34.1690 C.3       6 GLP5        0.0000 
     29 CA         -0.8780   33.9285   40.6830 C.3       3 GLC5        0.0000 
     30 CA          0.1780   34.0370   39.0630 C.3       9 GLL5        0.0000 
     31 CA         -1.9340   33.8200   42.3030 C.3       6 GLP5        0.0000 
     32 CA         -2.1650   33.9900   39.9710 C.3       3 GLC5        0.0000 
     33 CA         -1.3110   33.8370   38.4910 C.3       9 GLL5        0.0000 
     34 CA         -3.0190   34.1430   41.4510 C.3       6 GLP5        0.0000 
     35 CA         -2.6610   35.0280   37.4325 C.3       3 GLC5        0.0000 
     36 CA         -4.0110   36.2190   36.3740 C.3       6 GLP5        0.0000 
     37 CA          1.7450   38.2085   36.1690 C.3       3 GLC5        0.0000 
     38 CA          2.2560   38.0090   38.1690 C.3       9 GLL5        0.0000 
     39 CA          1.9765   37.3775   40.0830 C.3       3 GLC5        0.0000 
     40 CA          1.6970   36.7460   41.9970 C.3       6 GLP5        0.0000 
     41 CA         -1.5030   32.8840   35.1615 C.3       3 GLC5        0.0000 
     42 CA         -1.3700   32.9210   37.1430 C.3       9 GLL5        0.0000 
     43 CA         -1.6360   32.8470   33.1800 C.3       6 GLP5        0.0000 
     44 CA         -0.5675   34.5620   35.9355 C.3       3 GLC5        0.0000 
     45 CA          0.2350   36.2030   34.7280 C.3       6 GLP5        0.0000 
     46 CA         -3.2910   33.4940   37.0770 C.3       3 GLC5        0.0000 
     47 CA         -5.2120   34.0670   37.0110 C.3       6 GLP5        0.0000 
     48 CA         -0.9910   30.9735   35.2710 C.3       3 GLC5        0.0000 
     49 CA         -0.4360   31.6050   37.3150 C.3       9 GLL5        0.0000 
     50 CA         -1.5460   30.3420   33.2270 C.3       6 GLP5        0.0000 
     51 CA         -0.3750   32.6010   40.9725 C.3       3 GLC5        0.0000 
     52 CA          0.8960   32.6960   39.2600 C.3       9 GLL5        0.0000 
     53 CA         -1.6460   32.5060   42.6850 C.3       6 GLP5        0.0000 
     54 CA          3.9460   32.1345   41.3830 C.3       3 GLC5        0.0000 
     55 CA          2.4540   32.6560   39.8830 C.3       9 GLL5        0.0000 
     56 CA          5.4380   31.6130   42.8830 C.3       6 GLP5        0.0000 
     57 CA          3.9920   30.1360   40.8405 C.3       3 GLC5        0.0000 
     58 CA          2.9930   31.2740   39.3600 C.3       9 GLL5        0.0000 
     59 CA          4.9910   28.9980   42.3210 C.3       6 GLP5        0.0000 
     60 CA          1.0470   34.4605   35.7100 C.3       3 GLC5        0.0000 
     61 CA          1.8590   32.7180   36.6920 C.3       9 GLL5        0.0000 
     62 CA          3.2980   32.8590   35.4915 C.3       3 GLC5        0.0000 
     63 CA          4.7370   33.0000   34.2910 C.3       6 GLP5        0.0000 
     64 CA          2.1735   37.0505   35.7010 C.3       3 GLC5        0.0000 
     65 CA          2.9430   37.1940   37.3270 C.3       9 GLL5        0.0000 
     66 CA          1.4040   36.9070   34.0750 C.3       6 GLP5        0.0000 
     67 CA          4.6810   37.8100   36.5930 C.3       3 GLC5        0.0000 
     68 CA          6.4190   38.4260   35.8590 C.3       6 GLP5        0.0000 
     69 CA          4.3385   35.9995   38.2240 C.3       3 GLC5        0.0000 
     70 CA          5.7340   34.8050   39.1210 C.3       6 GLP5        0.0000 
     71 CA          2.3055   26.8335   36.8670 C.3       3 GLC5        0.0000 
     72 CA          2.4540   28.2180   38.2960 C.3       9 GLL5        0.0000 
     73 CA          2.1570   25.4490   35.4380 C.3       6 GLP5        0.0000 
     74 CA          2.7140   26.5610   39.0770 C.3       3 GLC5        0.0000 
     75 CA          2.9740   24.9040   39.8580 C.3       6 GLP5        0.0000 
     76 CA          1.5565   28.7690   40.2305 C.3       3 GLC5        0.0000 
     77 CA          0.6590   29.3200   42.1650 C.3       6 GLP5        0.0000 
     78 CA          4.3870   27.4065   37.9370 C.3       3 GLC5        0.0000 
     79 CA          6.3200   26.5950   37.5780 C.3       6 GLP5        0.0000 
     80 CA          2.8150   27.2745   35.3290 C.3       3 GLC5        0.0000 
     81 CA          3.4730   29.1000   35.2200 C.3       9 GLL5        0.0000 
     82 CA          3.1040   27.5645   30.7245 C.3       3 GLC5        0.0000 
     83 CA          3.8550   27.8000   32.4470 C.3       9 GLL5        0.0000 
     84 CA          2.3530   27.3290   29.0020 C.3       6 GLP5        0.0000 
     85 CA          4.1325   26.0805   31.6660 C.3       3 GLC5        0.0000 
     86 CA          4.4100   24.3610   30.8850 C.3       6 GLP5        0.0000 
     87 CA          6.2190   28.2815   30.3235 C.3       3 GLC5        0.0000 
     88 CA          6.2200   28.6140   32.4370 C.3       9 GLL5        0.0000 
     89 CA          6.2180   27.9490   28.2100 C.3       6 GLP5        0.0000 
     90 CA          7.7315   29.5280   31.4240 C.3       3 GLC5        0.0000 
     91 CA          9.2430   30.4420   30.4110 C.3       6 GLP5        0.0000 
     92 CA          7.9475   29.5055   33.4735 C.3       3 GLC5        0.0000 
     93 CA          9.6750   30.3970   34.5100 C.3       6 GLP5        0.0000 
     94 N           5.1775   40.5470   38.5345 N.am      2 SEC2        0.0000 
     95 N           4.3690   39.3570   38.5230 N.am      8 SEL2        0.0000 
     96 N           5.9860   41.7370   38.5460 N.am      5 SEP2        0.0000 
     97 O           4.7155   39.0970   37.1695 O.2       1 ALC1        0.0000 
     98 O           4.3690   39.3570   38.5230 O.2       7 ALL1        0.0000 
     99 O           5.0620   38.8370   35.8160 O.2       4 ALP1        0.0000 
    100 CA          0.1945   42.0682   38.6885 C.3       3 GLC5        0.0000 
    101 CA         -0.9900   43.7110   38.7000 C.3       6 GLP5        0.0000 
    102 CA          0.5385   40.8293   36.7370 C.3       3 GLC5        0.0000 
    103 CA         -1.1293   40.1672   39.9725 C.3       3 GLC5        0.0000 
    104 CA         -2.5470   40.6040   41.4330 C.3       6 GLP5        0.0000 
    105 CA         -1.5228   40.0057   38.1820 C.3       3 GLC5        0.0000 
    106 CA         -3.3340   40.2810   37.8520 C.3       6 GLP5        0.0000 
    107 CA          0.3458   36.6985   36.6940 C.3       3 GLC5        0.0000 
    108 CA          0.7330   37.8080   38.4400 C.3       9 GLL5        0.0000 
    109 CA          1.0768   36.9700   40.3285 C.3       3 GLC5        0.0000 
    110 CA         -0.7448   35.9665   40.5275 C.3       3 GLC5        0.0000 
    111 CA          0.1800   36.5800   38.8800 C.3       9 GLL5        0.0000 
    112 CA         -1.9570   36.0360   42.0090 C.3       6 GLP5        0.0000 
    113 CA          1.0817   35.6857   40.5673 C.3       3 GLC5        0.0000 
    114 CA          0.7550   35.2140   39.2120 C.3       9 GLL5        0.0000 
    115 CA         -1.9770   30.7495   37.3035 C.3       3 GLC5        0.0000 
    116 CA         -3.0510   29.2360   37.3780 C.3       6 GLP5        0.0000 
    117 CA          4.2287   33.3850   39.3713 C.3       3 GLC5        0.0000 
    118 CA          0.4873   28.1790   37.3630 C.3       3 GLC5        0.0000 
    119 CA         -1.3490   27.4710   36.8600 C.3       6 GLP5        0.0000 
    120 CA          4.9130   28.0023   36.7500 C.3       3 GLC5        0.0000 
    121 CA          3.5390   29.7190   36.6240 C.3       9 GLL5        0.0000 
    122 CA          4.3870   31.1756   34.6975 C.3       3 GLC5        0.0000 
    123 CA          3.2950   26.7175   34.1693 C.3       3 GLC5        0.0000 
    124 CA          5.0110   28.1720   33.3540 C.3       9 GLL5        0.0000 
    125 CA          7.1178   27.0590   32.7912 C.3       3 GLC5        0.0000 
    126 CA          8.6200   25.7250   32.6870 C.3       6 GLP5        0.0000 
    127 CA          1.3489   30.5700   40.7139 C.3       3 GLC5        0.0000 
@<TRIPOS>BOND
@<TRIPOS>SUBSTRUCTURE
     1 ALC1        4 GROUP        1 X    ALC  0     ROOT ALC X 1
     2 SEC2        1 GROUP        1 X    SEC  0     **** SEC X 2
     3 GLC5       12 GROUP        1 X    GLC  0     **** GLC X 6
     4 ALP1        6 GROUP        1 Y    ALP  0     ROOT ALP Y 8
     5 SEP2        3 GROUP        1 Y    SEP  0     **** SEP Y 9
     6 GLP5       14 GROUP        1 Y    GLP  0     **** GLP Y 13
     7 ALL1        5 GROUP        1 Z    ALL  0     ROOT ALL Z 15
     8 SEL2        2 GROUP        1 Z    SEL  0     **** SEL Z 16
     9 GLL5       13 GROUP        1 Z    GLL  0     **** GLL Z 20
@<TRIPOS>SET

