#    Name: 2hc4_VDX_1_ligand
#    Modification time : Tue Mar 25 15:51:34 2014

@<TRIPOS>MOLECULE
2hc4_VDX_1_ligand
   72    74     1     0     0
SMALL
NO_CHARGES


@<TRIPOS>ATOM
      1 O2          0.5230   40.2150   40.2930 O.3       1 VDX525      0.0000 
      2 O3          5.4460   27.0550   34.0870 O.3       1 VDX525      0.0000 
      3 C1          2.9340   39.2100   38.8750 C.3       1 VDX525      0.0000 
      4 C2          2.1480   40.4940   38.4890 C.3       1 VDX525      0.0000 
      5 C3          0.6100   40.3570   38.8650 C.3       1 VDX525      0.0000 
      6 C4         -0.0330   39.1040   38.1590 C.3       1 VDX525      0.0000 
      7 C5          0.7330   37.8080   38.4400 C.2       1 VDX525      0.0000 
      8 C6          0.1800   36.5800   38.8800 C.2       1 VDX525      0.0000 
      9 C7          0.7550   35.2140   39.2120 C.2       1 VDX525      0.0000 
     10 C8          0.1780   34.0370   39.0630 C.2       1 VDX525      0.0000 
     11 C9         -1.3110   33.8370   38.4910 C.3       1 VDX525      0.0000 
     12 C10         2.2560   38.0090   38.1690 C.2       1 VDX525      0.0000 
     13 C11        -1.3700   32.9210   37.1430 C.3       1 VDX525      0.0000 
     14 C12        -0.4360   31.6050   37.3150 C.3       1 VDX525      0.0000 
     15 C13         1.0890   31.8570   37.9070 C.3       1 VDX525      0.0000 
     16 C14         0.8960   32.6960   39.2600 C.3       1 VDX525      0.0000 
     17 C15         2.4540   32.6560   39.8830 C.3       1 VDX525      0.0000 
     18 C16         2.9930   31.2740   39.3600 C.3       1 VDX525      0.0000 
     19 C17         1.8120   30.6540   38.5480 C.3       1 VDX525      0.0000 
     20 C18         1.8590   32.7180   36.6920 C.3       1 VDX525      0.0000 
     21 C19         2.9430   37.1940   37.3270 C.2       1 VDX525      0.0000 
     22 C20         2.1930   29.5560   37.4360 C.3       1 VDX525      0.0000 
     23 C21         2.4540   28.2180   38.2960 C.3       1 VDX525      0.0000 
     24 C22         3.5390   29.7190   36.6240 C.3       1 VDX525      0.0000 
     25 C23         3.4730   29.1000   35.2200 C.3       1 VDX525      0.0000 
     26 C24         4.5680   29.2930   34.2860 C.3       1 VDX525      0.0000 
     27 C25         5.0110   28.1720   33.3540 C.3       1 VDX525      0.0000 
     28 C26         3.8550   27.8000   32.4470 C.3       1 VDX525      0.0000 
     29 C27         6.2200   28.6140   32.4370 C.3       1 VDX525      0.0000 
     30 O1          4.3690   39.3570   38.5230 O.3       1 VDX525      0.0000 
     31 H           2.8154   39.0763   39.9434 H         1 VDX525      0.0000 
     32 H           2.2215   40.6571   37.4236 H         1 VDX525      0.0000 
     33 H           2.5520   41.3407   39.0247 H         1 VDX525      0.0000 
     34 H           0.1155   41.2337   38.5180 H         1 VDX525      0.0000 
     35 H          -0.0523   39.2952   37.0844 H         1 VDX525      0.0000 
     36 H          -1.0614   39.0084   38.5125 H         1 VDX525      0.0000 
     37 H          -0.9240   36.5864   39.0241 H         1 VDX525      0.0000 
     38 H           1.7537   35.2932   39.6114 H         1 VDX525      0.0000 
     39 H          -1.7244   34.8061   38.2513 H         1 VDX525      0.0000 
     40 H          -1.9118   33.3525   39.2472 H         1 VDX525      0.0000 
     41 H          -0.9981   33.4985   36.3289 H         1 VDX525      0.0000 
     42 H          -2.3770   32.6070   36.9951 H         1 VDX525      0.0000 
     43 H          -0.3298   31.1264   36.3412 H         1 VDX525      0.0000 
     44 H          -0.9355   30.9123   37.9927 H         1 VDX525      0.0000 
     45 H           0.3341   32.0188   39.9176 H         1 VDX525      0.0000 
     46 H           2.3615   32.6508   40.9134 H         1 VDX525      0.0000 
     47 H           2.9677   33.4417   39.4481 H         1 VDX525      0.0000 
     48 H           3.2177   30.6549   40.1868 H         1 VDX525      0.0000 
     49 H           3.8143   31.4439   38.7166 H         1 VDX525      0.0000 
     50 H           1.1187   30.2038   39.2497 H         1 VDX525      0.0000 
     51 H           1.3891   29.3524   36.8177 H         1 VDX525      0.0000 
     52 H           4.3373   29.2442   37.1981 H         1 VDX525      0.0000 
     53 H           3.7570   30.7861   36.5456 H         1 VDX525      0.0000 
     54 H           2.4985   29.4566   34.7520 H         1 VDX525      0.0000 
     55 H           3.2786   27.9875   35.3630 H         1 VDX525      0.0000 
     56 H           5.4987   29.6363   34.8548 H         1 VDX525      0.0000 
     57 H           4.3525   30.2032   33.6281 H         1 VDX525      0.0000 
     58 H           2.8041   32.9375   36.9341 H         1 VDX525      0.0000 
     59 H           1.8878   32.2049   35.8342 H         1 VDX525      0.0000 
     60 H           1.3969   33.5838   36.5003 H         1 VDX525      0.0000 
     61 H           2.7051   27.4451   37.7133 H         1 VDX525      0.0000 
     62 H           3.1947   28.3398   38.9567 H         1 VDX525      0.0000 
     63 H           1.6426   27.9443   38.8124 H         1 VDX525      0.0000 
     64 H           4.1101   27.0872   31.7936 H         1 VDX525      0.0000 
     65 H           3.0721   27.4559   32.9653 H         1 VDX525      0.0000 
     66 H           3.5331   28.5834   31.9153 H         1 VDX525      0.0000 
     67 H           7.0258   28.8577   32.9767 H         1 VDX525      0.0000 
     68 H           6.4964   27.8855   31.8102 H         1 VDX525      0.0000 
     69 H           5.9901   29.4104   31.8776 H         1 VDX525      0.0000 
     70 H          -0.4560   40.2352   40.4958 H         1 VDX525      0.0000 
     71 H           5.3382   26.4626   33.2885 H         1 VDX525      0.0000 
     72 H           4.4159   39.1646   37.5428 H         1 VDX525      0.0000 
@<TRIPOS>BOND
     1    5    1 1    
     2   70    1 1    
     3   27    2 1    
     4   71    2 1    
     5    4    3 1    
     6   12    3 1    
     7   30    3 1    
     8   31    3 1    
     9    5    4 1    
    10   32    4 1    
    11   33    4 1    
    12    6    5 1    
    13   34    5 1    
    14    7    6 1    
    15   35    6 1    
    16   36    6 1    
    17    8    7 2    
    18   12    7 1    
    19    9    8 1    
    20   37    8 1    
    21   10    9 2    
    22   38    9 1    
    23   11   10 1    
    24   16   10 1    
    25   13   11 1    
    26   39   11 1    
    27   40   11 1    
    28   21   12 2    
    29   14   13 1    
    30   41   13 1    
    31   42   13 1    
    32   15   14 1    
    33   43   14 1    
    34   44   14 1    
    35   16   15 1    
    36   19   15 1    
    37   20   15 1    
    38   17   16 1    
    39   45   16 1    
    40   18   17 1    
    41   46   17 1    
    42   47   17 1    
    43   19   18 1    
    44   48   18 1    
    45   49   18 1    
    46   22   19 1    
    47   50   19 1    
    48   58   20 1    
    49   59   20 1    
    50   60   20 1    
    51   23   22 1    
    52   24   22 1    
    53   51   22 1    
    54   61   23 1    
    55   62   23 1    
    56   63   23 1    
    57   25   24 1    
    58   52   24 1    
    59   53   24 1    
    60   26   25 1    
    61   54   25 1    
    62   55   25 1    
    63   27   26 1    
    64   56   26 1    
    65   57   26 1    
    66   28   27 1    
    67   29   27 1    
    68   64   28 1    
    69   65   28 1    
    70   66   28 1    
    71   67   29 1    
    72   68   29 1    
    73   69   29 1    
    74   72   30 1    
@<TRIPOS>SUBSTRUCTURE
     1 VDX525      1 GROUP   
@<TRIPOS>SET

