#    Name: 2ea2_F77_1_INTS_M
#    Modification time : Mon Apr  7 17:41:37 2014

@<TRIPOS>MOLECULE
2ea2_F77_1_INTS_M
   58     0     9     0     0
SMALL
NO_CHARGES


@<TRIPOS>ATOM
      1 CA         20.6510   32.6845   17.9475 C.3       3 GLC5        0.0000 
      2 CA         19.9380   34.1400   16.4480 C.3       9 GLL5        0.0000 
      3 CA         21.3640   31.2290   19.4470 C.3       6 GLP5        0.0000 
      4 CA         21.4380   35.3485   16.9815 C.3       3 GLC5        0.0000 
      5 CA         22.9380   36.5570   17.5150 C.3       6 GLP5        0.0000 
      6 CA         19.6755   35.3635   17.6160 C.3       3 GLC5        0.0000 
      7 CA         19.4130   36.5870   18.7840 C.3       6 GLP5        0.0000 
      8 CA         17.9385   34.2575   13.6795 C.3       3 GLC5        0.0000 
      9 CA         19.0920   33.5110   15.3240 C.3       9 GLL5        0.0000 
     10 CA         16.7850   35.0040   12.0350 C.3       6 GLP5        0.0000 
     11 CA         18.5765   35.0200   16.7180 C.3       3 GLC5        0.0000 
     12 CA         18.0610   36.5290   18.1120 C.3       6 GLP5        0.0000 
     13 CA         14.1350   30.8170   15.5695 C.3       3 GLC5        0.0000 
     14 CA         15.8790   31.6690   16.5100 C.3       9 GLL5        0.0000 
     15 CA         12.3910   29.9650   14.6290 C.3       6 GLP5        0.0000 
     16 CA         21.3730   30.2780   14.0000 C.3       3 GLC5        0.0000 
     17 CA         20.1560   30.7190   15.8360 C.3       9 GLL5        0.0000 
     18 CA         22.5900   29.8370   12.1640 C.3       6 GLP5        0.0000 
     19 Zn         18.0380   26.5095   16.2590 Zn        2 ZIC7        0.0000 
     20 Zn         17.8230   27.6520   16.0710 Zn        8 ZIL7        0.0000 
     21 Zn         18.2530   25.3670   16.4470 Zn        5 ZIP7        0.0000 
     22 N          19.5815   29.7895   18.3540 N.am      1 SEC2        0.0000 
     23 N          19.0990   28.4970   17.6750 N.am      7 SEL2        0.0000 
     24 N          20.0640   31.0820   19.0330 N.am      4 SEP2        0.0000 
     25 Zn         18.5105   27.3690   16.7365 Zn        2 ZIC7        0.0000 
     26 Zn         15.4730   29.3430   17.2220 Zn        8 ZIL7        0.0000 
     27 Zn         21.5480   25.3950   16.2510 Zn        5 ZIP7        0.0000 
     28 Zn         16.8630   27.3550   16.8345 Zn        2 ZIC7        0.0000 
     29 CA         15.8100   26.5415   18.2420 C.3       3 GLC5        0.0000 
     30 CA         16.6840   27.4840   19.8840 C.3       9 GLL5        0.0000 
     31 CA         14.9360   25.5990   16.6000 C.3       6 GLP5        0.0000 
     32 CA         19.6100   30.3910   20.4390 C.3       3 GLC5        0.0000 
     33 CA         17.8560   29.5530   21.4310 C.3       9 GLL5        0.0000 
     34 CA         19.7230   26.3245   22.3570 C.3       3 GLC5        0.0000 
     35 CA         19.3510   27.9740   22.3150 C.3       9 GLL5        0.0000 
     36 CA         20.0950   24.6750   22.3990 C.3       6 GLP5        0.0000 
     37 CA         19.0615   29.7630   23.2130 C.3       3 GLC5        0.0000 
     38 CA         18.7720   31.5520   24.1110 C.3       6 GLP5        0.0000 
     39 CA         20.0830   34.2927   14.1370 C.3       3 GLC5        0.0000 
     40 CA         20.6510   34.7600   12.3880 C.3       6 GLP5        0.0000 
     41 CA         16.4868   33.7593   14.6063 C.3       3 GLC5        0.0000 
     42 CA         16.7760   32.6880   16.0440 C.3       9 GLL5        0.0000 
     43 CA         15.4980   34.9730   13.2810 C.3       6 GLP5        0.0000 
     44 CA         16.3356   31.8151   14.4214 C.3       3 GLC5        0.0000 
     45 CA         18.1750   32.4030   15.8190 C.3       9 GLL5        0.0000 
     46 CA         15.9940   31.5230   12.6220 C.3       6 GLP5        0.0000 
     47 CA         17.0607   29.7192   14.8080 C.3       3 GLC5        0.0000 
     48 CA         16.3490   30.3280   16.7710 C.3       9 GLL5        0.0000 
     49 CA         17.0700   29.2660   12.9530 C.3       6 GLP5        0.0000 
     50 CA         20.3863   31.0570   17.7013 C.3       3 GLC5        0.0000 
     51 CA         18.6610   31.0510   16.0750 C.3       9 GLL5        0.0000 
     52 CA         18.2392   30.0755   14.4543 C.3       3 GLC5        0.0000 
     53 CA         20.5797   28.3547   22.1470 C.3       3 GLC5        0.0000 
     54 CA         18.3340   28.2370   21.5030 C.3       9 GLL5        0.0000 
     55 CA         22.3170   28.6040   22.3850 C.3       6 GLP5        0.0000 
     56 CA         18.1037   30.4600   22.5650 C.3       3 GLC5        0.0000 
     57 CA         17.9957   28.2548   23.3271 C.3       3 GLC5        0.0000 
     58 CA         17.3390   28.2060   24.8580 C.3       6 GLP5        0.0000 
@<TRIPOS>BOND
@<TRIPOS>SUBSTRUCTURE
     1 SEC2       22 GROUP        1 X    SEC  0     ROOT SEC X 2
     2 ZIC7       19 GROUP        1 X    ZIC  0     **** ZIC X 5
     3 GLC5        1 GROUP        1 X    GLC  0     **** GLC X 6
     4 SEP2       24 GROUP        1 Y    SEP  0     ROOT SEP Y 9
     5 ZIP7       21 GROUP        1 Y    ZIP  0     **** ZIP Y 12
     6 GLP5        3 GROUP        1 Y    GLP  0     **** GLP Y 13
     7 SEL2       23 GROUP        1 Z    SEL  0     ROOT SEL Z 16
     8 ZIL7       20 GROUP        1 Z    ZIL  0     **** ZIL Z 19
     9 GLL5        2 GROUP        1 Z    GLL  0     **** GLL Z 20
@<TRIPOS>SET

