#    Name: 2ea2_F77_1_ligand
#    Modification time : Mon Apr  7 17:41:37 2014

@<TRIPOS>MOLECULE
2ea2_F77_1_ligand
   38    39     1     0     0
SMALL
NO_CHARGES


@<TRIPOS>ATOM
      1 C1         19.9380   34.1400   16.4480 C.3       1 F77482      0.0000 
      2 C2         19.0920   33.5110   15.3240 C.3       1 F77482      0.0000 
      3 C3         18.1750   32.4030   15.8190 C.ar      1 F77482      0.0000 
      4 C4         16.7760   32.6880   16.0440 C.ar      1 F77482      0.0000 
      5 C5         15.8790   31.6690   16.5100 C.ar      1 F77482      0.0000 
      6 C6         16.3490   30.3280   16.7710 C.ar      1 F77482      0.0000 
      7 C7         17.7540   30.0170   16.5550 C.ar      1 F77482      0.0000 
      8 C8         18.6610   31.0510   16.0750 C.ar      1 F77482      0.0000 
      9 C9         20.1560   30.7190   15.8360 C.3       1 F77482      0.0000 
     10 C10        18.2950   28.6650   16.8110 C.2       1 F77482      0.0000 
     11 O11        17.8230   27.6520   16.0710 O.co2     1 F77482      0.0000 
     12 O12        19.0990   28.4970   17.6750 O.co2     1 F77482      0.0000 
     13 N13        15.4730   29.3430   17.2220 N.pl3     1 F77482      0.0000 
     14 S14        14.8530   29.1810   18.7260 S.o2      1 F77482      0.0000 
     15 O15        13.9540   28.0640   18.6920 O.2       1 F77482      0.0000 
     16 O16        14.2850   30.4760   19.0650 O.2       1 F77482      0.0000 
     17 C17        16.1930   28.8130   19.8010 C.ar      1 F77482      0.0000 
     18 C18        16.6840   27.4840   19.8840 C.ar      1 F77482      0.0000 
     19 C19        17.7690   27.1900   20.7450 C.ar      1 F77482      0.0000 
     20 C20        18.3340   28.2370   21.5030 C.ar      1 F77482      0.0000 
     21 C21        17.8560   29.5530   21.4310 C.ar      1 F77482      0.0000 
     22 C22        16.7760   29.8410   20.5710 C.ar      1 F77482      0.0000 
     23 F23        19.3510   27.9740   22.3150 F         1 F77482      0.0000 
     24 H          19.7689   33.1095   14.5590 H         1 F77482      0.0000 
     25 H          18.4902   34.3000   14.8552 H         1 F77482      0.0000 
     26 H          16.4252   33.6285   15.8678 H         1 F77482      0.0000 
     27 H          14.8960   31.8904   16.6601 H         1 F77482      0.0000 
     28 H          15.1204   28.5807   16.5936 H         1 F77482      0.0000 
     29 H          16.2577   26.7475   19.3272 H         1 F77482      0.0000 
     30 H          18.1298   26.2479   20.8134 H         1 F77482      0.0000 
     31 H          18.2783   30.2901   21.9879 H         1 F77482      0.0000 
     32 H          16.4155   30.7950   20.5056 H         1 F77482      0.0000 
     33 H          20.5275   33.4648   16.8914 H         1 F77482      0.0000 
     34 H          20.5323   34.8666   16.1032 H         1 F77482      0.0000 
     35 H          19.3658   34.5434   17.1621 H         1 F77482      0.0000 
     36 H          20.7569   31.2840   16.4014 H         1 F77482      0.0000 
     37 H          20.3634   29.7646   16.0508 H         1 F77482      0.0000 
     38 H          20.4223   30.8698   14.8840 H         1 F77482      0.0000 
@<TRIPOS>BOND
     1    2    1 1    
     2   33    1 1    
     3   34    1 1    
     4   35    1 1    
     5    3    2 1    
     6   24    2 1    
     7   25    2 1    
     8    4    3 ar   
     9    8    3 ar   
    10    5    4 ar   
    11   26    4 1    
    12    6    5 ar   
    13   27    5 1    
    14    7    6 ar   
    15   13    6 1    
    16    8    7 ar   
    17   10    7 1    
    18    9    8 1    
    19   36    9 1    
    20   37    9 1    
    21   38    9 1    
    22   11   10 ar   
    23   12   10 ar   
    24   14   13 1    
    25   28   13 1    
    26   15   14 2    
    27   16   14 2    
    28   17   14 1    
    29   18   17 ar   
    30   22   17 ar   
    31   19   18 ar   
    32   29   18 1    
    33   20   19 ar   
    34   30   19 1    
    35   21   20 ar   
    36   23   20 1    
    37   22   21 ar   
    38   31   21 1    
    39   32   22 1    
@<TRIPOS>SUBSTRUCTURE
     1 F77482      1 GROUP   
@<TRIPOS>SET

