#    Name: 1m2p_HNA_1_INTS_M
#    Modification time : Tue Mar 25 11:23:18 2014

@<TRIPOS>MOLECULE
1m2p_HNA_1_INTS_M
   45     0     9     0     0
SMALL
NO_CHARGES


@<TRIPOS>ATOM
      1 CA         24.4870    7.9895   18.9800 C.3       3 GLC5        0.0000 
      2 CA         23.1880    7.2810   17.5300 C.3       9 GLL5        0.0000 
      3 CA         25.7860    8.6980   20.4300 C.3       6 GLP5        0.0000 
      4 CA         25.5105    6.7885   17.9660 C.3       3 GLC5        0.0000 
      5 CA         23.9130    6.7760   16.4070 C.3       9 GLL5        0.0000 
      6 CA         27.1080    6.8010   19.5250 C.3       6 GLP5        0.0000 
      7 CA         25.8360    7.3125   15.4875 C.3       3 GLC5        0.0000 
      8 CA         27.7590    7.8490   14.5680 C.3       6 GLP5        0.0000 
      9 CA         21.6755    7.3305   14.9685 C.3       3 GLC5        0.0000 
     10 CA         23.1230    8.7050   15.0700 C.3       9 GLL5        0.0000 
     11 CA         20.2280    5.9560   14.8670 C.3       6 GLP5        0.0000 
     12 CA         22.7135   11.3380   15.6195 C.3       3 GLC5        0.0000 
     13 CA         22.4120    9.2000   16.1920 C.3       9 GLL5        0.0000 
     14 CA         23.0150   13.4760   15.0470 C.3       6 GLP5        0.0000 
     15 N          26.1465    5.4995   14.3790 N.am      1 SEC2        0.0000 
     16 N          25.3340    5.0620   15.6100 N.am      7 SEL2        0.0000 
     17 N          26.9590    5.9370   13.1480 N.am      4 SEP2        0.0000 
     18 NZ         25.7505    6.5020   13.5880 N.4       2 LYC4        0.0000 
     19 NZ         24.5420    7.0670   14.0280 N.4       8 LYL4        0.0000 
     20 NZ         26.9590    5.9370   13.1480 N.4       5 LYP4        0.0000 
     21 N          25.7505    6.5020   13.5880 N.am      1 SEC2        0.0000 
     22 N          24.5420    7.0670   14.0280 N.am      7 SEL2        0.0000 
     23 N          23.3890    6.0550   13.5070 N.am      1 SEC2        0.0000 
     24 N          22.2360    5.0430   12.9860 N.am      4 SEP2        0.0000 
     25 CA         25.7235    5.9098   18.9823 C.3       3 GLC5        0.0000 
     26 CA         24.7120    4.7670   17.8750 C.3       9 GLL5        0.0000 
     27 CA         22.5710    4.8093   17.7003 C.3       3 GLC5        0.0000 
     28 CA         23.9660    5.2700   19.0040 C.3       9 GLL5        0.0000 
     29 CA         20.8030    4.6000   16.9610 C.3       6 GLP5        0.0000 
     30 CA         25.2080    4.2597   22.0637 C.3       3 GLC5        0.0000 
     31 CA         23.9970    4.5440   20.2210 C.3       9 GLL5        0.0000 
     32 CA         26.0420    4.5770   23.8620 C.3       6 GLP5        0.0000 
     33 CA         26.9057    2.8323   20.9155 C.3       3 GLC5        0.0000 
     34 CA         24.7510    3.3410   20.3100 C.3       9 GLL5        0.0000 
     35 CA         28.6920    2.5710   22.0670 C.3       6 GLP5        0.0000 
     36 CA         26.0195    5.0976   19.6334 C.3       3 GLC5        0.0000 
     37 CA         25.4880    2.8460   19.2180 C.3       9 GLL5        0.0000 
     38 CA         22.1767    5.8142   16.9647 C.3       3 GLC5        0.0000 
     39 CA         21.4653    9.9223   14.7370 C.3       3 GLC5        0.0000 
     40 CA         20.1630   10.8920   13.8430 C.3       6 GLP5        0.0000 
     41 CA         23.3630   10.2195   17.8863 C.3       3 GLC5        0.0000 
     42 CA         24.2990   11.5930   18.9710 C.3       6 GLP5        0.0000 
     43 CA         20.8460    7.9515   16.0958 C.3       3 GLC5        0.0000 
     44 CA         22.4420    8.4920   17.4110 C.3       9 GLL5        0.0000 
     45 CA         19.2650    7.0570   15.3900 C.3       6 GLP5        0.0000 
@<TRIPOS>BOND
@<TRIPOS>SUBSTRUCTURE
     1 SEC2       15 GROUP        1 X    SEC  0     ROOT SEC X 2
     2 LYC4       18 GROUP        1 X    LYC  0     **** LYC X 4
     3 GLC5        1 GROUP        1 X    GLC  0     **** GLC X 6
     4 SEP2       17 GROUP        1 Y    SEP  0     ROOT SEP Y 9
     5 LYP4       20 GROUP        1 Y    LYP  0     **** LYP Y 11
     6 GLP5        3 GROUP        1 Y    GLP  0     **** GLP Y 13
     7 SEL2       16 GROUP        1 Z    SEL  0     ROOT SEL Z 16
     8 LYL4       19 GROUP        1 Z    LYL  0     **** LYL Z 18
     9 GLL5        2 GROUP        1 Z    GLL  0     **** GLL Z 20
@<TRIPOS>SET

