#    Name: 1m2p_HNA_1_ligand
#    Modification time : Tue Mar 25 11:23:18 2014

@<TRIPOS>MOLECULE
1m2p_HNA_1_ligand
   26    28     1     0     0
SMALL
NO_CHARGES


@<TRIPOS>ATOM
      1 C1         25.4730    3.5510   18.0020 C.ar      1 HNA351      0.0000 
      2 C2         24.7120    4.7670   17.8750 C.ar      1 HNA351      0.0000 
      3 C3         23.9660    5.2700   19.0040 C.ar      1 HNA351      0.0000 
      4 C4         23.9970    4.5440   20.2210 C.ar      1 HNA351      0.0000 
      5 C5         24.7510    3.3410   20.3100 C.ar      1 HNA351      0.0000 
      6 C6         25.4880    2.8460   19.2180 C.ar      1 HNA351      0.0000 
      7 C13        23.1930    6.5650   18.8220 C.2       1 HNA351      0.0000 
      8 C14        23.1880    7.2810   17.5300 C.ar      1 HNA351      0.0000 
      9 C15        23.9130    6.7760   16.4070 C.ar      1 HNA351      0.0000 
     10 C16        24.7000    5.5090   16.5640 C.2       1 HNA351      0.0000 
     11 C22        23.8740    7.5060   15.1610 C.ar      1 HNA351      0.0000 
     12 C23        23.1230    8.7050   15.0700 C.ar      1 HNA351      0.0000 
     13 C24        22.4120    9.2000   16.1920 C.ar      1 HNA351      0.0000 
     14 C25        22.4420    8.4920   17.4110 C.ar      1 HNA351      0.0000 
     15 O16        25.3340    5.0620   15.6100 O.2       1 HNA351      0.0000 
     16 O13        22.5320    7.0670   19.7280 O.2       1 HNA351      0.0000 
     17 O1         26.2070    3.0380   16.9470 O.co2     1 HNA351      0.0000 
     18 O22        24.5420    7.0670   14.0280 O.co2     1 HNA351      0.0000 
     19 N4         23.3090    4.8910   21.4330 N.pl3     1 HNA351      0.0000 
     20 O4B        22.0820    4.4920   21.5490 O.2       1 HNA351      0.0000 
     21 O4A        23.8020    5.5610   22.3750 O.2       1 HNA351      0.0000 
     22 H          24.7535    2.8216   21.2027 H         1 HNA351      0.0000 
     23 H          26.0259    1.9866   19.3086 H         1 HNA351      0.0000 
     24 H          23.0939    9.2188   14.1846 H         1 HNA351      0.0000 
     25 H          21.8807   10.0669   16.1143 H         1 HNA351      0.0000 
     26 H          21.9267    8.8434   18.2222 H         1 HNA351      0.0000 
@<TRIPOS>BOND
     1    2    1 ar   
     2    6    1 ar   
     3   17    1 ar   
     4    3    2 ar   
     5   10    2 1    
     6    4    3 ar   
     7    7    3 1    
     8    5    4 ar   
     9   19    4 1    
    10    6    5 ar   
    11   22    5 1    
    12   23    6 1    
    13    8    7 1    
    14   16    7 2    
    15    9    8 ar   
    16   14    8 ar   
    17   10    9 1    
    18   11    9 ar   
    19   15   10 2    
    20   12   11 ar   
    21   18   11 ar   
    22   13   12 ar   
    23   24   12 1    
    24   14   13 ar   
    25   25   13 1    
    26   26   14 1    
    27   20   19 2    
    28   21   19 2    
@<TRIPOS>SUBSTRUCTURE
     1 HNA351      1 GROUP   
@<TRIPOS>SET

