#    Name: 1u1d_181_1_INTS_M
#    Modification time : Tue Mar 25 05:55:16 2014

@<TRIPOS>MOLECULE
1u1d_181_1_INTS_M
   58     0     9     0     0
SMALL
NO_CHARGES


@<TRIPOS>ATOM
      1 N           7.5815  160.1545    9.8595 N.am      2 SEC2        0.0000 
      2 N           7.0580  160.5440   11.0810 N.am      8 SEL2        0.0000 
      3 N           8.1050  159.7650    8.6380 N.am      5 SEP2        0.0000 
      4 CA          4.5880  160.5295    9.4015 C.3       3 GLC5        0.0000 
      5 CA          5.9010  161.2490   10.6140 C.3       9 GLL5        0.0000 
      6 CA          3.2750  159.8100    8.1890 C.3       6 GLP5        0.0000 
      7 CA          6.7055  159.9190    9.4320 C.3       3 GLC5        0.0000 
      8 CA          7.5100  158.5890    8.2500 C.3       6 GLP5        0.0000 
      9 CA          5.5475  164.0195    9.9685 C.3       3 GLC5        0.0000 
     10 CA          5.8270  162.6260   11.3210 C.3       9 GLL5        0.0000 
     11 CA          5.2680  165.4130    8.6160 C.3       6 GLP5        0.0000 
     12 N           4.6670  163.4435   12.9975 N.am      2 SEC2        0.0000 
     13 N           5.9710  162.4030   12.7350 N.am      8 SEL2        0.0000 
     14 N           3.3630  164.4840   13.2600 N.am      5 SEP2        0.0000 
     15 CA          5.9815  165.6335   13.7110 C.3       3 GLC5        0.0000 
     16 CA          6.4520  163.5820   13.4020 C.3       9 GLL5        0.0000 
     17 CA          5.5110  167.6850   14.0200 C.3       6 GLP5        0.0000 
     18 N           7.7430  166.7610   10.9375 N.am      2 SEC2        0.0000 
     19 N           7.3430  165.8430   11.8570 N.am      8 SEL2        0.0000 
     20 N           8.1430  167.6790   10.0180 N.am      5 SEP2        0.0000 
     21 O           9.8695  166.5895   11.6550 O.2       1 ALC1        0.0000 
     22 O           9.5370  165.5090   12.3870 O.2       7 ALL1        0.0000 
     23 O          10.2020  167.6700   10.9230 O.2       4 ALP1        0.0000 
     24 N          12.1345  165.5265   11.3720 N.am      2 SEC2        0.0000 
     25 N          11.7020  165.0670   12.9310 N.am      8 SEL2        0.0000 
     26 N          12.5670  165.9860    9.8130 N.am      5 SEP2        0.0000 
     27 N          12.8200  164.8530   11.9975 N.am      2 SEC2        0.0000 
     28 N          13.9380  164.6390   11.0640 N.am      5 SEP2        0.0000 
     29 CA          7.7695  161.8840   15.3130 C.3       3 GLC5        0.0000 
     30 CA          8.8050  163.2120   13.8690 C.3       9 GLL5        0.0000 
     31 CA          6.7340  160.5560   16.7570 C.3       6 GLP5        0.0000 
     32 CA         11.1940  161.3810   15.9565 C.3       3 GLC5        0.0000 
     33 CA         11.3530  162.5080   14.5550 C.3       9 GLL5        0.0000 
     34 CA         11.0350  160.2540   17.3580 C.3       6 GLP5        0.0000 
     35 CA         13.2820  162.5295   15.3640 C.3       3 GLC5        0.0000 
     36 CA         15.2110  162.5510   16.1730 C.3       6 GLP5        0.0000 
     37 CA         14.2190  162.7205   14.0385 C.3       3 GLC5        0.0000 
     38 CA         13.2210  161.5630   12.6720 C.3       9 GLL5        0.0000 
     39 CA         15.2170  163.8780   15.4050 C.3       6 GLP5        0.0000 
     40 CA         12.5685  159.0225    9.2180 C.3       3 GLC5        0.0000 
     41 CA         12.7070  159.6570   11.1480 C.3       9 GLL5        0.0000 
     42 CA         12.4300  158.3880    7.2880 C.3       6 GLP5        0.0000 
     43 CA          7.4735  162.7837    9.9703 C.3       3 GLC5        0.0000 
     44 CA          9.0830  163.6300    8.9730 C.3       6 GLP5        0.0000 
     45 CA          8.9682  164.0215   15.5600 C.3       3 GLC5        0.0000 
     46 CA          8.4490  164.6610   17.3040 C.3       6 GLP5        0.0000 
     47 CA          9.7118  163.1765   11.8355 C.3       3 GLC5        0.0000 
     48 CA          9.9360  162.9710    9.8550 C.3       6 GLP5        0.0000 
     49 CA         11.3217  164.5160   15.2885 C.3       3 GLC5        0.0000 
     50 CA         10.1700  163.5520   13.7630 C.3       9 GLL5        0.0000 
     51 CA         11.8820  166.0020   16.4180 C.3       6 GLP5        0.0000 
     52 CA         10.9335  160.1457   14.6550 C.3       3 GLC5        0.0000 
     53 CA         11.9060  161.4560   13.2520 C.3       9 GLL5        0.0000 
     54 CA         10.4180  159.3440   16.3000 C.3       6 GLP5        0.0000 
     55 CA         13.6492  159.9873   13.6990 C.3       3 GLC5        0.0000 
     56 CA         14.7350  158.4650   14.4360 C.3       6 GLP5        0.0000 
     57 CA         13.5076  159.1549   12.9902 C.3       3 GLC5        0.0000 
     58 CA         13.6340  160.6640   11.6140 C.3       9 GLL5        0.0000 
@<TRIPOS>BOND
@<TRIPOS>SUBSTRUCTURE
     1 ALC1       21 GROUP        1 X    ALC  0     ROOT ALC X 1
     2 SEC2        1 GROUP        1 X    SEC  0     **** SEC X 2
     3 GLC5        4 GROUP        1 X    GLC  0     **** GLC X 6
     4 ALP1       23 GROUP        1 Y    ALP  0     ROOT ALP Y 8
     5 SEP2        3 GROUP        1 Y    SEP  0     **** SEP Y 9
     6 GLP5        6 GROUP        1 Y    GLP  0     **** GLP Y 13
     7 ALL1       22 GROUP        1 Z    ALL  0     ROOT ALL Z 15
     8 SEL2        2 GROUP        1 Z    SEL  0     **** SEL Z 16
     9 GLL5        5 GROUP        1 Z    GLL  0     **** GLL Z 20
@<TRIPOS>SET

