#    Name: 1u1d_181_1_ligand
#    Modification time : Tue Mar 25 05:55:16 2014

@<TRIPOS>MOLECULE
1u1d_181_1_ligand
   34    35     1     0     0
SMALL
NO_CHARGES


@<TRIPOS>ATOM
      1 OAC         7.0580  160.5440   11.0810 O.3       1 1813400     0.0000 
      2 CAJ         5.9010  161.2490   10.6140 C.3       1 1813400     0.0000 
      3 CAK         5.8270  162.6260   11.3210 C.3       1 1813400     0.0000 
      4 OAN         5.9710  162.4030   12.7350 O.3       1 1813400     0.0000 
      5 CAL         6.4520  163.5820   13.4020 C.3       1 1813400     0.0000 
      6 NAT         7.7910  163.9960   13.2470 N.am      1 1813400     0.0000 
      7 CAS         8.1650  165.1610   12.4880 C.2       1 1813400     0.0000 
      8 OAB         7.3430  165.8430   11.8570 O.2       1 1813400     0.0000 
      9 NAM         9.5370  165.5090   12.3870 N.am      1 1813400     0.0000 
     10 CAR        10.5250  164.7150   13.0190 C.2       1 1813400     0.0000 
     11 OAA        11.7020  165.0670   12.9310 O.2       1 1813400     0.0000 
     12 CAI         8.8050  163.2120   13.8690 C.2       1 1813400     0.0000 
     13 CAQ        10.1700  163.5520   13.7630 C.2       1 1813400     0.0000 
     14 SAO        11.3530  162.5080   14.5550 S.3       1 1813400     0.0000 
     15 CAP        11.9060  161.4560   13.2520 C.ar      1 1813400     0.0000 
     16 CAH        13.2210  161.5630   12.6720 C.ar      1 1813400     0.0000 
     17 CAF        13.6340  160.6640   11.6140 C.ar      1 1813400     0.0000 
     18 CAD        12.7070  159.6570   11.1480 C.ar      1 1813400     0.0000 
     19 CAE        11.3900  159.5290   11.7080 C.ar      1 1813400     0.0000 
     20 CAG        10.9920  160.4390   12.7680 C.ar      1 1813400     0.0000 
     21 H           4.9768  160.7162   10.8413 H         1 1813400     0.0000 
     22 H           5.9406  161.4360    9.5402 H         1 1813400     0.0000 
     23 H           4.8686  163.0700   11.0739 H         1 1813400     0.0000 
     24 H           6.6256  163.2423   10.9222 H         1 1813400     0.0000 
     25 H           6.2178  163.4763   14.5274 H         1 1813400     0.0000 
     26 H           5.7522  164.4581   13.1277 H         1 1813400     0.0000 
     27 H           9.8124  166.3369   11.8553 H         1 1813400     0.0000 
     28 H           8.5288  162.3782   14.4076 H         1 1813400     0.0000 
     29 H          13.8647  162.2723   13.0051 H         1 1813400     0.0000 
     30 H          14.5488  160.7398   11.2118 H         1 1813400     0.0000 
     31 H          12.9996  159.0219   10.4012 H         1 1813400     0.0000 
     32 H          10.7545  158.8295   11.3794 H         1 1813400     0.0000 
     33 H          10.0667  160.3618   13.1726 H         1 1813400     0.0000 
     34 H           7.1903  160.8580   12.0212 H         1 1813400     0.0000 
@<TRIPOS>BOND
     1    2    1 1    
     2   34    1 1    
     3    3    2 1    
     4   21    2 1    
     5   22    2 1    
     6    4    3 1    
     7   23    3 1    
     8   24    3 1    
     9    5    4 1    
    10    6    5 1    
    11   25    5 1    
    12   26    5 1    
    13    7    6 1    
    14   12    6 1    
    15    8    7 2    
    16    9    7 1    
    17   10    9 1    
    18   27    9 1    
    19   11   10 2    
    20   13   10 1    
    21   13   12 2    
    22   28   12 1    
    23   14   13 1    
    24   15   14 1    
    25   16   15 ar   
    26   20   15 ar   
    27   17   16 ar   
    28   29   16 1    
    29   18   17 ar   
    30   30   17 1    
    31   19   18 ar   
    32   31   18 1    
    33   20   19 ar   
    34   32   19 1    
    35   33   20 1    
@<TRIPOS>SUBSTRUCTURE
     1 1813400     1 GROUP   
@<TRIPOS>SET

