#    Name: 3mvh_WFE_1_INTS_M
#    Modification time : Mon Mar 24 23:42:51 2014

@<TRIPOS>MOLECULE
3mvh_WFE_1_INTS_M
   88     0    12     0     0
SMALL
NO_CHARGES


@<TRIPOS>ATOM
      1 CA         18.1115   -1.4055   29.8695 C.3       4 GLC5        0.0000 
      2 CA         16.3290   -0.7580   29.3170 C.3      12 GLL5        0.0000 
      3 CA         19.8940   -2.0530   30.4220 C.3       8 GLP5        0.0000 
      4 CA         17.0865    0.4470   30.8890 C.3       4 GLC5        0.0000 
      5 CA         17.8440    1.6520   32.4610 C.3       8 GLP5        0.0000 
      6 CA         11.6530   -1.6185   29.0750 C.3       4 GLC5        0.0000 
      7 CA         13.3260   -2.4040   29.2320 C.3      12 GLL5        0.0000 
      8 CA          9.9800   -0.8330   28.9180 C.3       8 GLP5        0.0000 
      9 O          11.7460   -3.9080   30.2440 O.2       1 ALC1        0.0000 
     10 O          12.9200   -3.6380   29.5790 O.2       9 ALL1        0.0000 
     11 O          10.5720   -4.1780   30.9090 O.2       5 ALP1        0.0000 
     12 CA         12.5675   -5.6215   30.6625 C.3       4 GLC5        0.0000 
     13 CA         13.9460   -4.5060   29.4260 C.3      12 GLL5        0.0000 
     14 CA         11.1890   -6.7370   31.8990 C.3       8 GLP5        0.0000 
     15 N          12.6120   -6.6530   29.6690 N.am      2 SEC2        0.0000 
     16 N          13.8940   -5.8380   29.7230 N.am     10 SEL2        0.0000 
     17 N          11.3300   -7.4680   29.6150 N.am      6 SEP2        0.0000 
     18 CA         16.2355   -7.1555   30.7575 C.3       4 GLC5        0.0000 
     19 CA         14.9940   -6.5990   29.5520 C.3      12 GLL5        0.0000 
     20 CA         17.4770   -7.7120   31.9630 C.3       8 GLP5        0.0000 
     21 CA         14.8130   -5.5005   31.1430 C.3       4 GLC5        0.0000 
     22 CA         14.6320   -4.4020   32.7340 C.3       8 GLP5        0.0000 
     23 CA         13.0915   -6.6680   30.7255 C.3       4 GLC5        0.0000 
     24 CA         13.0435   -7.4430   28.9850 C.3       4 GLC5        0.0000 
     25 CA         11.0930   -8.2870   28.4180 C.3       8 GLP5        0.0000 
     26 CA         15.2230   -7.0150   27.7070 C.3       4 GLC5        0.0000 
     27 CA         15.4520   -7.4310   25.8620 C.3       8 GLP5        0.0000 
     28 CA         19.1590   -6.4975   29.5500 C.3       4 GLC5        0.0000 
     29 CA         18.4990   -5.4200   28.0240 C.3      12 GLL5        0.0000 
     30 CA         19.8190   -7.5750   31.0760 C.3       8 GLP5        0.0000 
     31 CA         18.4700   -4.5100   29.8595 C.3       4 GLC5        0.0000 
     32 CA         18.4410   -3.6000   31.6950 C.3       8 GLP5        0.0000 
     33 CA         16.9755   -6.4255   26.9430 C.3       4 GLC5        0.0000 
     34 CA         17.9510   -7.3710   28.1710 C.3       4 GLC5        0.0000 
     35 CA         17.4030   -9.3220   28.3180 C.3       8 GLP5        0.0000 
     36 CA         21.3905   -4.9590   28.1690 C.3       4 GLC5        0.0000 
     37 CA         19.5030   -4.7300   27.0680 C.3      12 GLL5        0.0000 
     38 CA         23.2780   -5.1880   29.2700 C.3       8 GLP5        0.0000 
     39 CA         19.6985   -3.3915   28.7450 C.3       4 GLC5        0.0000 
     40 OD1        18.9510   -5.1960   24.4245 O.co2     3 ASC3        0.0000 
     41 OD1        17.9770   -4.7660   25.5010 O.co2    11 ASL3        0.0000 
     42 OD1        19.9250   -5.6260   23.3480 O.co2     7 ASP3        0.0000 
     43 O          18.9510   -5.1960   24.4245 O.2       1 ALC1        0.0000 
     44 O          17.9770   -4.7660   25.5010 O.2       9 ALL1        0.0000 
     45 O          19.9250   -5.6260   23.3480 O.2       5 ALP1        0.0000 
     46 O          18.5080   -0.7615   25.4265 O.2       1 ALC1        0.0000 
     47 O          19.7190   -1.5480   26.0970 O.2       9 ALL1        0.0000 
     48 O          17.2970    0.0250   24.7560 O.2       5 ALP1        0.0000 
     49 CA         24.0850    4.4030   29.3390 C.3       4 GLC5        0.0000 
     50 CA         22.9750    2.8300   29.4040 C.3      12 GLL5        0.0000 
     51 CA         25.1950    5.9760   29.2740 C.3       8 GLP5        0.0000 
     52 CA         24.2060    2.7475   30.8840 C.3       4 GLC5        0.0000 
     53 CA         25.4370    2.6650   32.3640 C.3       8 GLP5        0.0000 
     54 CA         24.8265    0.3790   28.2120 C.3       4 GLC5        0.0000 
     55 CA         22.8680    0.5560   29.0210 C.3      12 GLL5        0.0000 
     56 CA         26.7850    0.2020   27.4030 C.3       8 GLP5        0.0000 
     57 CA         23.3540   -0.1010   30.8780 C.3       4 GLC5        0.0000 
     58 CA         23.8400   -0.7580   32.7350 C.3       8 GLP5        0.0000 
     59 CA         23.0070   -3.4725   28.9490 C.3       4 GLC5        0.0000 
     60 CA         22.7360   -1.7570   28.6280 C.3      12 GLL5        0.0000 
     61 CA         23.2880   -1.2575   30.6815 C.3       4 GLC5        0.0000 
     62 CA         18.8525   -2.6260   29.0035 C.3       4 GLC5        0.0000 
     63 CA         17.8110   -3.1990   27.5850 C.3      12 GLL5        0.0000 
     64 CA         15.0942   -0.1765   30.1068 C.3       4 GLC5        0.0000 
     65 CA         15.3980   -1.3020   28.2480 C.3      12 GLL5        0.0000 
     66 CA         14.3250    0.6770   31.4310 C.3       8 GLP5        0.0000 
     67 CA         14.3055   -3.4250   30.8695 C.3       4 GLC5        0.0000 
     68 CA         14.6320   -2.4920   28.7780 C.3      12 GLL5        0.0000 
     69 CA         14.1520   -0.8855   30.2180 C.3       4 GLC5        0.0000 
     70 CA         17.0237   -3.9495   30.2388 C.3       4 GLC5        0.0000 
     71 CA         15.0450   -3.8740   28.9040 C.3      12 GLL5        0.0000 
     72 CA         14.9819   -4.4295   30.8235 C.3       4 GLC5        0.0000 
     73 CA         16.1680   -4.7240   28.6610 C.3      12 GLL5        0.0000 
     74 CA         15.0859   -5.0905   27.2705 C.3       4 GLC5        0.0000 
     75 CA         14.8400   -5.7240   25.6280 C.3       8 GLP5        0.0000 
     76 CA         16.5272   -4.6037   26.2998 C.3       4 GLC5        0.0000 
     77 CA         20.0010    2.7105   28.3820 C.3       4 GLC5        0.0000 
     78 CA         21.0200    1.0060   26.9730 C.3      12 GLL5        0.0000 
     79 CA         18.7230    3.8730   29.4350 C.3       8 GLP5        0.0000 
     80 CA         20.7163    3.1030   29.2455 C.3       4 GLC5        0.0000 
     81 CA         22.4440    1.8360   28.7080 C.3      12 GLL5        0.0000 
     82 CA         22.1613    3.6350   30.3845 C.3       4 GLC5        0.0000 
     83 CA         21.6130    4.9370   31.7130 C.3       8 GLP5        0.0000 
     84 CA         24.3345   -1.7125   29.2425 C.3       4 GLC5        0.0000 
     85 CA         25.9940   -2.5580   29.8390 C.3       8 GLP5        0.0000 
     86 CA         21.2261   -1.4462   29.4717 C.3       4 GLC5        0.0000 
     87 CA         13.9049   -2.6286   27.2266 C.3       4 GLC5        0.0000 
     88 CA         13.2020   -2.2450   25.5650 C.3       8 GLP5        0.0000 
@<TRIPOS>BOND
@<TRIPOS>SUBSTRUCTURE
     1 ALC1        9 GROUP        1 X    ALC  0     ROOT ALC X 1
     2 SEC2       15 GROUP        1 X    SEC  0     **** SEC X 2
     3 ASC3       40 GROUP        1 X    ASC  0     **** ASC X 3
     4 GLC5        1 GROUP        1 X    GLC  0     **** GLC X 6
     5 ALP1       11 GROUP        1 Y    ALP  0     ROOT ALP Y 8
     6 SEP2       17 GROUP        1 Y    SEP  0     **** SEP Y 9
     7 ASP3       42 GROUP        1 Y    ASP  0     **** ASP Y 10
     8 GLP5        3 GROUP        1 Y    GLP  0     **** GLP Y 13
     9 ALL1       10 GROUP        1 Z    ALL  0     ROOT ALL Z 15
    10 SEL2       16 GROUP        1 Z    SEL  0     **** SEL Z 16
    11 ASL3       41 GROUP        1 Z    ASL  0     **** ASL Z 17
    12 GLL5        2 GROUP        1 Z    GLL  0     **** GLL Z 20
@<TRIPOS>SET

