#    Name: 3mvh_WFE_1_ligand
#    Modification time : Mon Mar 24 23:42:51 2014

@<TRIPOS>MOLECULE
3mvh_WFE_1_ligand
   52    55     1     0     0
SMALL
NO_CHARGES


@<TRIPOS>ATOM
      1 C1         16.3290   -0.7580   29.3170 C.3       1 WFE999      0.0000 
      2 C2         15.3980   -1.3020   28.2480 C.3       1 WFE999      0.0000 
      3 C3         14.6320   -2.4920   28.7780 C.2       1 WFE999      0.0000 
      4 C4         13.3260   -2.4040   29.2320 C.2       1 WFE999      0.0000 
      5 N5         12.9200   -3.6380   29.5790 N.pl3     1 WFE999      0.0000 
      6 C6         13.9460   -4.5060   29.4260 C.ar      1 WFE999      0.0000 
      7 N7         13.8940   -5.8380   29.7230 N.ar      1 WFE999      0.0000 
      8 C8         14.9940   -6.5990   29.5520 C.ar      1 WFE999      0.0000 
      9 N9         16.0980   -6.0270   29.0160 N.ar      1 WFE999      0.0000 
     10 C10        16.1680   -4.7240   28.6610 C.ar      1 WFE999      0.0000 
     11 N11        17.3910   -4.4220   28.1630 N.3       1 WFE999      0.0000 
     12 C12        18.4990   -5.4200   28.0240 C.3       1 WFE999      0.0000 
     13 C13        19.5030   -4.7300   27.0680 C.3       1 WFE999      0.0000 
     14 C14        18.6180   -3.7680   26.3580 C.3       1 WFE999      0.0000 
     15 N15        17.9770   -4.7660   25.5010 N.4       1 WFE999      0.0000 
     16 C16        19.2290   -2.7400   25.3980 C.3       1 WFE999      0.0000 
     17 N17        19.7190   -1.5480   26.0970 N.am      1 WFE999      0.0000 
     18 C18        20.9200   -1.4910   26.5970 C.2       1 WFE999      0.0000 
     19 O19        21.6830   -2.4370   26.4770 O.2       1 WFE999      0.0000 
     20 C20        21.4250   -0.2890   27.3100 C.ar      1 WFE999      0.0000 
     21 C21        21.0200    1.0060   26.9730 C.ar      1 WFE999      0.0000 
     22 C22        21.5380    2.0900   27.6850 C.ar      1 WFE999      0.0000 
     23 C23        22.4440    1.8360   28.7080 C.ar      1 WFE999      0.0000 
     24 F24        22.9750    2.8300   29.4040 F         1 WFE999      0.0000 
     25 C25        22.8680    0.5560   29.0210 C.ar      1 WFE999      0.0000 
     26 C26        22.3600   -0.5100   28.3070 C.ar      1 WFE999      0.0000 
     27 F27        22.7360   -1.7570   28.6280 F         1 WFE999      0.0000 
     28 C28        17.8110   -3.1990   27.5850 C.3       1 WFE999      0.0000 
     29 C29        15.0450   -3.8740   28.9040 C.ar      1 WFE999      0.0000 
     30 H          15.9835   -1.6022   27.3800 H         1 WFE999      0.0000 
     31 H          14.6991   -0.5221   27.9489 H         1 WFE999      0.0000 
     32 H          12.8199   -1.5923   29.2810 H         1 WFE999      0.0000 
     33 H          12.0305   -3.8738   29.8911 H         1 WFE999      0.0000 
     34 H          14.9969   -7.5940   29.8224 H         1 WFE999      0.0000 
     35 H          18.1495   -6.3127   27.5673 H         1 WFE999      0.0000 
     36 H          18.9759   -5.5889   28.9576 H         1 WFE999      0.0000 
     37 H          19.8923   -5.4518   26.4064 H         1 WFE999      0.0000 
     38 H          20.2295   -4.2286   27.6434 H         1 WFE999      0.0000 
     39 H          18.4603   -2.4676   24.6574 H         1 WFE999      0.0000 
     40 H          20.0473   -3.2322   24.8488 H         1 WFE999      0.0000 
     41 H          19.0334   -0.7611   26.1586 H         1 WFE999      0.0000 
     42 H          20.3532    1.1568   26.2150 H         1 WFE999      0.0000 
     43 H          21.2575    3.0399   27.4584 H         1 WFE999      0.0000 
     44 H          23.5483    0.4045   29.7713 H         1 WFE999      0.0000 
     45 H          18.4926   -2.6624   28.1812 H         1 WFE999      0.0000 
     46 H          17.0209   -2.6231   27.1950 H         1 WFE999      0.0000 
     47 H          16.9947   -1.4429   29.6132 H         1 WFE999      0.0000 
     48 H          16.8472    0.0326   28.9909 H         1 WFE999      0.0000 
     49 H          15.8282   -0.4646   30.1313 H         1 WFE999      0.0000 
     50 H          18.6064   -5.1214   24.8099 H         1 WFE999      0.0000 
     51 H          17.6462   -5.5496   26.0268 H         1 WFE999      0.0000 
     52 H          17.1904   -4.3869   25.0137 H         1 WFE999      0.0000 
@<TRIPOS>BOND
     1    2    1 1    
     2   47    1 1    
     3   48    1 1    
     4   49    1 1    
     5    3    2 1    
     6   30    2 1    
     7   31    2 1    
     8    4    3 2    
     9   29    3 1    
    10    5    4 1    
    11   32    4 1    
    12    6    5 1    
    13   33    5 1    
    14    7    6 ar   
    15   29    6 ar   
    16    8    7 ar   
    17    9    8 ar   
    18   34    8 1    
    19   10    9 ar   
    20   11   10 1    
    21   29   10 ar   
    22   12   11 1    
    23   28   11 1    
    24   13   12 1    
    25   35   12 1    
    26   36   12 1    
    27   14   13 1    
    28   37   13 1    
    29   38   13 1    
    30   15   14 1    
    31   16   14 1    
    32   28   14 1    
    33   50   15 1    
    34   51   15 1    
    35   52   15 1    
    36   17   16 1    
    37   39   16 1    
    38   40   16 1    
    39   18   17 am   
    40   41   17 1    
    41   19   18 2    
    42   20   18 1    
    43   21   20 ar   
    44   26   20 ar   
    45   22   21 ar   
    46   42   21 1    
    47   23   22 ar   
    48   43   22 1    
    49   24   23 1    
    50   25   23 ar   
    51   26   25 ar   
    52   44   25 1    
    53   27   26 1    
    54   45   28 1    
    55   46   28 1    
@<TRIPOS>SUBSTRUCTURE
     1 WFE999      1 GROUP   
@<TRIPOS>SET

