#    Name: 4iae_1DX_2_INTS_M
#    Modification time : Tue Mar 25 02:48:38 2014

@<TRIPOS>MOLECULE
4iae_1DX_2_INTS_M
  141     0     9     0     0
SMALL
NO_CHARGES


@<TRIPOS>ATOM
      1 CA         -7.0725   33.5090   88.7230 C.3       3 GLC5        0.0000 
      2 CA         -7.8740   34.4290   87.2050 C.3       9 GLL5        0.0000 
      3 CA         -6.2710   32.5890   90.2410 C.3       6 GLP5        0.0000 
      4 NZ         -5.5580   33.1645   75.5895 N.4       2 LYC4        0.0000 
      5 NZ         -4.8340   33.4570   76.6960 N.4       8 LYL4        0.0000 
      6 NZ         -6.4360   33.4440   73.2930 N.4       5 LYP4        0.0000 
      7 N          -3.2645   33.7660   76.9040 N.am      1 SEC2        0.0000 
      8 N          -4.8340   33.4570   76.6960 N.am      7 SEL2        0.0000 
      9 N          -1.6950   34.0750   77.1120 N.am      4 SEP2        0.0000 
     10 N          -5.5580   33.1645   75.5895 N.am      1 SEC2        0.0000 
     11 N          -6.2820   32.8720   74.4830 N.am      4 SEP2        0.0000 
     12 NZ         -7.4715   31.8720   74.2080 N.4       2 LYC4        0.0000 
     13 NZ         -8.6610   30.8720   73.9330 N.4       8 LYL4        0.0000 
     14 N          -8.0935   29.6005   73.7770 N.am      1 SEC2        0.0000 
     15 N          -8.6610   30.8720   73.9330 N.am      7 SEL2        0.0000 
     16 N          -7.5260   28.3290   73.6210 N.am      4 SEP2        0.0000 
     17 N          -7.4715   31.8720   74.2080 N.am      1 SEC2        0.0000 
     18 N          -7.9030   31.8605   73.1290 N.am      1 SEC2        0.0000 
     19 N          -7.1450   32.8490   72.3250 N.am      4 SEP2        0.0000 
     20 N          -3.2300   35.3585   79.0915 N.am      1 SEC2        0.0000 
     21 N          -3.9570   34.4010   78.4280 N.am      7 SEL2        0.0000 
     22 N          -2.5030   36.3160   79.7550 N.am      4 SEP2        0.0000 
     23 N          -2.8260   34.2380   77.7700 N.am      1 SEC2        0.0000 
     24 CA         -8.2815   35.5780   84.4975 C.3       3 GLC5        0.0000 
     25 CA         -8.5350   33.7750   85.0050 C.3       9 GLL5        0.0000 
     26 CA         -8.0280   37.3810   83.9900 C.3       6 GLP5        0.0000 
     27 N         -11.5750   32.5520   72.6290 N.am      1 SEC2        0.0000 
     28 N         -10.5630   31.8410   73.4580 N.am      7 SEL2        0.0000 
     29 N         -12.5870   33.2630   71.8000 N.am      4 SEP2        0.0000 
     30 CA        -15.6325   31.2475   73.5465 C.3       3 GLC5        0.0000 
     31 CA        -16.7580   30.6070   74.4630 C.3       9 GLL5        0.0000 
     32 CA        -14.5070   31.8880   72.6300 C.3       6 GLP5        0.0000 
     33 CA        -17.1305   32.3515   75.0555 C.3       3 GLC5        0.0000 
     34 CA        -17.5030   34.0960   75.6480 C.3       6 GLP5        0.0000 
     35 CA        -17.9695   30.3345   72.7605 C.3       3 GLC5        0.0000 
     36 CA        -19.1810   30.0620   71.0580 C.3       6 GLP5        0.0000 
     37 CA        -14.8760   27.6485   76.1650 C.3       3 GLC5        0.0000 
     38 CA        -15.8160   28.6780   74.4640 C.3       9 GLL5        0.0000 
     39 CA        -13.9360   26.6190   77.8660 C.3       6 GLP5        0.0000 
     40 CA        -16.2160   27.0655   74.5845 C.3       3 GLC5        0.0000 
     41 CA        -16.6160   25.4530   74.7050 C.3       6 GLP5        0.0000 
     42 CA        -19.2240   28.8315   73.9390 C.3       3 GLC5        0.0000 
     43 CA        -17.8260   28.9500   75.2530 C.3       9 GLL5        0.0000 
     44 CA        -20.6220   28.7130   72.6250 C.3       6 GLP5        0.0000 
     45 CA        -18.8705   29.1770   77.0580 C.3       3 GLC5        0.0000 
     46 CA        -19.9150   29.4040   78.8630 C.3       6 GLP5        0.0000 
     47 CA        -14.9620   31.1360   84.8180 C.3       3 GLC5        0.0000 
     48 CA        -14.5980   30.9690   82.6680 C.3       9 GLL5        0.0000 
     49 CA        -15.3260   31.3030   86.9680 C.3       6 GLP5        0.0000 
     50 CA         -9.3745   30.2790   79.4555 C.3       3 GLC5        0.0000 
     51 CA         -9.2580   31.8200   78.0760 C.3       9 GLL5        0.0000 
     52 CA         -9.4910   28.7380   80.8350 C.3       6 GLP5        0.0000 
     53 CA         -7.5815   29.9610   77.2035 C.3       3 GLC5        0.0000 
     54 CA         -9.0840   31.3700   76.7540 C.3       9 GLL5        0.0000 
     55 CA         -6.0790   28.5520   77.6530 C.3       6 GLP5        0.0000 
     56 CA         -5.6825   33.3065   80.0755 C.3       3 GLC5        0.0000 
     57 CA         -6.4150   35.2330   79.5090 C.3       9 GLL5        0.0000 
     58 CA         -4.9500   31.3800   80.6420 C.3       6 GLP5        0.0000 
     59 CA         -7.8920   36.6235   81.9465 C.3       3 GLC5        0.0000 
     60 CA         -7.7560   35.8660   79.9030 C.3       9 GLL5        0.0000 
     61 CA         -7.4750   35.3365   76.7300 C.3       3 GLC5        0.0000 
     62 CA         -6.3330   34.7050   78.0840 C.3       9 GLL5        0.0000 
     63 CA         -8.6170   35.9680   75.3760 C.3       6 GLP5        0.0000 
     64 CA         -5.9375   32.7305   78.7575 C.3       3 GLC5        0.0000 
     65 CA         -5.5420   30.7560   79.4310 C.3       6 GLP5        0.0000 
     66 CA         -5.7015   35.0620   76.0010 C.3       3 GLC5        0.0000 
     67 CA         -5.0700   35.4190   73.9180 C.3       6 GLP5        0.0000 
     68 CA         -8.8055   35.5245   77.4350 C.3       3 GLC5        0.0000 
     69 CA         -8.9940   35.0810   79.4940 C.3       9 GLL5        0.0000 
     70 CA         -8.1295   36.8870   79.3955 C.3       3 GLC5        0.0000 
     71 CA         -7.2650   38.6930   79.2970 C.3       6 GLP5        0.0000 
     72 CA        -11.2350   35.1655   82.3155 C.3       3 GLC5        0.0000 
     73 CA         -9.3620   34.3450   81.7260 C.3       9 GLL5        0.0000 
     74 CA        -13.1080   35.9860   82.9050 C.3       6 GLP5        0.0000 
     75 CA         -8.6950   35.8630   82.8580 C.3       3 GLC5        0.0000 
     76 CA        -13.9320   31.4635   85.4920 C.3       3 GLC5        0.0000 
     77 CA        -12.5380   31.6240   84.0160 C.3       9 GLL5        0.0000 
     78 CA        -12.5990   29.6435   84.0195 C.3       3 GLC5        0.0000 
     79 CA        -12.6600   27.6630   84.0230 C.3       6 GLP5        0.0000 
     80 CA        -12.3115   33.8475   79.8285 C.3       3 GLC5        0.0000 
     81 CA        -10.4050   33.2120   79.8410 C.3       9 GLL5        0.0000 
     82 CA        -14.2180   34.4830   79.8160 C.3       6 GLP5        0.0000 
     83 N         -12.5215   33.8650   82.9025 N.am      1 SEC2        0.0000 
     84 N         -11.8320   32.8440   83.7210 N.am      7 SEL2        0.0000 
     85 N         -13.2110   34.8860   82.0840 N.am      4 SEP2        0.0000 
     86 CA        -14.3945   28.4860   80.2630 C.3       3 GLC5        0.0000 
     87 CA        -14.4090   30.6020   80.2530 C.3       9 GLL5        0.0000 
     88 CA        -14.3800   26.3700   80.2730 C.3       6 GLP5        0.0000 
     89 CA        -14.6125   31.0165   74.6210 C.3       3 GLC5        0.0000 
     90 CA        -14.7180   30.1450   76.6120 C.3       9 GLL5        0.0000 
     91 CA         -8.4737   36.0630   86.5825 C.3       3 GLC5        0.0000 
     92 CA         -8.8290   34.0170   86.3490 C.3       9 GLL5        0.0000 
     93 CA         -8.5960   37.9030   86.3880 C.3       6 GLP5        0.0000 
     94 CA        -10.5518   35.4873   85.5285 C.3       3 GLC5        0.0000 
     95 CA        -10.1210   33.8330   86.8080 C.3       9 GLL5        0.0000 
     96 CA        -10.4830   37.3340   84.6990 C.3       6 GLP5        0.0000 
     97 CA         -9.2486   34.1715   88.7772 C.3       3 GLC5        0.0000 
     98 CA         -9.2610   34.3150   90.7620 C.3       6 GLP5        0.0000 
     99 CA         -7.9303   32.4198   86.2764 C.3       3 GLC5        0.0000 
    100 CA         -6.9750   30.9380   86.6540 C.3       6 GLP5        0.0000 
    101 CA        -17.0940   31.2915   77.4590 C.3       3 GLC5        0.0000 
    102 CA        -16.8210   29.6190   77.6230 C.3       9 GLL5        0.0000 
    103 CA        -17.7590   32.9020   77.8660 C.3       6 GLP5        0.0000 
    104 CA        -15.1825   28.1500   77.4590 C.3       3 GLC5        0.0000 
    105 CA        -15.2442   29.7978   73.4300 C.3       3 GLC5        0.0000 
    106 CA        -16.6210   29.4690   75.1300 C.3       9 GLL5        0.0000 
    107 CA        -14.2700   30.5220   72.0630 C.3       6 GLP5        0.0000 
    108 CA        -17.5822   27.4368   75.1188 C.3       3 GLC5        0.0000 
    109 CA        -17.9410   25.6640   75.0460 C.3       6 GLP5        0.0000 
    110 CA        -16.6923   31.5057   78.4032 C.3       3 GLC5        0.0000 
    111 CA        -16.2870   29.9010   78.8730 C.3       9 GLL5        0.0000 
    112 CA        -14.7807   28.3642   78.4032 C.3       3 GLC5        0.0000 
    113 CA        -16.1098   31.6017   77.5515 C.3       3 GLC5        0.0000 
    114 CA        -14.2030   30.4580   77.8620 C.3       9 GLL5        0.0000 
    115 CA        -14.1982   28.4602   77.5515 C.3       3 GLC5        0.0000 
    116 CA        -12.8777   29.3897   76.4845 C.3       3 GLC5        0.0000 
    117 CA        -11.2950   28.4780   75.7320 C.3       6 GLP5        0.0000 
    118 CA        -11.1303   29.8895   80.8978 C.3       3 GLC5        0.0000 
    119 CA        -13.0580   30.8940   80.3410 C.3       9 GLL5        0.0000 
    120 CA        -15.9340   32.6310   81.9695 C.3       3 GLC5        0.0000 
    121 CA        -16.9860   34.4340   81.8960 C.3       6 GLP5        0.0000 
    122 CA        -15.6080   29.0590   82.6420 C.3       3 GLC5        0.0000 
    123 CA        -15.1660   30.6870   81.4180 C.3       9 GLL5        0.0000 
    124 CA        -16.3340   27.2900   83.2410 C.3       6 GLP5        0.0000 
    125 CA        -13.1944   29.3770   83.2189 C.3       3 GLC5        0.0000 
    126 CA        -13.2380   31.2380   82.7430 C.3       9 GLL5        0.0000 
    127 CA         -7.3565   31.1755   78.4230 C.3       3 GLC5        0.0000 
    128 CA        -11.8893   34.4865   76.1705 C.3       3 GLC5        0.0000 
    129 CA        -10.8290   32.8610   76.0390 C.3       9 GLL5        0.0000 
    130 CA        -12.8480   35.9100   75.6400 C.3       6 GLP5        0.0000 
    131 CA        -10.7196   30.3666   75.9350 C.3       3 GLC5        0.0000 
    132 CA         -9.8350   31.9290   75.7200 C.3       9 GLL5        0.0000 
    133 CA         -5.6530   36.4440   77.8097 C.3       3 GLC5        0.0000 
    134 CA         -4.9320   37.9190   76.8230 C.3       6 GLP5        0.0000 
    135 CA         -6.9871   36.9101   79.0960 C.3       3 GLC5        0.0000 
    136 CA         -9.4999   34.2320   75.7933 C.3       3 GLC5        0.0000 
    137 CA        -11.0320   33.2650   77.3630 C.3       9 GLL5        0.0000 
    138 CA         -9.5604   31.5004   85.2215 C.3       3 GLC5        0.0000 
    139 CA         -9.5290   33.4080   84.1040 C.3       9 GLL5        0.0000 
    140 CA         -8.8730   29.6340   85.7710 C.3       6 GLP5        0.0000 
    141 CA        -10.3270   35.3197   84.5185 C.3       3 GLC5        0.0000 
@<TRIPOS>BOND
@<TRIPOS>SUBSTRUCTURE
     1 SEC2        7 GROUP        1 X    SEC  0     ROOT SEC X 2
     2 LYC4        4 GROUP        1 X    LYC  0     **** LYC X 4
     3 GLC5        1 GROUP        1 X    GLC  0     **** GLC X 6
     4 SEP2        9 GROUP        1 Y    SEP  0     ROOT SEP Y 9
     5 LYP4        6 GROUP        1 Y    LYP  0     **** LYP Y 11
     6 GLP5        3 GROUP        1 Y    GLP  0     **** GLP Y 13
     7 SEL2        8 GROUP        1 Z    SEL  0     ROOT SEL Z 16
     8 LYL4        5 GROUP        1 Z    LYL  0     **** LYL Z 18
     9 GLL5        2 GROUP        1 Z    GLL  0     **** GLL Z 20
@<TRIPOS>SET

