#    Name: 4iae_1DX_2_ligand
#    Modification time : Tue Mar 25 02:48:38 2014

@<TRIPOS>MOLECULE
4iae_1DX_2_ligand
   77    80     1     0     0
SMALL
NO_CHARGES


@<TRIPOS>ATOM
      1 FAA        -7.8740   34.4290   87.2050 F         1 1DX201      0.0000 
      2 OAA        -4.8340   33.4570   76.6960 O.co2     1 1DX201      0.0000 
      3 CAB       -10.1210   33.8330   86.8080 C.ar      1 1DX201      0.0000 
      4 OAB        -8.6610   30.8720   73.9330 O.co2     1 1DX201      0.0000 
      5 CAC        -8.8290   34.0170   86.3490 C.ar      1 1DX201      0.0000 
      6 OAC        -3.9570   34.4010   78.4280 O.co2     1 1DX201      0.0000 
      7 CAD        -8.5350   33.7750   85.0050 C.ar      1 1DX201      0.0000 
      8 OAD       -10.5630   31.8410   73.4580 O.co2     1 1DX201      0.0000 
      9 CAE       -11.1200   33.4480   85.9080 C.ar      1 1DX201      0.0000 
     10 FAE       -16.7580   30.6070   74.4630 F         1 1DX201      0.0000 
     11 CAG       -16.8210   29.6190   77.6230 C.ar      1 1DX201      0.0000 
     12 CAH       -16.0370   29.7430   76.4810 C.ar      1 1DX201      0.0000 
     13 CAI       -16.6210   29.4690   75.1300 C.3       1 1DX201      0.0000 
     14 CAJ       -16.2870   29.9010   78.8730 C.ar      1 1DX201      0.0000 
     15 FAJ       -15.8160   28.6780   74.4640 F         1 1DX201      0.0000 
     16 CAK       -14.2030   30.4580   77.8620 C.ar      1 1DX201      0.0000 
     17 FAK       -17.8260   28.9500   75.2530 F         1 1DX201      0.0000 
     18 CAN       -13.0580   30.8940   80.3410 C.ar      1 1DX201      0.0000 
     19 CAO       -15.1660   30.6870   81.4180 C.ar      1 1DX201      0.0000 
     20 CAP       -12.4810   31.1880   81.5800 C.ar      1 1DX201      0.0000 
     21 CAQ       -14.5980   30.9690   82.6680 C.ar      1 1DX201      0.0000 
     22 CAR        -9.2580   31.8200   78.0760 C.ar      1 1DX201      0.0000 
     23 CAS       -11.0320   33.2650   77.3630 C.ar      1 1DX201      0.0000 
     24 CAT        -9.0840   31.3700   76.7540 C.ar      1 1DX201      0.0000 
     25 CAU       -10.8290   32.8610   76.0390 C.ar      1 1DX201      0.0000 
     26 CAV        -6.4150   35.2330   79.5090 C.3       1 1DX201      0.0000 
     27 CAW        -7.7560   35.8660   79.9030 C.3       1 1DX201      0.0000 
     28 CAX        -6.3330   34.7050   78.0840 C.3       1 1DX201      0.0000 
     29 CBA        -9.1900   33.1420   82.6370 C.3       1 1DX201      0.0000 
     30 CBB        -8.9940   35.0810   79.4940 C.3       1 1DX201      0.0000 
     31 CBC        -9.3620   34.3450   81.7260 C.3       1 1DX201      0.0000 
     32 CBD       -12.5380   31.6240   84.0160 C.3       1 1DX201      0.0000 
     33 CBE       -10.4050   33.2120   79.8410 C.3       1 1DX201      0.0000 
     34 OBF       -11.8320   32.8440   83.7210 O.3       1 1DX201      0.0000 
     35 CBG        -4.9690   34.1420   77.7330 C.2       1 1DX201      0.0000 
     36 CBH        -9.6740   31.5140   74.2820 C.2       1 1DX201      0.0000 
     37 CBI       -14.9640   30.3180   79.0080 C.ar      1 1DX201      0.0000 
     38 CBJ       -14.4090   30.6020   80.2530 C.ar      1 1DX201      0.0000 
     39 CBK       -13.2380   31.2380   82.7430 C.ar      1 1DX201      0.0000 
     40 CBL       -10.2230   32.7560   78.3910 C.ar      1 1DX201      0.0000 
     41 CBM        -9.8350   31.9290   75.7200 C.ar      1 1DX201      0.0000 
     42 CBN        -9.5290   33.4080   84.1040 C.ar      1 1DX201      0.0000 
     43 CBO       -10.8130   33.2030   84.5720 C.ar      1 1DX201      0.0000 
     44 NBP        -9.1940   33.9110   80.3330 N.4       1 1DX201      0.0000 
     45 CZD       -14.7180   30.1450   76.6120 C.ar      1 1DX201      0.0000 
     46 H         -10.3506   33.9755   87.7953 H         1 1DX201      0.0000 
     47 H          -7.5576   33.8714   84.6758 H         1 1DX201      0.0000 
     48 H         -12.0905   33.3455   86.2389 H         1 1DX201      0.0000 
     49 H         -17.8027   29.3163   77.5397 H         1 1DX201      0.0000 
     50 H         -16.8768   29.8011   79.7167 H         1 1DX201      0.0000 
     51 H         -13.2260   30.8042   77.9360 H         1 1DX201      0.0000 
     52 H         -12.4719   30.8960   79.4947 H         1 1DX201      0.0000 
     53 H         -16.1979   30.5354   81.3628 H         1 1DX201      0.0000 
     54 H         -11.4597   31.3731   81.6276 H         1 1DX201      0.0000 
     55 H         -15.1795   30.9750   83.5054 H         1 1DX201      0.0000 
     56 H          -8.6459   31.4355   78.8173 H         1 1DX201      0.0000 
     57 H         -11.7758   33.9370   77.5859 H         1 1DX201      0.0000 
     58 H          -8.4025   30.6296   76.5562 H         1 1DX201      0.0000 
     59 H         -11.4179   33.2540   75.2902 H         1 1DX201      0.0000 
     60 H          -6.1967   34.4045   80.2136 H         1 1DX201      0.0000 
     61 H          -5.6132   35.9841   79.6619 H         1 1DX201      0.0000 
     62 H          -7.8097   36.8808   79.4595 H         1 1DX201      0.0000 
     63 H          -7.7673   36.0102   81.0023 H         1 1DX201      0.0000 
     64 H          -6.5783   35.5199   77.3858 H         1 1DX201      0.0000 
     65 H          -7.0935   33.9207   77.9487 H         1 1DX201      0.0000 
     66 H          -8.1455   32.7869   82.5736 H         1 1DX201      0.0000 
     67 H          -9.8269   32.3168   82.2703 H         1 1DX201      0.0000 
     68 H          -8.8813   34.7903   78.4367 H         1 1DX201      0.0000 
     69 H          -9.8626   35.7573   79.5512 H         1 1DX201      0.0000 
     70 H          -8.6165   35.0923   81.9896 H         1 1DX201      0.0000 
     71 H         -10.3543   34.7628   81.8826 H         1 1DX201      0.0000 
     72 H         -13.2769   31.7713   84.7915 H         1 1DX201      0.0000 
     73 H         -11.8587   30.8310   84.2968 H         1 1DX201      0.0000 
     74 H         -10.6139   32.3321   80.4570 H         1 1DX201      0.0000 
     75 H         -11.2738   33.8754   79.8888 H         1 1DX201      0.0000 
     76 H          -8.3462   33.2559   80.2484 H         1 1DX201      0.0000 
     77 H         -14.1151   30.2124   75.7777 H         1 1DX201      0.0000 
@<TRIPOS>BOND
     1    5    1 1    
     2   35    2 ar   
     3    5    3 ar   
     4    9    3 ar   
     5   46    3 1    
     6   36    4 ar   
     7    7    5 ar   
     8   35    6 ar   
     9   42    7 ar   
    10   47    7 1    
    11   36    8 ar   
    12   43    9 ar   
    13   48    9 1    
    14   13   10 1    
    15   12   11 ar   
    16   14   11 ar   
    17   49   11 1    
    18   13   12 1    
    19   45   12 ar   
    20   15   13 1    
    21   17   13 1    
    22   37   14 ar   
    23   50   14 1    
    24   37   16 ar   
    25   45   16 ar   
    26   51   16 1    
    27   20   18 ar   
    28   38   18 ar   
    29   52   18 1    
    30   21   19 ar   
    31   38   19 ar   
    32   53   19 1    
    33   39   20 ar   
    34   54   20 1    
    35   39   21 ar   
    36   55   21 1    
    37   24   22 ar   
    38   40   22 ar   
    39   56   22 1    
    40   25   23 ar   
    41   40   23 ar   
    42   57   23 1    
    43   41   24 ar   
    44   58   24 1    
    45   41   25 ar   
    46   59   25 1    
    47   27   26 1    
    48   28   26 1    
    49   60   26 1    
    50   61   26 1    
    51   30   27 1    
    52   62   27 1    
    53   63   27 1    
    54   35   28 1    
    55   64   28 1    
    56   65   28 1    
    57   31   29 1    
    58   42   29 1    
    59   66   29 1    
    60   67   29 1    
    61   44   30 1    
    62   68   30 1    
    63   69   30 1    
    64   44   31 1    
    65   70   31 1    
    66   71   31 1    
    67   34   32 1    
    68   39   32 1    
    69   72   32 1    
    70   73   32 1    
    71   40   33 1    
    72   44   33 1    
    73   74   33 1    
    74   75   33 1    
    75   43   34 1    
    76   41   36 1    
    77   38   37 1    
    78   43   42 ar   
    79   76   44 1    
    80   77   45 1    
@<TRIPOS>SUBSTRUCTURE
     1 1DX201      1 GROUP   
@<TRIPOS>SET

