#    Name: 3ac8_KSK_1_INTS_M
#    Modification time : Tue Mar 25 11:41:30 2014

@<TRIPOS>MOLECULE
3ac8_KSK_1_INTS_M
   58     0    12     0     0
SMALL
NO_CHARGES


@<TRIPOS>ATOM
      1 CA         -0.0295    2.4800    5.5680 C.3       4 GLC5        0.0000 
      2 CA         -1.1160    2.8270    7.0970 C.3      12 GLL5        0.0000 
      3 CA          1.0570    2.1330    4.0390 C.3       8 GLP5        0.0000 
      4 CA         -2.8310   -1.9560    8.1505 C.3       4 GLC5        0.0000 
      5 CA         -3.2110   -0.1560    8.9420 C.3      12 GLL5        0.0000 
      6 CA         -2.4510   -3.7560    7.3590 C.3       8 GLP5        0.0000 
      7 N          -3.8945   -2.6980   11.4485 N.am      2 SEC2        0.0000 
      8 N          -3.6940   -2.0390   10.2060 N.am     10 SEL2        0.0000 
      9 N          -4.0950   -3.3570   12.6910 N.am      6 SEP2        0.0000 
     10 CA         -8.6920    0.7125    6.5685 C.3       4 GLC5        0.0000 
     11 CA         -8.6090    1.7800    8.2850 C.3      12 GLL5        0.0000 
     12 CA         -8.7750   -0.3550    4.8520 C.3       8 GLP5        0.0000 
     13 CA         -9.6640    0.9685   11.6700 C.3       4 GLC5        0.0000 
     14 CA        -11.3680   -0.1420   10.8840 C.3      12 GLL5        0.0000 
     15 CA         -7.9600    2.0790   12.4560 C.3       8 GLP5        0.0000 
     16 CA          2.1965    3.7860    7.8055 C.3       4 GLC5        0.0000 
     17 CA          1.1560    1.9270    7.6230 C.3      12 GLL5        0.0000 
     18 CA          3.2370    5.6450    7.9880 C.3       8 GLP5        0.0000 
     19 OD1        -1.1640    7.2370    6.9565 O.co2     3 ASC3        0.0000 
     20 OD1        -2.5400    7.2870    7.4180 O.co2    11 ASL3        0.0000 
     21 OD1         0.2120    7.1870    6.4950 O.co2     7 ASP3        0.0000 
     22 O          -2.9355    7.8115    8.8325 O.2       1 ALC1        0.0000 
     23 O          -2.5400    7.2870    7.4180 O.2       9 ALL1        0.0000 
     24 O          -3.3310    8.3360   10.2470 O.2       5 ALP1        0.0000 
     25 O          -1.4160    8.1090    8.0455 O.2       1 ALC1        0.0000 
     26 O          -0.2920    8.9310    8.6730 O.2       5 ALP1        0.0000 
     27 O          -1.1640    7.2370    6.9565 O.2       1 ALC1        0.0000 
     28 O           0.2120    7.1870    6.4950 O.2       5 ALP1        0.0000 
     29 CA          3.7810   -0.0165    8.8455 C.3       4 GLC5        0.0000 
     30 CA          1.7960    0.6950    8.2590 C.3      12 GLL5        0.0000 
     31 CA          5.7660   -0.7280    9.4320 C.3       8 GLP5        0.0000 
     32 CA          1.9515   -0.3070    9.9725 C.3       4 GLC5        0.0000 
     33 CA          2.1070   -1.3090   11.6860 C.3       8 GLP5        0.0000 
     34 CA         -1.4475    6.9435   10.1355 C.3       4 GLC5        0.0000 
     35 CA         -2.0570    5.3910    8.8510 C.3      12 GLL5        0.0000 
     36 CA         -0.8380    8.4960   11.4200 C.3       8 GLP5        0.0000 
     37 CA         -2.9260    4.3635   10.2545 C.3       4 GLC5        0.0000 
     38 CA         -3.7950    3.3360   11.6580 C.3       8 GLP5        0.0000 
     39 CA         -0.4155    4.5385   10.0595 C.3       4 GLC5        0.0000 
     40 CA          1.2260    3.6860   11.2680 C.3       8 GLP5        0.0000 
     41 CA         -5.4125    6.2675    9.8455 C.3       4 GLC5        0.0000 
     42 CA         -4.3950    5.9480    8.1860 C.3      12 GLL5        0.0000 
     43 CA         -6.4300    6.5870   11.5050 C.3       8 GLP5        0.0000 
     44 CA         -4.0950    4.6420    9.9220 C.3       4 GLC5        0.0000 
     45 CA         -2.3777    0.9533   10.0747 C.3       4 GLC5        0.0000 
     46 CA         -2.2760    0.8050    8.3430 C.3      12 GLL5        0.0000 
     47 CA         -2.0120    1.5820   11.5070 C.3       8 GLP5        0.0000 
     48 CA         -7.5340    1.4290   10.5485 C.3       4 GLC5        0.0000 
     49 CA         -6.9280    0.2180    9.0130 C.3      12 GLL5        0.0000 
     50 CA         -8.5237    1.7583   10.5575 C.3       4 GLC5        0.0000 
     51 CA         -8.2508    0.9190   11.1113 C.3       4 GLC5        0.0000 
     52 CA         -7.8830   -0.4560    9.7580 C.3      12 GLL5        0.0000 
     53 CA          1.2443    1.7510    5.6110 C.3       4 GLC5        0.0000 
     54 CA          1.3510    2.4985    9.6045 C.3       4 GLC5        0.0000 
     55 CA          2.4058   -1.2245    7.3765 C.3       4 GLC5        0.0000 
     56 CA          3.0600   -3.2020    7.2520 C.3       8 GLP5        0.0000 
     57 CA         -7.9966   -0.7780    7.8679 C.3       4 GLC5        0.0000 
     58 CA         -7.5540   -1.9040    6.4340 C.3       8 GLP5        0.0000 
@<TRIPOS>BOND
@<TRIPOS>SUBSTRUCTURE
     1 ALC1       22 GROUP        1 X    ALC  0     ROOT ALC X 1
     2 SEC2        7 GROUP        1 X    SEC  0     **** SEC X 2
     3 ASC3       19 GROUP        1 X    ASC  0     **** ASC X 3
     4 GLC5        1 GROUP        1 X    GLC  0     **** GLC X 6
     5 ALP1       24 GROUP        1 Y    ALP  0     ROOT ALP Y 8
     6 SEP2        9 GROUP        1 Y    SEP  0     **** SEP Y 9
     7 ASP3       21 GROUP        1 Y    ASP  0     **** ASP Y 10
     8 GLP5        3 GROUP        1 Y    GLP  0     **** GLP Y 13
     9 ALL1       23 GROUP        1 Z    ALL  0     ROOT ALL Z 15
    10 SEL2        8 GROUP        1 Z    SEL  0     **** SEL Z 16
    11 ASL3       20 GROUP        1 Z    ASL  0     **** ASL Z 17
    12 GLL5        2 GROUP        1 Z    GLL  0     **** GLL Z 20
@<TRIPOS>SET

