#    Name: 3ac8_KSK_1_ligand
#    Modification time : Tue Mar 25 11:41:30 2014

@<TRIPOS>MOLECULE
3ac8_KSK_1_ligand
   62    65     1     0     0
SMALL
NO_CHARGES


@<TRIPOS>ATOM
      1 N1         -3.0770    1.7260    7.7890 N.pl3     1 KSK1        0.0000 
      2 C2         -2.5130    2.7600    7.1540 C.2       1 KSK1        0.0000 
      3 C3         -1.1160    2.8270    7.0970 C.2       1 KSK1        0.0000 
      4 C4         -0.3240    1.8410    7.6900 C.2       1 KSK1        0.0000 
      5 N5         -0.9250    0.8110    8.3250 N.2       1 KSK1        0.0000 
      6 C6         -2.2760    0.8050    8.3430 C.2       1 KSK1        0.0000 
      7 C7         -3.2110   -0.1560    8.9420 C.2       1 KSK1        0.0000 
      8 C8         -4.5510    0.3840    8.6390 C.2       1 KSK1        0.0000 
      9 N9         -4.4800    1.5350    7.9240 N.2       1 KSK1        0.0000 
     10 C10        -2.8070   -1.3710    9.6990 C.2       1 KSK1        0.0000 
     11 O11        -3.6940   -2.0390   10.2060 O.2       1 KSK1        0.0000 
     12 N12        -1.5150   -1.6810    9.8260 N.am      1 KSK1        0.0000 
     13 N13        -5.6670   -0.2670    9.0390 N.pl3     1 KSK1        0.0000 
     14 C14        -6.9280    0.2180    9.0130 C.ar      1 KSK1        0.0000 
     15 C15        -7.2880    1.3400    8.2690 C.ar      1 KSK1        0.0000 
     16 C16        -8.6090    1.7800    8.2850 C.ar      1 KSK1        0.0000 
     17 C17        -9.5660    1.0950    9.0330 C.ar      1 KSK1        0.0000 
     18 C18        -9.2000   -0.0260    9.7750 C.ar      1 KSK1        0.0000 
     19 C19        -7.8830   -0.4560    9.7580 C.ar      1 KSK1        0.0000 
     20 O20       -10.1160   -0.7260   10.5250 O.3       1 KSK1        0.0000 
     21 C21       -11.3680   -0.1420   10.8840 C.3       1 KSK1        0.0000 
     22 O22        -8.9700    2.8830    7.5570 O.3       1 KSK1        0.0000 
     23 C23        -8.0050    3.8910    7.2640 C.3       1 KSK1        0.0000 
     24 C24         1.1560    1.9270    7.6230 C.3       1 KSK1        0.0000 
     25 C25         1.7070    0.8110    6.7430 C.3       1 KSK1        0.0000 
     26 N26        -3.2740    3.7210    6.5840 N.pl3     1 KSK1        0.0000 
     27 C27        -2.7760    5.0790    6.4430 C.3       1 KSK1        0.0000 
     28 C28        -2.9420    5.9120    7.7220 C.3       1 KSK1        0.0000 
     29 N29        -2.5400    7.2870    7.4180 N.4       1 KSK1        0.0000 
     30 C30         1.7960    0.6950    8.2590 C.3       1 KSK1        0.0000 
     31 C31        -2.0570    5.3910    8.8510 C.3       1 KSK1        0.0000 
     32 C32        -4.3950    5.9480    8.1860 C.3       1 KSK1        0.0000 
     33 H          -0.6654    3.6177    6.6090 H         1 KSK1        0.0000 
     34 H          -1.3094   -2.4977   10.3652 H         1 KSK1        0.0000 
     35 H          -0.8687   -1.0687    9.3706 H         1 KSK1        0.0000 
     36 H          -5.5369   -1.2752    9.4169 H         1 KSK1        0.0000 
     37 H          -6.5851    1.8374    7.7142 H         1 KSK1        0.0000 
     38 H         -10.5415    1.4176    9.0366 H         1 KSK1        0.0000 
     39 H          -7.6092   -1.2891   10.3072 H         1 KSK1        0.0000 
     40 H           1.7234    2.6143    7.6412 H         1 KSK1        0.0000 
     41 H           2.5542    1.0878    6.4255 H         1 KSK1        0.0000 
     42 H           0.9754    0.2838    6.4567 H         1 KSK1        0.0000 
     43 H          -4.2244    3.5330    6.2312 H         1 KSK1        0.0000 
     44 H          -3.3010    5.6091    5.6272 H         1 KSK1        0.0000 
     45 H          -1.7024    5.0802    6.1792 H         1 KSK1        0.0000 
     46 H           1.0968    0.1264    8.5452 H         1 KSK1        0.0000 
     47 H           2.6756    0.9305    8.5140 H         1 KSK1        0.0000 
     48 H         -11.2481    0.6884   11.4280 H         1 KSK1        0.0000 
     49 H         -11.9047    0.1101   10.0788 H         1 KSK1        0.0000 
     50 H         -11.9285   -0.7687   11.4254 H         1 KSK1        0.0000 
     51 H          -7.6246    4.2941    8.0963 H         1 KSK1        0.0000 
     52 H          -7.2369    3.5277    6.7367 H         1 KSK1        0.0000 
     53 H          -8.3995    4.6388    6.7300 H         1 KSK1        0.0000 
     54 H          -3.3104    7.8363    7.0943 H         1 KSK1        0.0000 
     55 H          -2.1663    7.7509    8.2213 H         1 KSK1        0.0000 
     56 H          -1.8374    7.3200    6.7072 H         1 KSK1        0.0000 
     57 H          -1.0877    5.4210    8.6071 H         1 KSK1        0.0000 
     58 H          -2.1658    5.9293    9.6867 H         1 KSK1        0.0000 
     59 H          -2.2715    4.4423    9.0834 H         1 KSK1        0.0000 
     60 H          -4.7459    5.0318    8.3796 H         1 KSK1        0.0000 
     61 H          -4.5048    6.4865    9.0214 H         1 KSK1        0.0000 
     62 H          -4.9954    6.3520    7.4958 H         1 KSK1        0.0000 
@<TRIPOS>BOND
     1    2    1 1    
     2    6    1 1    
     3    9    1 1    
     4    3    2 2    
     5   26    2 1    
     6    4    3 1    
     7   33    3 1    
     8    5    4 2    
     9   24    4 1    
    10    6    5 1    
    11    7    6 2    
    12    8    7 1    
    13   10    7 1    
    14    9    8 2    
    15   13    8 1    
    16   11   10 2    
    17   12   10 am   
    18   34   12 1    
    19   35   12 1    
    20   14   13 1    
    21   36   13 1    
    22   15   14 ar   
    23   19   14 ar   
    24   16   15 ar   
    25   37   15 1    
    26   17   16 ar   
    27   22   16 1    
    28   18   17 ar   
    29   38   17 1    
    30   19   18 ar   
    31   20   18 1    
    32   39   19 1    
    33   21   20 1    
    34   48   21 1    
    35   49   21 1    
    36   50   21 1    
    37   23   22 1    
    38   51   23 1    
    39   52   23 1    
    40   53   23 1    
    41   25   24 1    
    42   30   24 1    
    43   40   24 1    
    44   30   25 1    
    45   41   25 1    
    46   42   25 1    
    47   27   26 1    
    48   43   26 1    
    49   28   27 1    
    50   44   27 1    
    51   45   27 1    
    52   29   28 1    
    53   31   28 1    
    54   32   28 1    
    55   54   29 1    
    56   55   29 1    
    57   56   29 1    
    58   46   30 1    
    59   47   30 1    
    60   57   31 1    
    61   58   31 1    
    62   59   31 1    
    63   60   32 1    
    64   61   32 1    
    65   62   32 1    
@<TRIPOS>SUBSTRUCTURE
     1 KSK1        1 GROUP   
@<TRIPOS>SET

