#    Name: 3na0_2DC_1_INTS_M
#    Modification time : Tue Mar 25 01:06:59 2014

@<TRIPOS>MOLECULE
3na0_2DC_1_INTS_M
   76     0     3     0     0
SMALL
NO_CHARGES


@<TRIPOS>ATOM
      1 CA        -35.9540   -9.0990   58.2875 C.3       1 GLC5        0.0000 
      2 CA        -36.9620   -9.1840   56.3260 C.3       3 GLL5        0.0000 
      3 CA        -34.9460   -9.0140   60.2490 C.3       2 GLP5        0.0000 
      4 CA        -36.3075  -10.0735   54.5515 C.3       1 GLC5        0.0000 
      5 CA        -35.6530  -10.9630   52.7770 C.3       2 GLP5        0.0000 
      6 CA        -35.0085   -8.8215   56.8185 C.3       1 GLC5        0.0000 
      7 CA        -33.0550   -8.4590   57.3110 C.3       2 GLP5        0.0000 
      8 CA        -36.5830  -11.2105   54.8175 C.3       1 GLC5        0.0000 
      9 CA        -37.8000  -10.4080   55.9690 C.3       3 GLL5        0.0000 
     10 CA        -35.3660  -12.0130   53.6660 C.3       2 GLP5        0.0000 
     11 CA        -41.5685   -9.2630   58.2635 C.3       1 GLC5        0.0000 
     12 CA        -39.4760   -9.8710   57.7220 C.3       3 GLL5        0.0000 
     13 CA        -43.6610   -8.6550   58.8050 C.3       2 GLP5        0.0000 
     14 CA        -40.2875   -9.1500   60.4070 C.3       1 GLC5        0.0000 
     15 CA        -38.9570   -7.9100   59.0990 C.3       3 GLL5        0.0000 
     16 CA        -41.6180  -10.3900   61.7150 C.3       2 GLP5        0.0000 
     17 CA        -39.3735   -5.5565   60.7165 C.3       1 GLC5        0.0000 
     18 CA        -38.2620   -6.6350   59.5160 C.3       3 GLL5        0.0000 
     19 CA        -40.4850   -4.4780   61.9170 C.3       2 GLP5        0.0000 
     20 CA        -33.5315   -4.9305   55.4490 C.3       1 GLC5        0.0000 
     21 CA        -35.0930   -5.2360   56.8630 C.3       3 GLL5        0.0000 
     22 CA        -31.9700   -4.6250   54.0350 C.3       2 GLP5        0.0000 
     23 CA        -38.7070   -4.1920   60.8805 C.3       1 GLC5        0.0000 
     24 CA        -36.9290   -3.9060   59.8440 C.3       3 GLL5        0.0000 
     25 CA        -37.9550   -3.5050   55.3630 C.3       1 GLC5        0.0000 
     26 CA        -36.7900   -3.3600   56.8930 C.3       3 GLL5        0.0000 
     27 CA        -39.1200   -3.6500   53.8330 C.3       2 GLP5        0.0000 
     28 CA        -38.5495   -5.9820   54.2785 C.3       1 GLC5        0.0000 
     29 CA        -38.7270   -7.4590   55.7480 C.3       3 GLL5        0.0000 
     30 CA        -38.3720   -4.5050   52.8090 C.3       2 GLP5        0.0000 
     31 CA        -38.9200   -8.4780   54.1690 C.3       1 GLC5        0.0000 
     32 CA        -39.1130   -9.4970   52.5900 C.3       2 GLP5        0.0000 
     33 CA        -31.2310   -3.4450   57.1530 C.3       1 GLC5        0.0000 
     34 CA        -33.0900   -2.6630   56.9480 C.3       3 GLL5        0.0000 
     35 CA        -29.3720   -4.2270   57.3580 C.3       2 GLP5        0.0000 
     36 CA        -32.4245   -1.1900   55.7965 C.3       1 GLC5        0.0000 
     37 CA        -31.7590    0.2830   54.6450 C.3       2 GLP5        0.0000 
     38 CA        -33.9465   -2.3115   54.9165 C.3       1 GLC5        0.0000 
     39 CA        -34.8030   -1.9600   52.8850 C.3       2 GLP5        0.0000 
     40 CA        -32.5300   -3.6440   55.4915 C.3       1 GLC5        0.0000 
     41 CA        -32.1135   -4.4085   59.9735 C.3       1 GLC5        0.0000 
     42 CA        -32.1380   -2.2710   59.6810 C.3       3 GLL5        0.0000 
     43 CA        -32.0890   -6.5460   60.2660 C.3       2 GLP5        0.0000 
     44 CA        -30.7550   -3.2490   58.5195 C.3       1 GLC5        0.0000 
     45 CA        -31.6655   -4.4615   61.6175 C.3       1 GLC5        0.0000 
     46 CA        -30.6620   -2.6350   61.7080 C.3       3 GLL5        0.0000 
     47 CA        -32.6690   -6.2880   61.5270 C.3       2 GLP5        0.0000 
     48 CA        -29.1470   -3.8600   63.6785 C.3       1 GLC5        0.0000 
     49 CA        -30.2950   -2.0530   63.0670 C.3       3 GLL5        0.0000 
     50 CA        -27.9990   -5.6670   64.2900 C.3       2 GLP5        0.0000 
     51 CA        -30.2460   -0.6760   64.3395 C.3       1 GLC5        0.0000 
     52 CA        -30.1970    0.7010   65.6120 C.3       2 GLP5        0.0000 
     53 CA        -28.5965   -4.4760   60.6400 C.3       1 GLC5        0.0000 
     54 CA        -29.4070   -2.9310   60.8930 C.3       3 GLL5        0.0000 
     55 CA        -27.7860   -6.0210   60.3870 C.3       2 GLP5        0.0000 
     56 CA        -29.3895   -3.5790   59.1255 C.3       1 GLC5        0.0000 
     57 CA        -27.7950   -1.9420   61.2480 C.3       1 GLC5        0.0000 
     58 CA        -26.1830   -0.9530   61.6030 C.3       2 GLP5        0.0000 
     59 CA        -38.2470   -9.6465   54.3687 C.3       1 GLC5        0.0000 
     60 CA        -39.3595  -11.1758   59.2977 C.3       1 GLC5        0.0000 
     61 CA        -38.5280  -10.9440   57.1930 C.3       3 GLL5        0.0000 
     62 CA        -39.7170  -11.9440   61.1380 C.3       2 GLP5        0.0000 
     63 CA        -36.8965   -8.6255   59.3842 C.3       1 GLC5        0.0000 
     64 CA        -38.7370   -8.5640   57.9400 C.3       3 GLL5        0.0000 
     65 CA        -36.1665   -7.8232   59.2104 C.3       1 GLC5        0.0000 
     66 CA        -34.4189   -7.1929   57.0847 C.3       1 GLC5        0.0000 
     67 CA        -36.8690   -6.9700   57.4120 C.3       3 GLL5        0.0000 
     68 CA        -36.0078   -3.2195   61.7145 C.3       1 GLC5        0.0000 
     69 CA        -35.6600   -3.0350   63.6100 C.3       2 GLP5        0.0000 
     70 CA        -31.1515   -0.4632   59.3207 C.3       1 GLC5        0.0000 
     71 CA        -33.3200   -1.4680   59.1440 C.3       3 GLL5        0.0000 
     72 CA        -29.5740    0.9430   59.2290 C.3       2 GLP5        0.0000 
     73 CA        -32.0315   -2.9111   63.2224 C.3       1 GLC5        0.0000 
     74 CA        -31.5840   -1.6680   60.9650 C.3       3 GLL5        0.0000 
     75 CA        -33.3540   -3.7200   64.2430 C.3       2 GLP5        0.0000 
     76 CA        -29.9195   -0.7991   60.1719 C.3       1 GLC5        0.0000 
@<TRIPOS>BOND
@<TRIPOS>SUBSTRUCTURE
     1 GLC5        1 GROUP        1 X    GLC  0     ROOT GLC X 6
     2 GLP5        3 GROUP        1 Y    GLP  0     ROOT GLP Y 13
     3 GLL5        2 GROUP        1 Z    GLL  0     ROOT GLL Z 20
@<TRIPOS>SET

