#    Name: 3na0_2DC_1_ligand
#    Modification time : Tue Mar 25 01:06:59 2014

@<TRIPOS>MOLECULE
3na0_2DC_1_ligand
   76    79     1     0     0
SMALL
NO_CHARGES


@<TRIPOS>ATOM
      1 C1        -36.9620   -9.1840   56.3260 C.3       1 2DC602      0.0000 
      2 O1        -39.2690  -12.1190   56.8370 O.3       1 2DC602      0.0000 
      3 C2        -37.8000  -10.4080   55.9690 C.3       1 2DC602      0.0000 
      4 O2        -34.8960   -1.1490   57.4470 O.3       1 2DC602      0.0000 
      5 C3        -38.5280  -10.9440   57.1930 C.3       1 2DC602      0.0000 
      6 O3        -32.9170   -0.1740   58.6460 O.3       1 2DC602      0.0000 
      7 C4        -39.4760   -9.8710   57.7220 C.3       1 2DC602      0.0000 
      8 C5        -38.7370   -8.5640   57.9400 C.2       1 2DC602      0.0000 
      9 C6        -38.9570   -7.9100   59.0990 C.2       1 2DC602      0.0000 
     10 C7        -38.2620   -6.6350   59.5160 C.3       1 2DC602      0.0000 
     11 C8        -37.5480   -5.9550   58.3470 C.3       1 2DC602      0.0000 
     12 C9        -36.8690   -6.9700   57.4120 C.3       1 2DC602      0.0000 
     13 C10       -37.8230   -8.0340   56.8560 C.3       1 2DC602      0.0000 
     14 C11       -36.0760   -6.2650   56.2960 C.3       1 2DC602      0.0000 
     15 C12       -35.0930   -5.2360   56.8630 C.3       1 2DC602      0.0000 
     16 C13       -35.8080   -4.1980   57.7310 C.3       1 2DC602      0.0000 
     17 C14       -36.4970   -4.9650   58.8390 C.3       1 2DC602      0.0000 
     18 C15       -36.9290   -3.9060   59.8440 C.3       1 2DC602      0.0000 
     19 C16       -35.7820   -2.9020   59.7940 C.3       1 2DC602      0.0000 
     20 C17       -34.8920   -3.3450   58.6260 C.3       1 2DC602      0.0000 
     21 C18       -36.7900   -3.3600   56.8930 C.3       1 2DC602      0.0000 
     22 C19       -38.7270   -7.4590   55.7480 C.3       1 2DC602      0.0000 
     23 C20       -34.0690   -2.1830   58.0200 C.3       1 2DC602      0.0000 
     24 C21       -33.0900   -2.6630   56.9480 C.3       1 2DC602      0.0000 
     25 C22       -33.3200   -1.4680   59.1440 C.3       1 2DC602      0.0000 
     26 C23       -32.1380   -2.2710   59.6810 C.3       1 2DC602      0.0000 
     27 C24       -31.5840   -1.6680   60.9650 C.3       1 2DC602      0.0000 
     28 C25       -30.6620   -2.6350   61.7080 C.3       1 2DC602      0.0000 
     29 C26       -30.2950   -2.0530   63.0670 C.3       1 2DC602      0.0000 
     30 C27       -29.4070   -2.9310   60.8930 C.3       1 2DC602      0.0000 
     31 H         -36.4222   -8.8450   55.4373 H         1 2DC602      0.0000 
     32 H         -36.2274   -9.4598   57.0878 H         1 2DC602      0.0000 
     33 H         -37.1483  -11.1840   55.5674 H         1 2DC602      0.0000 
     34 H         -38.5289  -10.1335   55.2063 H         1 2DC602      0.0000 
     35 H         -37.7989  -11.1553   57.9550 H         1 2DC602      0.0000 
     36 H         -39.9060  -10.2074   58.6647 H         1 2DC602      0.0000 
     37 H         -40.2801   -9.7188   57.0030 H         1 2DC602      0.0000 
     38 H         -39.6515   -8.2624   59.8074 H         1 2DC602      0.0000 
     39 H         -37.5264   -6.8573   60.2984 H         1 2DC602      0.0000 
     40 H         -38.9966   -5.9372   59.9356 H         1 2DC602      0.0000 
     41 H         -38.2808   -5.4027   57.7621 H         1 2DC602      0.0000 
     42 H         -36.1078   -7.5130   58.0334 H         1 2DC602      0.0000 
     43 H         -36.7760   -5.7633   55.6267 H         1 2DC602      0.0000 
     44 H         -35.5244   -7.0138   55.7261 H         1 2DC602      0.0000 
     45 H         -34.5905   -4.7291   56.0383 H         1 2DC602      0.0000 
     46 H         -34.3431   -5.7513   57.4644 H         1 2DC602      0.0000 
     47 H         -35.6769   -5.5485   59.3434 H         1 2DC602      0.0000 
     48 H         -36.9929   -4.3304   60.8107 H         1 2DC602      0.0000 
     49 H         -37.8242   -3.4450   59.5203 H         1 2DC602      0.0000 
     50 H         -35.2239   -2.9437   60.7030 H         1 2DC602      0.0000 
     51 H         -36.1642   -1.9244   59.5999 H         1 2DC602      0.0000 
     52 H         -34.1636   -4.0708   59.0977 H         1 2DC602      0.0000 
     53 H         -34.0379   -1.3288   59.9658 H         1 2DC602      0.0000 
     54 H         -31.3491   -2.2963   58.9247 H         1 2DC602      0.0000 
     55 H         -32.4607   -3.2975   59.8744 H         1 2DC602      0.0000 
     56 H         -32.4155   -1.3917   61.6223 H         1 2DC602      0.0000 
     57 H         -31.0260   -0.7567   60.7245 H         1 2DC602      0.0000 
     58 H         -31.1993   -3.5631   61.8676 H         1 2DC602      0.0000 
     59 H         -36.3248   -2.8698   56.1559 H         1 2DC602      0.0000 
     60 H         -37.4945   -3.9284   56.4680 H         1 2DC602      0.0000 
     61 H         -37.2616   -2.6751   57.4484 H         1 2DC602      0.0000 
     62 H         -38.1934   -7.1021   54.9813 H         1 2DC602      0.0000 
     63 H         -39.3461   -8.1513   55.3772 H         1 2DC602      0.0000 
     64 H         -39.2950   -6.7080   56.0846 H         1 2DC602      0.0000 
     65 H         -32.5040   -1.9214   56.6213 H         1 2DC602      0.0000 
     66 H         -32.4872   -3.3833   57.2913 H         1 2DC602      0.0000 
     67 H         -33.5654   -3.0340   56.1503 H         1 2DC602      0.0000 
     68 H         -29.6893   -2.6611   63.5801 H         1 2DC602      0.0000 
     69 H         -29.8240   -1.1752   62.9801 H         1 2DC602      0.0000 
     70 H         -31.1033   -1.8970   63.6348 H         1 2DC602      0.0000 
     71 H         -28.8814   -2.1011   60.7058 H         1 2DC602      0.0000 
     72 H         -28.7960   -3.5638   61.3686 H         1 2DC602      0.0000 
     73 H         -29.6269   -3.3443   60.0093 H         1 2DC602      0.0000 
     74 H         -39.8408  -12.3154   57.6335 H         1 2DC602      0.0000 
     75 H         -34.4897   -0.2902   57.7590 H         1 2DC602      0.0000 
     76 H         -31.9467   -0.2726   58.4250 H         1 2DC602      0.0000 
@<TRIPOS>BOND
     1    3    1 1    
     2   13    1 1    
     3   31    1 1    
     4   32    1 1    
     5    5    2 1    
     6   74    2 1    
     7    5    3 1    
     8   33    3 1    
     9   34    3 1    
    10   23    4 1    
    11   75    4 1    
    12    7    5 1    
    13   35    5 1    
    14   25    6 1    
    15   76    6 1    
    16    8    7 1    
    17   36    7 1    
    18   37    7 1    
    19    9    8 2    
    20   13    8 1    
    21   10    9 1    
    22   38    9 1    
    23   11   10 1    
    24   39   10 1    
    25   40   10 1    
    26   12   11 1    
    27   17   11 1    
    28   41   11 1    
    29   13   12 1    
    30   14   12 1    
    31   42   12 1    
    32   22   13 1    
    33   15   14 1    
    34   43   14 1    
    35   44   14 1    
    36   16   15 1    
    37   45   15 1    
    38   46   15 1    
    39   17   16 1    
    40   20   16 1    
    41   21   16 1    
    42   18   17 1    
    43   47   17 1    
    44   19   18 1    
    45   48   18 1    
    46   49   18 1    
    47   20   19 1    
    48   50   19 1    
    49   51   19 1    
    50   23   20 1    
    51   52   20 1    
    52   59   21 1    
    53   60   21 1    
    54   61   21 1    
    55   62   22 1    
    56   63   22 1    
    57   64   22 1    
    58   24   23 1    
    59   25   23 1    
    60   65   24 1    
    61   66   24 1    
    62   67   24 1    
    63   26   25 1    
    64   53   25 1    
    65   27   26 1    
    66   54   26 1    
    67   55   26 1    
    68   28   27 1    
    69   56   27 1    
    70   57   27 1    
    71   29   28 1    
    72   30   28 1    
    73   58   28 1    
    74   68   29 1    
    75   69   29 1    
    76   70   29 1    
    77   71   30 1    
    78   72   30 1    
    79   73   30 1    
@<TRIPOS>SUBSTRUCTURE
     1 2DC602      1 GROUP   
@<TRIPOS>SET

