#    Name: 3w0c_6DS_1_INTS_M
#    Modification time : Tue Mar 25 01:54:54 2014

@<TRIPOS>MOLECULE
3w0c_6DS_1_INTS_M
  137     0    12     0     0
SMALL
NO_CHARGES


@<TRIPOS>ATOM
      1 NZ         13.5725   12.3430   38.0310 N.4       3 LYC4        0.0000 
      2 NZ         13.4330   12.4270   36.5990 N.4      11 LYL4        0.0000 
      3 NZ         13.5510   13.4270   40.0630 N.4       7 LYP4        0.0000 
      4 N          13.3205   13.4615   37.9790 N.am      2 SEC2        0.0000 
      5 N          13.4330   12.4270   36.5990 N.am     10 SEL2        0.0000 
      6 N          13.2080   14.4960   39.3590 N.am      6 SEP2        0.0000 
      7 N          13.5725   12.3430   38.0310 N.am      2 SEC2        0.0000 
      8 N          13.7120   12.2590   39.4630 N.am      6 SEP2        0.0000 
      9 CA          9.9065   21.0535   34.3080 C.3       4 GLC5        0.0000 
     10 CA         12.0780   21.1620   34.1440 C.3      12 GLL5        0.0000 
     11 CA          7.7350   20.9450   34.4720 C.3       8 GLP5        0.0000 
     12 CA          6.6605   26.1875   35.7885 C.3       4 GLC5        0.0000 
     13 CA          7.1640   25.0420   34.0270 C.3      12 GLL5        0.0000 
     14 CA          6.1570   27.3330   37.5500 C.3       8 GLP5        0.0000 
     15 CA          8.9225   28.4440   35.7825 C.3       4 GLC5        0.0000 
     16 CA          9.1690   26.6510   35.2430 C.3      12 GLL5        0.0000 
     17 CA          8.6760   30.2370   36.3220 C.3       8 GLP5        0.0000 
     18 CA          7.6630   26.9920   36.3965 C.3       4 GLC5        0.0000 
     19 CA         14.9195   23.9805   33.6070 C.3       4 GLC5        0.0000 
     20 CA         12.7620   23.5530   33.3040 C.3      12 GLL5        0.0000 
     21 CA         17.0770   24.4080   33.9100 C.3       8 GLP5        0.0000 
     22 CA         11.9925   22.2020   36.8910 C.3       4 GLC5        0.0000 
     23 CA         13.1910   23.6450   35.9670 C.3      12 GLL5        0.0000 
     24 CA         10.7940   20.7590   37.8150 C.3       8 GLP5        0.0000 
     25 CA         12.9365   24.2550   37.9810 C.3       4 GLC5        0.0000 
     26 CA         12.6820   24.8650   39.9950 C.3       8 GLP5        0.0000 
     27 CA         15.4950   13.6315   35.4790 C.3       4 GLC5        0.0000 
     28 CA         13.6830   13.6200   34.4490 C.3      12 GLL5        0.0000 
     29 CA         17.3070   13.6430   36.5090 C.3       8 GLP5        0.0000 
     30 CA         12.3860   12.4575   33.7230 C.3       4 GLC5        0.0000 
     31 CA         11.0890   11.2950   32.9970 C.3       8 GLP5        0.0000 
     32 CA         11.4650   23.1095   29.6175 C.3       4 GLC5        0.0000 
     33 CA         12.8000   23.7430   30.7220 C.3      12 GLL5        0.0000 
     34 CA         10.1300   22.4760   28.5130 C.3       8 GLP5        0.0000 
     35 CA         13.9630   23.5835   29.3360 C.3       4 GLC5        0.0000 
     36 CA         15.1260   23.4240   27.9500 C.3       8 GLP5        0.0000 
     37 CA         12.2105   26.4265   35.1790 C.3       4 GLC5        0.0000 
     38 CA         10.8980   25.0990   34.2330 C.3      12 GLL5        0.0000 
     39 CA         13.5230   27.7540   36.1250 C.3       8 GLP5        0.0000 
     40 CA          8.2785   23.2060   31.0625 C.3       4 GLC5        0.0000 
     41 CA          8.9040   23.5870   32.9970 C.3      12 GLL5        0.0000 
     42 CA          7.6530   22.8250   29.1280 C.3       8 GLP5        0.0000 
     43 CA         10.1820   22.8510   30.6630 C.3       4 GLC5        0.0000 
     44 CA         10.2340   23.2260   32.8130 C.3      12 GLL5        0.0000 
     45 CA          9.5310   19.9330   34.7765 C.3       4 GLC5        0.0000 
     46 CA         11.3270   18.9210   35.0810 C.3      12 GLL5        0.0000 
     47 CA         10.6195   17.4735   35.7235 C.3       4 GLC5        0.0000 
     48 CA          9.9120   16.0260   36.3660 C.3       8 GLP5        0.0000 
     49 N           4.8940   26.0920   35.9355 N.am      2 SEC2        0.0000 
     50 N           4.4800   25.8660   34.6750 N.am     10 SEL2        0.0000 
     51 N           5.3080   26.3180   37.1960 N.am      6 SEP2        0.0000 
     52 O           4.9490   26.9965   34.1030 O.2       1 ALC1        0.0000 
     53 O           4.4800   25.8660   34.6750 O.2       9 ALL1        0.0000 
     54 O           5.4180   28.1270   33.5310 O.2       5 ALP1        0.0000 
     55 CA         13.2115   17.0420   32.3860 C.3       4 GLC5        0.0000 
     56 CA         15.0260   17.1410   33.4020 C.3      12 GLL5        0.0000 
     57 CA         11.3970   16.9430   31.3700 C.3       8 GLP5        0.0000 
     58 CA         16.0415   17.3800   31.6765 C.3       4 GLC5        0.0000 
     59 CA         17.0570   17.6190   29.9510 C.3       8 GLP5        0.0000 
     60 CA         16.1610   14.6980   35.3555 C.3       4 GLC5        0.0000 
     61 CA         15.0150   15.7530   34.2020 C.3      12 GLL5        0.0000 
     62 CA         16.6500   14.9110   33.0110 C.3       4 GLC5        0.0000 
     63 CA         18.2850   14.0690   31.8200 C.3       8 GLP5        0.0000 
     64 CA         12.6325   15.9850   32.6570 C.3       4 GLC5        0.0000 
     65 CA         13.8680   15.0270   33.9440 C.3      12 GLL5        0.0000 
     66 NZ         13.2310   14.6290   37.9865 N.4       3 LYC4        0.0000 
     67 NZ         13.2540   14.7620   36.6140 N.4      11 LYL4        0.0000 
     68 N          12.1125   15.4640   36.9595 N.am      2 SEC2        0.0000 
     69 N          13.2540   14.7620   36.6140 N.am     10 SEL2        0.0000 
     70 N          10.9710   16.1660   37.3050 N.am      6 SEP2        0.0000 
     71 N          13.2310   14.6290   37.9865 N.am      2 SEC2        0.0000 
     72 CA          6.2540   23.5595   37.2165 C.3       4 GLC5        0.0000 
     73 CA          4.8520   23.5120   35.9930 C.3      12 GLL5        0.0000 
     74 CA          7.6560   23.6070   38.4400 C.3       8 GLP5        0.0000 
     75 CA          5.5045   25.4225   36.7715 C.3       4 GLC5        0.0000 
     76 CA          4.0655   21.3810   32.4260 C.3       4 GLC5        0.0000 
     77 CA          4.1680   22.3680   34.1880 C.3      12 GLL5        0.0000 
     78 CA          3.9630   20.3940   30.6640 C.3       8 GLP5        0.0000 
     79 CA          1.6235   25.0180   35.5955 C.3       4 GLC5        0.0000 
     80 CA          2.8220   23.9220   35.1230 C.3      12 GLL5        0.0000 
     81 CA          0.4250   26.1140   36.0680 C.3       8 GLP5        0.0000 
     82 CA          2.4120   23.1465   36.7425 C.3       4 GLC5        0.0000 
     83 CA          2.0020   22.3710   38.3620 C.3       8 GLP5        0.0000 
     84 CA          4.0100   22.0045   31.2975 C.3       4 GLC5        0.0000 
     85 CA          4.0570   23.6150   31.9310 C.3      12 GLL5        0.0000 
     86 CA          5.2875   26.4075   30.1510 C.3       4 GLC5        0.0000 
     87 CA          4.4450   25.8810   31.9160 C.3      12 GLL5        0.0000 
     88 CA          6.1300   26.9340   28.3860 C.3       8 GLP5        0.0000 
     89 CA          1.5115   25.5685   34.4470 C.3       4 GLC5        0.0000 
     90 CA          2.5980   25.0230   32.8260 C.3      12 GLL5        0.0000 
     91 CA         14.3707   20.1178   35.2298 C.3       4 GLC5        0.0000 
     92 CA         13.4770   19.2630   33.7340 C.3      12 GLL5        0.0000 
     93 CA         15.8380   20.7050   36.4270 C.3       8 GLP5        0.0000 
     94 CA         11.2233   18.7937   32.9445 C.3       4 GLC5        0.0000 
     95 CA         12.3300   19.7980   34.3310 C.3      12 GLL5        0.0000 
     96 CA         10.6180   18.2280   31.1830 C.3       8 GLP5        0.0000 
     97 CA         14.1820   21.1407   35.1015 C.3       4 GLC5        0.0000 
     98 CA         15.0480   20.7252   34.6785 C.3       4 GLC5        0.0000 
     99 CA         14.3850   20.0730   33.0120 C.3      12 GLL5        0.0000 
    100 CA         16.0460   21.4222   31.9970 C.3       4 GLC5        0.0000 
    101 CA         17.8340   22.0990   31.0640 C.3       8 GLP5        0.0000 
    102 CA          6.3993   26.7120   33.1605 C.3       4 GLC5        0.0000 
    103 CA          6.1530   28.7160   32.5380 C.3       8 GLP5        0.0000 
    104 CA         14.9937   24.6167   31.5042 C.3       4 GLC5        0.0000 
    105 CA         13.3510   24.2840   32.0530 C.3      12 GLL5        0.0000 
    106 CA         16.9120   25.2200   31.6210 C.3       8 GLP5        0.0000 
    107 CA         12.6852   25.8147   31.0437 C.3       4 GLC5        0.0000 
    108 CA         12.2950   27.6160   30.7000 C.3       8 GLP5        0.0000 
    109 CA         14.6330   22.2820   35.8338 C.3       4 GLC5        0.0000 
    110 CA         13.6650   24.0730   34.5140 C.3      12 GLL5        0.0000 
    111 CA         15.0305   24.7490   34.8327 C.3       4 GLC5        0.0000 
    112 CA         16.6330   25.6390   34.4250 C.3       8 GLP5        0.0000 
    113 CA         13.4755   25.8065   35.6827 C.3       4 GLC5        0.0000 
    114 CA         10.1985   27.0959   33.1613 C.3       4 GLC5        0.0000 
    115 CA         10.2680   28.6190   31.7920 C.3       8 GLP5        0.0000 
    116 CA          8.6520   22.1758   33.6885 C.3       4 GLC5        0.0000 
    117 CA         11.2797   20.2298   36.2371 C.3       4 GLC5        0.0000 
    118 CA          7.3643   22.7776   34.1000 C.3       4 GLC5        0.0000 
    119 CA          8.5560   24.6510   33.8070 C.3      12 GLL5        0.0000 
    120 CA         14.1696   15.3110   31.9375 C.3       4 GLC5        0.0000 
    121 CA         13.8950   14.8850   30.0020 C.3       8 GLP5        0.0000 
    122 CA          5.1438   21.5083   35.4100 C.3       4 GLC5        0.0000 
    123 CA          5.9560   20.0560   36.0250 C.3       8 GLP5        0.0000 
    124 CA          3.8007   22.3818   36.6565 C.3       4 GLC5        0.0000 
    125 CA          3.2700   21.8030   38.5180 C.3       8 GLP5        0.0000 
    126 CA          2.0518   22.3783   34.8621 C.3       4 GLC5        0.0000 
    127 CA          0.6160   21.3050   34.9130 C.3       8 GLP5        0.0000 
    128 CA          5.2670   27.0209   32.5584 C.3       4 GLC5        0.0000 
    129 CA          3.0140   25.1167   30.9174 C.3       4 GLC5        0.0000 
    130 CA          3.9170   24.8140   32.5870 C.3      12 GLL5        0.0000 
    131 CA          2.6210   25.1980   29.3780 C.3       8 GLP5        0.0000 
    132 CA          2.3333   26.5656   32.0959 C.3       4 GLC5        0.0000 
    133 CA          1.2770   27.9460   31.6530 C.3       8 GLP5        0.0000 
    134 CA          1.5837   24.0179   31.8942 C.3       4 GLC5        0.0000 
    135 CA         -0.1250   23.4170   31.2460 C.3       8 GLP5        0.0000 
    136 CA         12.3663   20.1939   31.9831 C.3       4 GLC5        0.0000 
    137 CA         11.4540   19.3280   30.5230 C.3       8 GLP5        0.0000 
@<TRIPOS>BOND
@<TRIPOS>SUBSTRUCTURE
     1 ALC1       52 GROUP        1 X    ALC  0     ROOT ALC X 1
     2 SEC2        4 GROUP        1 X    SEC  0     **** SEC X 2
     3 LYC4        1 GROUP        1 X    LYC  0     **** LYC X 4
     4 GLC5        9 GROUP        1 X    GLC  0     **** GLC X 6
     5 ALP1       54 GROUP        1 Y    ALP  0     ROOT ALP Y 8
     6 SEP2        6 GROUP        1 Y    SEP  0     **** SEP Y 9
     7 LYP4        3 GROUP        1 Y    LYP  0     **** LYP Y 11
     8 GLP5       11 GROUP        1 Y    GLP  0     **** GLP Y 13
     9 ALL1       53 GROUP        1 Z    ALL  0     ROOT ALL Z 15
    10 SEL2        5 GROUP        1 Z    SEL  0     **** SEL Z 16
    11 LYL4        2 GROUP        1 Z    LYL  0     **** LYL Z 18
    12 GLL5       10 GROUP        1 Z    GLL  0     **** GLL Z 20
@<TRIPOS>SET

