#    Name: 3w0c_6DS_1_ligand
#    Modification time : Tue Mar 25 01:54:54 2014

@<TRIPOS>MOLECULE
3w0c_6DS_1_ligand
   73    74     1     0     0
SMALL
NO_CHARGES


@<TRIPOS>ATOM
      1 C1         13.4770   19.2630   33.7340 C.ar      1 6DS501      0.0000 
      2 O1         15.2440   16.2060   35.4510 O.3       1 6DS501      0.0000 
      3 C2         12.3300   19.7980   34.3310 C.ar      1 6DS501      0.0000 
      4 O2         13.4330   12.4270   36.5990 O.co2     1 6DS501      0.0000 
      5 C3         12.0780   21.1620   34.1440 C.ar      1 6DS501      0.0000 
      6 C4         12.9740   21.9910   33.4080 C.ar      1 6DS501      0.0000 
      7 C5         14.1310   21.4180   32.8480 C.ar      1 6DS501      0.0000 
      8 C6         14.3850   20.0730   33.0120 C.ar      1 6DS501      0.0000 
      9 C7          7.1640   25.0420   34.0270 C.2       1 6DS501      0.0000 
     10 C8          4.1380   23.5940   34.8110 C.3       1 6DS501      0.0000 
     11 C9          9.1690   26.6510   35.2430 C.3       1 6DS501      0.0000 
     12 C10        12.7620   23.5530   33.3040 C.3       1 6DS501      0.0000 
     13 C11        11.2460   23.9620   33.4710 C.ar      1 6DS501      0.0000 
     14 C12        13.3510   24.2840   32.0530 C.3       1 6DS501      0.0000 
     15 C13        13.6650   24.0730   34.5140 C.3       1 6DS501      0.0000 
     16 C14        13.1910   23.6450   35.9670 C.3       1 6DS501      0.0000 
     17 C16        13.4780   13.6100   35.9390 C.2       1 6DS501      0.0000 
     18 C17        13.6830   13.6200   34.4490 C.3       1 6DS501      0.0000 
     19 C20        12.8000   23.7430   30.7220 C.3       1 6DS501      0.0000 
     20 C26        10.8980   25.0990   34.2330 C.ar      1 6DS501      0.0000 
     21 C27         9.5510   25.4420   34.4130 C.ar      1 6DS501      0.0000 
     22 C28         8.5560   24.6510   33.8070 C.ar      1 6DS501      0.0000 
     23 C29         8.9040   23.5870   32.9970 C.ar      1 6DS501      0.0000 
     24 C30        10.2340   23.2260   32.8130 C.ar      1 6DS501      0.0000 
     25 C34        11.3270   18.9210   35.0810 C.3       1 6DS501      0.0000 
     26 C43         6.1270   24.3740   33.5390 C.2       1 6DS501      0.0000 
     27 C44         4.7170   24.7270   33.8960 C.3       1 6DS501      0.0000 
     28 O47         4.4800   25.8660   34.6750 O.3       1 6DS501      0.0000 
     29 C48         3.9170   24.8140   32.5870 C.3       1 6DS501      0.0000 
     30 O62        13.8580   17.8950   33.8300 O.3       1 6DS501      0.0000 
     31 C63        15.0260   17.1410   33.4020 C.3       1 6DS501      0.0000 
     32 C64        15.0150   15.7530   34.2020 C.3       1 6DS501      0.0000 
     33 C67        13.8680   15.0270   33.9440 C.3       1 6DS501      0.0000 
     34 O71        13.2540   14.7620   36.6140 O.co2     1 6DS501      0.0000 
     35 F2          4.8520   23.5120   35.9930 F         1 6DS501      0.0000 
     36 F1          4.1680   22.3680   34.1880 F         1 6DS501      0.0000 
     37 F3          2.8220   23.9220   35.1230 F         1 6DS501      0.0000 
     38 F6          4.0570   23.6150   31.9310 F         1 6DS501      0.0000 
     39 F5          4.4450   25.8810   31.9160 F         1 6DS501      0.0000 
     40 F4          2.5980   25.0230   32.8260 F         1 6DS501      0.0000 
     41 H          11.2273   21.5876   34.5436 H         1 6DS501      0.0000 
     42 H          14.7798   22.0141   32.3180 H         1 6DS501      0.0000 
     43 H          15.2294   19.6433   32.6160 H         1 6DS501      0.0000 
     44 H           7.0359   25.9097   34.6124 H         1 6DS501      0.0000 
     45 H          14.4385   24.1698   32.0680 H         1 6DS501      0.0000 
     46 H          13.1178   25.3493   32.1353 H         1 6DS501      0.0000 
     47 H          13.6970   25.1691   34.4681 H         1 6DS501      0.0000 
     48 H          14.6868   23.7034   34.3593 H         1 6DS501      0.0000 
     49 H          12.8159   13.1690   33.9584 H         1 6DS501      0.0000 
     50 H          14.5657   13.0250   34.1981 H         1 6DS501      0.0000 
     51 H          11.6358   25.6717   34.6535 H         1 6DS501      0.0000 
     52 H           8.1612   23.0446   32.5151 H         1 6DS501      0.0000 
     53 H          10.4872   22.4421   32.2133 H         1 6DS501      0.0000 
     54 H           6.2203   23.5724   32.8857 H         1 6DS501      0.0000 
     55 H          15.9491   17.6327   33.6533 H         1 6DS501      0.0000 
     56 H          14.9958   16.8925   32.3559 H         1 6DS501      0.0000 
     57 H          15.9279   15.2630   33.8000 H         1 6DS501      0.0000 
     58 H          12.9305   15.6123   34.2905 H         1 6DS501      0.0000 
     59 H          13.6631   14.9828   32.8049 H         1 6DS501      0.0000 
     60 H           9.4982   26.5744   36.1841 H         1 6DS501      0.0000 
     61 H           9.5505   27.4953   34.8668 H         1 6DS501      0.0000 
     62 H           8.1774   26.7721   35.2883 H         1 6DS501      0.0000 
     63 H          13.1685   22.6508   36.0725 H         1 6DS501      0.0000 
     64 H          13.7994   24.0013   36.6761 H         1 6DS501      0.0000 
     65 H          12.2723   23.9824   36.1724 H         1 6DS501      0.0000 
     66 H          13.1917   24.2214   29.9360 H         1 6DS501      0.0000 
     67 H          13.0024   22.7708   30.6040 H         1 6DS501      0.0000 
     68 H          11.8070   23.8451   30.6622 H         1 6DS501      0.0000 
     69 H          11.7509   18.4506   35.8550 H         1 6DS501      0.0000 
     70 H          10.5649   19.4564   35.4451 H         1 6DS501      0.0000 
     71 H          10.9343   18.2168   34.4895 H         1 6DS501      0.0000 
     72 H          14.5932   15.7129   36.0284 H         1 6DS501      0.0000 
     73 H           4.7308   26.6272   34.0769 H         1 6DS501      0.0000 
@<TRIPOS>BOND
     1    3    1 ar   
     2    8    1 ar   
     3   30    1 1    
     4   32    2 1    
     5   72    2 1    
     6    5    3 ar   
     7   25    3 1    
     8   17    4 ar   
     9    6    5 ar   
    10   41    5 1    
    11    7    6 ar   
    12   12    6 1    
    13    8    7 ar   
    14   42    7 1    
    15   43    8 1    
    16   22    9 1    
    17   26    9 2    
    18   44    9 1    
    19   27   10 1    
    20   35   10 1    
    21   36   10 1    
    22   37   10 1    
    23   21   11 1    
    24   60   11 1    
    25   61   11 1    
    26   62   11 1    
    27   13   12 1    
    28   14   12 1    
    29   15   12 1    
    30   20   13 ar   
    31   24   13 ar   
    32   19   14 1    
    33   45   14 1    
    34   46   14 1    
    35   16   15 1    
    36   47   15 1    
    37   48   15 1    
    38   63   16 1    
    39   64   16 1    
    40   65   16 1    
    41   18   17 1    
    42   34   17 ar   
    43   33   18 1    
    44   49   18 1    
    45   50   18 1    
    46   66   19 1    
    47   67   19 1    
    48   68   19 1    
    49   21   20 ar   
    50   51   20 1    
    51   22   21 ar   
    52   23   22 ar   
    53   24   23 ar   
    54   52   23 1    
    55   53   24 1    
    56   69   25 1    
    57   70   25 1    
    58   71   25 1    
    59   27   26 1    
    60   54   26 1    
    61   28   27 1    
    62   29   27 1    
    63   73   28 1    
    64   38   29 1    
    65   39   29 1    
    66   40   29 1    
    67   31   30 1    
    68   32   31 1    
    69   55   31 1    
    70   56   31 1    
    71   33   32 1    
    72   57   32 1    
    73   58   33 1    
    74   59   33 1    
@<TRIPOS>SUBSTRUCTURE
     1 6DS501      1 GROUP   
@<TRIPOS>SET

