#    Name: 1yjq_NAP_1_INTS_M
#    Modification time : Tue Mar 25 11:05:30 2014

@<TRIPOS>MOLECULE
1yjq_NAP_1_INTS_M
   86     0    12     0     0
SMALL
NO_CHARGES


@<TRIPOS>ATOM
      1 N          19.7210   -1.4180    6.2960 N.am      2 SEC2        0.0000 
      2 N          20.3560   -1.0180    7.6750 N.am     10 SEL2        0.0000 
      3 N          19.0860   -1.8180    4.9170 N.am      6 SEP2        0.0000 
      4 CA         20.3060    4.5945    6.7995 C.3       4 GLC5        0.0000 
      5 CA         21.3010    2.6630    6.8960 C.3      12 GLL5        0.0000 
      6 CA         19.3110    6.5260    6.7030 C.3       8 GLP5        0.0000 
      7 CA         20.7985    3.2785    8.9990 C.3       4 GLC5        0.0000 
      8 CA         20.2960    3.8940   11.1020 C.3       8 GLP5        0.0000 
      9 CA         21.9205    3.7485    4.0770 C.3       4 GLC5        0.0000 
     10 CA         22.3260    2.6640    5.7130 C.3      12 GLL5        0.0000 
     11 CA         21.5150    4.8330    2.4410 C.3       8 GLP5        0.0000 
     12 CA         22.1740    4.8705    5.4625 C.3       4 GLC5        0.0000 
     13 CA         22.0220    7.0770    5.2120 C.3       8 GLP5        0.0000 
     14 CA         22.8995    4.4045    4.0865 C.3       4 GLC5        0.0000 
     15 CA         24.2840    3.9760    5.7320 C.3      12 GLL5        0.0000 
     16 CA         23.1530    5.5265    5.4720 C.3       4 GLC5        0.0000 
     17 CA         24.9990   10.3015    4.7870 C.3       4 GLC5        0.0000 
     18 CA         26.0720    8.5060    4.9460 C.3      12 GLL5        0.0000 
     19 CA         23.9260   12.0970    4.6280 C.3       8 GLP5        0.0000 
     20 CA         24.1925    8.3020    2.1460 C.3       4 GLC5        0.0000 
     21 CA         25.4270    7.1980    3.0840 C.3      12 GLL5        0.0000 
     22 CA         22.9580    9.4060    1.2080 C.3       8 GLP5        0.0000 
     23 CA         26.1515    6.2915    1.6115 C.3       4 GLC5        0.0000 
     24 CA         26.8760    5.3850    0.1390 C.3       8 GLP5        0.0000 
     25 CA         27.0940    7.0045    3.1160 C.3       4 GLC5        0.0000 
     26 CA         28.7610    6.8110    3.1480 C.3       8 GLP5        0.0000 
     27 CA         23.7245    7.1375    4.1480 C.3       4 GLC5        0.0000 
     28 N          16.9200   -0.2035    5.6150 N.am      2 SEC2        0.0000 
     29 N          17.4870    0.5860    6.7320 N.am     10 SEL2        0.0000 
     30 N          16.3530   -0.9930    4.4980 N.am      6 SEP2        0.0000 
     31 CA         14.4855    5.4755    9.1290 C.3       4 GLC5        0.0000 
     32 CA         15.7990    4.0180    9.1290 C.3      12 GLL5        0.0000 
     33 CA         13.1720    6.9330    9.1290 C.3       8 GLP5        0.0000 
     34 CA         15.1585    5.8140   10.0415 C.3       4 GLC5        0.0000 
     35 CA         15.8610    3.8930   10.6450 C.3      12 GLL5        0.0000 
     36 CA         14.4560    7.7350    9.4380 C.3       8 GLP5        0.0000 
     37 N          14.0915    5.7105   11.3365 N.am      2 SEC2        0.0000 
     38 N          15.4680    5.1240   11.2430 N.am     10 SEL2        0.0000 
     39 N          12.7150    6.2970   11.4300 N.am      6 SEP2        0.0000 
     40 O          16.1475    5.5470   12.3075 O.2       1 ALC1        0.0000 
     41 O          15.4680    5.1240   11.2430 O.2       9 ALL1        0.0000 
     42 O          16.8270    5.9700   13.3720 O.2       5 ALP1        0.0000 
     43 O          15.3050    3.5635   13.4845 O.2       1 ALC1        0.0000 
     44 O          14.4030    2.9530   12.4100 O.2       9 ALL1        0.0000 
     45 O          16.2070    4.1740   14.5590 O.2       5 ALP1        0.0000 
     46 CA         13.4830    5.0160    9.5605 C.3       4 GLC5        0.0000 
     47 CA         13.7940    3.0990    9.9920 C.3      12 GLL5        0.0000 
     48 CA         13.3570    1.6915    7.4500 C.3       4 GLC5        0.0000 
     49 CA         13.5330    0.7150    9.4220 C.3      12 GLL5        0.0000 
     50 CA         13.1810    2.6680    5.4780 C.3       8 GLP5        0.0000 
     51 N          12.4440   -3.8780    8.0060 N.am      2 SEC2        0.0000 
     52 N          12.5780   -2.7890    8.9270 N.am     10 SEL2        0.0000 
     53 N          12.3100   -4.9670    7.0850 N.am      6 SEP2        0.0000 
     54 O          14.7460   -3.3530    8.3675 O.2       1 ALC1        0.0000 
     55 O          14.6460   -1.8660    8.5020 O.2       9 ALL1        0.0000 
     56 O          14.8460   -4.8400    8.2330 O.2       5 ALP1        0.0000 
     57 NZ         29.4350    2.2535    7.2260 N.4       3 LYC4        0.0000 
     58 NZ         28.0980    1.5380    6.9050 N.4      11 LYL4        0.0000 
     59 NZ         30.6160    4.2900    7.4550 N.4       7 LYP4        0.0000 
     60 N          29.4350    2.2535    7.2260 N.am      2 SEC2        0.0000 
     61 N          28.0980    1.5380    6.9050 N.am     10 SEL2        0.0000 
     62 N          30.7720    2.9690    7.5470 N.am      6 SEP2        0.0000 
     63 NZ         28.2990    4.2170    7.7540 N.4       3 LYC4        0.0000 
     64 NZ         27.2050    3.6070    8.2480 N.4      11 LYL4        0.0000 
     65 N          28.2990    4.2170    7.7540 N.am      2 SEC2        0.0000 
     66 N          27.2050    3.6070    8.2480 N.am     10 SEL2        0.0000 
     67 N          29.3930    4.8270    7.2600 N.am      6 SEP2        0.0000 
     68 CA         21.8239    0.7871    5.1379 C.3       4 GLC5        0.0000 
     69 CA         20.9950   -0.6240    4.0560 C.3       8 GLP5        0.0000 
     70 CA         27.0904    6.6160    4.8925 C.3       4 GLC5        0.0000 
     71 CA         25.1600    6.2440    5.1490 C.3      12 GLL5        0.0000 
     72 CA         28.6710    6.1250    4.5310 C.3       8 GLP5        0.0000 
     73 CA         23.7659    7.0920    5.2330 C.3       4 GLC5        0.0000 
     74 CA         25.6470    7.4340    5.7720 C.3      12 GLL5        0.0000 
     75 CA         17.5971    4.9316   10.0861 C.3       4 GLC5        0.0000 
     76 CA         16.8560    3.1250    8.4860 C.3      12 GLL5        0.0000 
     77 CA         19.1000    6.1310   10.4460 C.3       8 GLP5        0.0000 
     78 CA         13.2775    3.9885   12.0068 C.3       4 GLC5        0.0000 
     79 CA         14.8640    2.7910   11.0430 C.3      12 GLL5        0.0000 
     80 CA         12.2260    5.0320   13.4960 C.3       8 GLP5        0.0000 
     81 CA         12.2293    0.0075    7.0338 C.3       4 GLC5        0.0000 
     82 CA         12.7320   -0.3700    9.1190 C.3      12 GLL5        0.0000 
     83 CA         12.4130    0.2850    4.9370 C.3       8 GLP5        0.0000 
     84 CA         10.1564    1.5954    7.9754 C.3       4 GLC5        0.0000 
     85 CA         11.3590   -0.1700    9.1420 C.3      12 GLL5        0.0000 
     86 CA          8.9810    1.9120    6.4510 C.3       8 GLP5        0.0000 
@<TRIPOS>BOND
@<TRIPOS>SUBSTRUCTURE
     1 ALC1       40 GROUP        1 X    ALC  0     ROOT ALC X 1
     2 SEC2        1 GROUP        1 X    SEC  0     **** SEC X 2
     3 LYC4       57 GROUP        1 X    LYC  0     **** LYC X 4
     4 GLC5        4 GROUP        1 X    GLC  0     **** GLC X 6
     5 ALP1       42 GROUP        1 Y    ALP  0     ROOT ALP Y 8
     6 SEP2        3 GROUP        1 Y    SEP  0     **** SEP Y 9
     7 LYP4       59 GROUP        1 Y    LYP  0     **** LYP Y 11
     8 GLP5        6 GROUP        1 Y    GLP  0     **** GLP Y 13
     9 ALL1       41 GROUP        1 Z    ALL  0     ROOT ALL Z 15
    10 SEL2        2 GROUP        1 Z    SEL  0     **** SEL Z 16
    11 LYL4       58 GROUP        1 Z    LYL  0     **** LYL Z 18
    12 GLL5        5 GROUP        1 Z    GLL  0     **** GLL Z 20
@<TRIPOS>SET

