#    Name: 1yjq_NAP_1_ligand
#    Modification time : Tue Mar 25 11:05:30 2014

@<TRIPOS>MOLECULE
1yjq_NAP_1_ligand
   73    77     1     0     0
SMALL
NO_CHARGES


@<TRIPOS>ATOM
      1 PA         20.5150    0.4150    8.1740 P.3       1 NAP501      0.0000 
      2 O1A        21.4610    0.7980    9.2210 O.co2     1 NAP501      0.0000 
      3 O2A        20.3560   -1.0180    7.6750 O.co2     1 NAP501      0.0000 
      4 O5B        20.6250    1.4000    6.8880 O.3       1 NAP501      0.0000 
      5 C5B        21.3010    2.6630    6.8960 C.3       1 NAP501      0.0000 
      6 C4B        22.3260    2.6640    5.7130 C.3       1 NAP501      0.0000 
      7 O4B        22.8060    4.0000    5.5350 O.3       1 NAP501      0.0000 
      8 C3B        23.4920    1.7330    6.1350 C.3       1 NAP501      0.0000 
      9 O3B        23.8390    0.8880    5.0510 O.3       1 NAP501      0.0000 
     10 C2B        24.5840    2.7240    6.5630 C.3       1 NAP501      0.0000 
     11 O2B        25.9280    2.2600    6.3110 O.3       1 NAP501      0.0000 
     12 C1B        24.2840    3.9760    5.7320 C.3       1 NAP501      0.0000 
     13 N9A        24.8970    5.3590    6.1220 N.pl3     1 NAP501      0.0000 
     14 C8A        25.1510    5.9470    7.3130 C.2       1 NAP501      0.0000 
     15 N7A        25.6120    7.1980    7.1040 N.2       1 NAP501      0.0000 
     16 C5A        25.6470    7.4340    5.7720 C.ar      1 NAP501      0.0000 
     17 C6A        26.0720    8.5060    4.9460 C.ar      1 NAP501      0.0000 
     18 N6A        26.5540    9.6700    5.4360 N.pl3     1 NAP501      0.0000 
     19 N1A        25.9330    8.3390    3.6130 N.ar      1 NAP501      0.0000 
     20 C2A        25.4270    7.1980    3.0840 C.ar      1 NAP501      0.0000 
     21 N3A        25.0440    6.1240    3.7930 N.ar      1 NAP501      0.0000 
     22 C4A        25.1600    6.2440    5.1490 C.ar      1 NAP501      0.0000 
     23 O3         19.1090    1.0220    8.7010 O.3       1 NAP501      0.0000 
     24 PN         17.5430    0.6120    8.2170 P.3       1 NAP501      0.0000 
     25 O1N        17.0930   -0.6190    8.9480 O.co2     1 NAP501      0.0000 
     26 O2N        17.4870    0.5860    6.7320 O.co2     1 NAP501      0.0000 
     27 O5D        16.7540    1.7680    8.9700 O.3       1 NAP501      0.0000 
     28 C5D        16.8560    3.1250    8.4860 C.3       1 NAP501      0.0000 
     29 C4D        15.7990    4.0180    9.1290 C.3       1 NAP501      0.0000 
     30 O4D        14.5440    3.3990    8.7240 O.3       1 NAP501      0.0000 
     31 C3D        15.8610    3.8930   10.6450 C.3       1 NAP501      0.0000 
     32 O3D        15.4680    5.1240   11.2430 O.3       1 NAP501      0.0000 
     33 C2D        14.8640    2.7910   11.0430 C.3       1 NAP501      0.0000 
     34 O2D        14.4030    2.9530   12.4100 O.3       1 NAP501      0.0000 
     35 C1D        13.7940    3.0990    9.9920 C.3       1 NAP501      0.0000 
     36 N1N        12.9570    1.9650    9.6990 N.pl3     1 NAP501      0.0000 
     37 C2N        13.5330    0.7150    9.4220 C.ar      1 NAP501      0.0000 
     38 C3N        12.7320   -0.3700    9.1190 C.ar      1 NAP501      0.0000 
     39 C7N        13.3150   -1.7950    8.8120 C.2       1 NAP501      0.0000 
     40 O7N        12.5780   -2.7890    8.9270 O.2       1 NAP501      0.0000 
     41 N7N        14.6460   -1.8660    8.5020 N.am      1 NAP501      0.0000 
     42 C4N        11.3590   -0.1700    9.1420 C.ar      1 NAP501      0.0000 
     43 C5N        10.7860    1.0450    9.4450 C.ar      1 NAP501      0.0000 
     44 C6N        11.5910    2.1200    9.7060 C.ar      1 NAP501      0.0000 
     45 P2B        26.8520    2.1100    7.6450 P.3       1 NAP501      0.0000 
     46 O1X        28.0980    1.5380    6.9050 O.co2     1 NAP501      0.0000 
     47 O2X        27.2050    3.6070    8.2480 O.co2     1 NAP501      0.0000 
     48 O3X        26.1000    1.3030    8.7350 O.co2     1 NAP501      0.0000 
     49 H          21.8658    2.8248    7.8070 H         1 NAP501      0.0000 
     50 H          20.6258    3.4953    6.7332 H         1 NAP501      0.0000 
     51 H          21.8534    2.2649    4.8665 H         1 NAP501      0.0000 
     52 H          23.1572    1.2107    7.0070 H         1 NAP501      0.0000 
     53 H          24.4145    2.9785    7.5903 H         1 NAP501      0.0000 
     54 H          24.7003    3.7339    4.6832 H         1 NAP501      0.0000 
     55 H          25.0215    5.5327    8.1814 H         1 NAP501      0.0000 
     56 H          26.8293   10.3522    4.7586 H         1 NAP501      0.0000 
     57 H          26.5925    9.7456    6.4324 H         1 NAP501      0.0000 
     58 H          25.3266    7.1548    2.0130 H         1 NAP501      0.0000 
     59 H          16.7192    3.1697    7.3956 H         1 NAP501      0.0000 
     60 H          17.8436    3.5540    8.7102 H         1 NAP501      0.0000 
     61 H          15.8831    4.9840    8.8138 H         1 NAP501      0.0000 
     62 H          16.8334    3.5841   10.9273 H         1 NAP501      0.0000 
     63 H          15.2983    1.8699   10.8153 H         1 NAP501      0.0000 
     64 H          13.2494    3.9527   10.2763 H         1 NAP501      0.0000 
     65 H          14.5574    0.6159    9.4471 H         1 NAP501      0.0000 
     66 H          15.0008   -2.7769    8.2914 H         1 NAP501      0.0000 
     67 H          15.1472   -1.0007    8.5132 H         1 NAP501      0.0000 
     68 H          10.7330   -0.9839    8.9178 H         1 NAP501      0.0000 
     69 H           9.7608    1.1394    9.4738 H         1 NAP501      0.0000 
     70 H          11.1776    3.0443    9.9076 H         1 NAP501      0.0000 
     71 H          24.7794    0.6027    5.2361 H         1 NAP501      0.0000 
     72 H          16.1239    5.2731   11.9830 H         1 NAP501      0.0000 
     73 H          15.1141    3.4928   12.8606 H         1 NAP501      0.0000 
@<TRIPOS>BOND
     1    2    1 ar   
     2    3    1 ar   
     3    4    1 1    
     4   23    1 1    
     5    5    4 1    
     6    6    5 1    
     7   49    5 1    
     8   50    5 1    
     9    7    6 1    
    10    8    6 1    
    11   51    6 1    
    12   12    7 1    
    13    9    8 1    
    14   10    8 1    
    15   52    8 1    
    16   71    9 1    
    17   11   10 1    
    18   12   10 1    
    19   53   10 1    
    20   45   11 1    
    21   13   12 1    
    22   54   12 1    
    23   14   13 1    
    24   22   13 1    
    25   15   14 2    
    26   55   14 1    
    27   16   15 1    
    28   17   16 ar   
    29   22   16 ar   
    30   18   17 1    
    31   19   17 ar   
    32   56   18 1    
    33   57   18 1    
    34   20   19 ar   
    35   21   20 ar   
    36   58   20 1    
    37   22   21 ar   
    38   24   23 1    
    39   25   24 ar   
    40   26   24 ar   
    41   27   24 1    
    42   28   27 1    
    43   29   28 1    
    44   59   28 1    
    45   60   28 1    
    46   30   29 1    
    47   31   29 1    
    48   61   29 1    
    49   35   30 1    
    50   32   31 1    
    51   33   31 1    
    52   62   31 1    
    53   72   32 1    
    54   34   33 1    
    55   35   33 1    
    56   63   33 1    
    57   73   34 1    
    58   36   35 1    
    59   64   35 1    
    60   37   36 ar   
    61   44   36 ar   
    62   38   37 ar   
    63   65   37 1    
    64   39   38 1    
    65   42   38 ar   
    66   40   39 2    
    67   41   39 am   
    68   66   41 1    
    69   67   41 1    
    70   43   42 ar   
    71   68   42 1    
    72   44   43 ar   
    73   69   43 1    
    74   70   44 1    
    75   46   45 ar   
    76   47   45 ar   
    77   48   45 ar   
@<TRIPOS>SUBSTRUCTURE
     1 NAP501      1 GROUP   
@<TRIPOS>SET

