#    Name: 3PHC_5_CAVITY_N1_6.mol2
#    Modification time : Mon Mar 10 14:24:12 2014

@<TRIPOS>MOLECULE
3PHC_5_CAVITY_N1_6.mol2
   65     0     6     0     0
SMALL
NO_CHARGES


@<TRIPOS>ATOM
      1 CA        -18.3914   -5.6197   16.3601 C.3       5 GLY6        0.0000 
      2 CZ        -15.1158   -1.4298   23.3038 C.ar      4 PHE5        0.0000 
      3 CZ        -13.7613   -2.0038   23.0112 C.ar      4 PHE5        0.0000 
      4 CA        -12.4067   -2.5779   22.7186 C.3       5 GLY6        0.0000 
      5 CZ        -14.0806   -2.0104   21.5456 C.ar      4 PHE5        0.0000 
      6 CA        -12.7260   -2.5844   21.2530 C.3       5 GLY6        0.0000 
      7 CA        -13.0454   -2.5909   19.7874 C.3       5 GLY6        0.0000 
      8 N         -13.3647   -2.5974   18.3218 N.2       2 ALA2        0.0000 
      9 O         -16.6267    1.1171   26.6921 O.2       2 ALA2        0.0000 
     10 O         -13.9175   -0.0310   26.1069 O.2       2 ALA2        0.0000 
     11 OG        -12.5630   -0.6050   25.8143 O.2       1 SER1        0.0000 
     12 O         -11.2084   -1.1791   25.5217 O.2       2 ALA2        0.0000 
     13 N         -15.5914    0.5366   24.9339 N.2       2 ALA2        0.0000 
     14 DU        -14.2369   -0.0375   24.6413 H         6 CUB7        0.0000 
     15 DU        -12.8823   -0.6115   24.3487 H         6 CUB7        0.0000 
     16 NZ        -11.5277   -1.1856   24.0561 N.2       3 LYS4        0.0000 
     17 N         -15.9108    0.5300   23.4683 N.2       2 ALA2        0.0000 
     18 CZ        -14.5562   -0.0440   23.1757 C.ar      4 PHE5        0.0000 
     19 CA        -13.2016   -0.6181   22.8831 C.3       5 GLY6        0.0000 
     20 CA        -11.8471   -1.1921   22.5905 C.3       5 GLY6        0.0000 
     21 OG        -14.0015   -3.3831   24.6049 O.2       1 SER1        0.0000 
     22 CZ        -15.6754   -2.8156   23.4319 C.ar      4 PHE5        0.0000 
     23 CZ        -14.3209   -3.3896   23.1393 C.ar      4 PHE5        0.0000 
     24 N         -12.9663   -3.9637   22.8467 N.2       2 ALA2        0.0000 
     25 CZ        -14.6402   -3.3962   21.6737 C.ar      4 PHE5        0.0000 
     26 N         -13.2856   -3.9702   21.3811 N.2       2 ALA2        0.0000 
     27 CZ        -14.9595   -3.4027   20.2081 C.ar      4 PHE5        0.0000 
     28 CA        -13.6050   -3.9767   19.9155 C.3       5 GLY6        0.0000 
     29 CZ        -15.2789   -3.4092   18.7425 C.ar      4 PHE5        0.0000 
     30 CA        -13.9243   -3.9832   18.4499 C.3       5 GLY6        0.0000 
     31 N         -15.5982   -3.4157   17.2769 N.2       2 ALA2        0.0000 
     32 N         -14.2436   -3.9897   16.9843 N.2       2 ALA2        0.0000 
     33 N         -15.9175   -3.4222   15.8113 N.2       2 ALA2        0.0000 
     34 N         -14.5630   -3.9962   15.5187 N.2       2 ALA2        0.0000 
     35 CA        -14.8823   -4.0028   14.0531 C.3       5 GLY6        0.0000 
     36 CA        -18.5408    0.3054   27.1128 C.3       5 GLY6        0.0000 
     37 CA        -17.1863   -0.2687   26.8202 C.3       5 GLY6        0.0000 
     38 O         -15.8317   -0.8427   26.5276 O.2       2 ALA2        0.0000 
     39 N         -17.5056   -0.2752   25.3546 N.2       2 ALA2        0.0000 
     40 NZ        -16.1510   -0.8492   25.0620 N.2       3 LYS4        0.0000 
     41 OG        -14.7965   -1.4233   24.7694 O.2       1 SER1        0.0000 
     42 OG        -13.4419   -1.9973   24.4768 O.2       1 SER1        0.0000 
     43 N         -12.0873   -2.5714   24.1842 N.2       2 ALA2        0.0000 
     44 O         -14.8805   -4.7754   23.2674 O.2       2 ALA2        0.0000 
     45 O         -15.1998   -4.7819   21.8018 O.2       2 ALA2        0.0000 
     46 N         -13.8453   -5.3560   21.5092 N.2       2 ALA2        0.0000 
     47 CZ        -15.5192   -4.7885   20.3362 C.ar      4 PHE5        0.0000 
     48 CZ        -15.8385   -4.7950   18.8706 C.ar      4 PHE5        0.0000 
     49 CA        -14.4839   -5.3690   18.5780 C.3       5 GLY6        0.0000 
     50 CA        -16.1578   -4.8015   17.4050 C.3       5 GLY6        0.0000 
     51 CA        -14.8033   -5.3755   17.1124 C.3       5 GLY6        0.0000 
     52 CZ        -17.8317   -4.2339   16.2320 C.ar      4 PHE5        0.0000 
     53 CA        -16.4772   -4.8080   15.9394 C.3       5 GLY6        0.0000 
     54 O         -11.6840    0.7873   27.1518 O.2       2 ALA2        0.0000 
     55 O         -13.3579    1.3548   25.9788 O.2       2 ALA2        0.0000 
     56 NZ        -12.0033    0.7808   25.6862 N.2       3 LYS4        0.0000 
     57 NZ        -10.6488    0.2067   25.3936 N.2       3 LYS4        0.0000 
     58 N         -15.0318    1.9223   24.8058 N.2       2 ALA2        0.0000 
     59 CA        -13.6772    1.3483   24.5132 C.3       5 GLY6        0.0000 
     60 NZ        -12.3227    0.7742   24.2206 N.2       3 LYS4        0.0000 
     61 NZ        -10.9681    0.2002   23.9280 N.2       3 LYS4        0.0000 
     62 CA        -13.9966    1.3418   23.0476 C.3       5 GLY6        0.0000 
     63 CA        -12.6420    0.7677   22.7550 C.3       5 GLY6        0.0000 
     64 NZ        -11.4437    2.1665   25.5581 N.2       3 LYS4        0.0000 
     65 NZ        -11.7631    2.1600   24.0925 N.2       3 LYS4        0.0000 
@<TRIPOS>BOND
@<TRIPOS>SUBSTRUCTURE
     1 SER1       11 GROUP   
     2 ALA2        8 GROUP   
     3 LYS4       16 GROUP   
     4 PHE5        2 GROUP   
     5 GLY6        1 GROUP   
     6 CUB7       14 GROUP   
@<TRIPOS>SET

