#    Name: 3phc_IM5_5_INTS_M
#    Modification time : Tue Mar 25 06:36:32 2014

@<TRIPOS>MOLECULE
3phc_IM5_5_INTS_M
   41     0     9     0     0
SMALL
NO_CHARGES


@<TRIPOS>ATOM
      1 CA        -11.6780   -3.6335   22.1745 C.3       3 GLC5        0.0000 
      2 CA        -13.6370   -3.3650   22.5580 C.3       9 GLL5        0.0000 
      3 CA         -9.7190   -3.9020   21.7910 C.3       6 GLP5        0.0000 
      4 CA        -14.6360   -6.2205   22.6800 C.3       3 GLC5        0.0000 
      5 CA        -14.7820   -4.2800   22.4820 C.3       9 GLL5        0.0000 
      6 CA        -14.4900   -8.1610   22.8780 C.3       6 GLP5        0.0000 
      7 O         -16.1285   -5.1815   24.4455 O.2       1 ALC1        0.0000 
      8 O         -15.1320   -4.5750   23.7250 O.2       7 ALL1        0.0000 
      9 O         -17.1250   -5.7880   25.1660 O.2       4 ALP1        0.0000 
     10 CA        -13.7585   -3.8525   26.5895 C.3       3 GLC5        0.0000 
     11 CA        -14.3070   -3.9290   24.6100 C.3       9 GLL5        0.0000 
     12 CA        -13.2100   -3.7760   28.5690 C.3       6 GLP5        0.0000 
     13 CA        -12.7165   -3.0640   26.5740 C.3       3 GLC5        0.0000 
     14 CA        -12.2230   -2.3520   24.5790 C.3       9 GLL5        0.0000 
     15 CA        -12.1400   -4.3040   24.8345 C.3       3 GLC5        0.0000 
     16 CA        -12.0570   -6.2560   25.0900 C.3       6 GLP5        0.0000 
     17 CA        -12.4955    3.0290   23.1795 C.3       3 GLC5        0.0000 
     18 CA        -12.3960    1.2360   23.9690 C.3       9 GLL5        0.0000 
     19 CA        -12.5950    4.8220   22.3900 C.3       6 GLP5        0.0000 
     20 O         -10.3080    2.0525   24.2860 O.2       1 ALC1        0.0000 
     21 O         -11.4820    1.9040   24.8320 O.2       7 ALL1        0.0000 
     22 O          -9.1340    2.2010   23.7400 O.2       4 ALP1        0.0000 
     23 CA        -15.7885   -0.0070   22.4045 C.3       3 GLC5        0.0000 
     24 CA        -14.8360    1.0500   23.7070 C.3       9 GLL5        0.0000 
     25 CA        -16.7410   -1.0640   21.1020 C.3       6 GLP5        0.0000 
     26 CA        -13.5340    1.1235   22.0155 C.3       3 GLC5        0.0000 
     27 CA        -12.2320    1.1970   20.3240 C.3       6 GLP5        0.0000 
     28 CA        -16.2865    2.4060   23.9705 C.3       3 GLC5        0.0000 
     29 CA        -17.7370    3.7620   24.2340 C.3       6 GLP5        0.0000 
     30 N         -16.8250    1.6210   23.9515 N.am      2 SEC2        0.0000 
     31 N         -16.0480    0.6580   24.3610 N.am      8 SEL2        0.0000 
     32 N         -17.6020    2.5840   23.5420 N.am      5 SEP2        0.0000 
     33 CA        -11.0005   -3.3270   23.7585 C.3       3 GLC5        0.0000 
     34 CA        -13.3550   -3.1460   23.9730 C.3       9 GLL5        0.0000 
     35 CA         -9.2120   -3.9050   23.2410 C.3       6 GLP5        0.0000 
     36 CA        -12.1892    0.8662   22.0643 C.3       3 GLC5        0.0000 
     37 CA        -11.8970   -0.1650   23.6400 C.3       9 GLL5        0.0000 
     38 CA        -13.7280    3.0297   24.5237 C.3       3 GLC5        0.0000 
     39 CA        -13.7020    1.0070   24.7040 C.3       9 GLL5        0.0000 
     40 CA        -13.1870    5.0310   24.8420 C.3       6 GLP5        0.0000 
     41 CA        -13.0386   -4.9680   24.2479 C.3       3 GLC5        0.0000 
@<TRIPOS>BOND
@<TRIPOS>SUBSTRUCTURE
     1 ALC1        7 GROUP        1 X    ALC  0     ROOT ALC X 1
     2 SEC2       30 GROUP        1 X    SEC  0     **** SEC X 2
     3 GLC5        1 GROUP        1 X    GLC  0     **** GLC X 6
     4 ALP1        9 GROUP        1 Y    ALP  0     ROOT ALP Y 8
     5 SEP2       32 GROUP        1 Y    SEP  0     **** SEP Y 9
     6 GLP5        3 GROUP        1 Y    GLP  0     **** GLP Y 13
     7 ALL1        8 GROUP        1 Z    ALL  0     ROOT ALL Z 15
     8 SEL2       31 GROUP        1 Z    SEL  0     **** SEL Z 16
     9 GLL5        2 GROUP        1 Z    GLL  0     **** GLL Z 20
@<TRIPOS>SET

