#    Name: 3phc_IM5_5_ligand
#    Modification time : Tue Mar 25 06:36:32 2014

@<TRIPOS>MOLECULE
3phc_IM5_5_ligand
   38    40     1     0     0
SMALL
NO_CHARGES


@<TRIPOS>ATOM
      1 N1        -14.5780   -4.0520   20.0830 N.am      1 IM5501      0.0000 
      2 C2        -13.5190   -3.2170   20.2360 C.2       1 IM5501      0.0000 
      3 N2        -12.9120   -2.7030   19.1400 N.pl3     1 IM5501      0.0000 
      4 N3        -13.0410   -2.8650   21.4570 N.2       1 IM5501      0.0000 
      5 C4        -13.6370   -3.3650   22.5580 C.2       1 IM5501      0.0000 
      6 C5        -14.7820   -4.2800   22.4820 C.2       1 IM5501      0.0000 
      7 C6        -15.2370   -4.6010   21.1210 C.2       1 IM5501      0.0000 
      8 O6        -16.1920   -5.3660   20.9460 O.2       1 IM5501      0.0000 
      9 N7        -15.1320   -4.5750   23.7250 N.pl3     1 IM5501      0.0000 
     10 C8        -14.3070   -3.9290   24.6100 C.2       1 IM5501      0.0000 
     11 C9        -13.3550   -3.1460   23.9730 C.2       1 IM5501      0.0000 
     12 N1'       -12.3190   -0.9150   24.8220 N.4       1 IM5501      0.0000 
     13 C10       -12.2230   -2.3520   24.5790 C.3       1 IM5501      0.0000 
     14 C2'       -11.8970   -0.1650   23.6400 C.3       1 IM5501      0.0000 
     15 C3'       -12.3960    1.2360   23.9690 C.3       1 IM5501      0.0000 
     16 O3'       -11.4820    1.9040   24.8320 O.3       1 IM5501      0.0000 
     17 C4'       -13.7020    1.0070   24.7040 C.3       1 IM5501      0.0000 
     18 C5'       -14.8360    1.0500   23.7070 C.3       1 IM5501      0.0000 
     19 O5'       -16.0480    0.6580   24.3610 O.3       1 IM5501      0.0000 
     20 C6'       -13.6300   -0.4010   25.2790 C.3       1 IM5501      0.0000 
     21 H         -14.8986   -4.2804   19.0963 H         1 IM5501      0.0000 
     22 H         -12.1676   -2.0576   19.3113 H         1 IM5501      0.0000 
     23 H         -13.2619   -3.0144   18.2565 H         1 IM5501      0.0000 
     24 H         -15.8634   -5.1614   23.9980 H         1 IM5501      0.0000 
     25 H         -14.3754   -4.0063   25.5853 H         1 IM5501      0.0000 
     26 H         -11.5704   -0.6549   25.6305 H         1 IM5501      0.0000 
     27 H         -11.2882   -2.5592   23.9413 H         1 IM5501      0.0000 
     28 H         -11.9330   -2.8762   25.5611 H         1 IM5501      0.0000 
     29 H         -12.3865   -0.5098   22.7644 H         1 IM5501      0.0000 
     30 H         -10.8404   -0.1433   23.5489 H         1 IM5501      0.0000 
     31 H         -12.5934    1.7503   23.0729 H         1 IM5501      0.0000 
     32 H         -13.8298    1.7038   25.4609 H         1 IM5501      0.0000 
     33 H         -14.5915    0.3773   22.8790 H         1 IM5501      0.0000 
     34 H         -14.9059    2.0673   23.3094 H         1 IM5501      0.0000 
     35 H         -13.6677   -0.3471   26.3452 H         1 IM5501      0.0000 
     36 H         -14.4294   -0.9852   24.8780 H         1 IM5501      0.0000 
     37 H         -10.5786    1.5755   24.5563 H         1 IM5501      0.0000 
     38 H         -16.1648   -0.3083   24.1318 H         1 IM5501      0.0000 
@<TRIPOS>BOND
     1    2    1 1    
     2    7    1 am   
     3   21    1 1    
     4    3    2 1    
     5    4    2 2    
     6   22    3 1    
     7   23    3 1    
     8    5    4 1    
     9    6    5 2    
    10   11    5 1    
    11    7    6 1    
    12    9    6 1    
    13    8    7 2    
    14   10    9 1    
    15   24    9 1    
    16   11   10 2    
    17   25   10 1    
    18   13   11 1    
    19   13   12 1    
    20   14   12 1    
    21   20   12 1    
    22   26   12 1    
    23   27   13 1    
    24   28   13 1    
    25   15   14 1    
    26   29   14 1    
    27   30   14 1    
    28   16   15 1    
    29   17   15 1    
    30   31   15 1    
    31   37   16 1    
    32   18   17 1    
    33   20   17 1    
    34   32   17 1    
    35   19   18 1    
    36   33   18 1    
    37   34   18 1    
    38   38   19 1    
    39   35   20 1    
    40   36   20 1    
@<TRIPOS>SUBSTRUCTURE
     1 IM5501      1 GROUP   
@<TRIPOS>SET

