#    Name: 4J3L_1_CAVITY_N1_6.mol2
#    Modification time : Tue Mar 11 07:08:54 2014

@<TRIPOS>MOLECULE
4J3L_1_CAVITY_N1_6.mol2
   70     0     6     0     0
SMALL
NO_CHARGES


@<TRIPOS>ATOM
      1 N           5.4101   -9.1575   -3.9103 N.2       2 ALA2        0.0000 
      2 DU          3.4318  -11.8005   -3.3179 H         6 CUB7        0.0000 
      3 DU          4.6660  -11.1434   -3.8611 H         6 CUB7        0.0000 
      4 O           5.9001  -10.4863   -4.4043 O.2       2 ALA2        0.0000 
      5 CA          3.9219  -13.1293   -3.8119 C.3       5 GLY6        0.0000 
      6 CA          5.1560  -12.4723   -4.3551 C.3       5 GLY6        0.0000 
      7 N           1.7540   -8.9139   -3.6380 N.2       2 ALA2        0.0000 
      8 CZ          2.2441  -10.2427   -4.1320 C.ar      4 PHE5        0.0000 
      9 N           3.4783   -9.5856   -4.6751 N.2       2 ALA2        0.0000 
     10 CZ          1.5000  -12.2286   -4.0827 C.ar      4 PHE5        0.0000 
     11 CZ          2.7342  -11.5715   -4.6259 C.ar      4 PHE5        0.0000 
     12 CA          3.9684  -10.9145   -5.1691 C.3       5 GLY6        0.0000 
     13 CA          5.2025  -10.2574   -5.7123 C.3       5 GLY6        0.0000 
     14 CZ          0.7559  -14.2145   -4.0335 C.ar      4 PHE5        0.0000 
     15 CA          1.9901  -13.5575   -4.5767 C.3       5 GLY6        0.0000 
     16 CA          3.2243  -12.9004   -5.1199 C.3       5 GLY6        0.0000 
     17 CZ          1.5465  -10.0137   -5.4400 C.ar      4 PHE5        0.0000 
     18 N           2.7807   -9.3566   -5.9832 N.2       2 ALA2        0.0000 
     19 CZ          2.0366  -11.3426   -5.9340 C.ar      4 PHE5        0.0000 
     20 N           3.2708  -10.6855   -6.4771 N.2       2 ALA2        0.0000 
     21 CA          4.5049  -10.0284   -7.0203 C.3       5 GLY6        0.0000 
     22 CA          0.0583  -13.9856   -5.3416 C.3       5 GLY6        0.0000 
     23 CA          1.2925  -13.3285   -5.8848 C.3       5 GLY6        0.0000 
     24 CA          2.5267  -12.6714   -6.4279 C.3       5 GLY6        0.0000 
     25 O           1.7826  -14.6573   -6.3787 O.2       2 ALA2        0.0000 
     26 CZ          0.8489   -9.7848   -6.7480 C.ar      4 PHE5        0.0000 
     27 CZ          0.1048  -11.7707   -6.6988 C.ar      4 PHE5        0.0000 
     28 CZ          1.3390  -11.1136   -7.2420 C.ar      4 PHE5        0.0000 
     29 N           2.5732  -10.4565   -7.7852 N.2       2 ALA2        0.0000 
     30 CA          3.8073   -9.7994   -8.3284 C.3       5 GLY6        0.0000 
     31 CA          0.5949  -13.0995   -7.1928 C.3       5 GLY6        0.0000 
     32 CA          1.8291  -12.4424   -7.7360 C.3       5 GLY6        0.0000 
     33 CA          3.0632  -11.7853   -8.2792 C.3       5 GLY6        0.0000 
     34 CA          4.2974  -11.1283   -8.8223 C.3       5 GLY6        0.0000 
     35 CA          1.0850  -14.4284   -7.6868 C.3       5 GLY6        0.0000 
     36 CZ          2.3191  -13.7713   -8.2299 C.ar      4 PHE5        0.0000 
     37 CA          3.5533  -13.1142   -8.7731 C.3       5 GLY6        0.0000 
     38 CA          4.7875  -12.4571   -9.3163 C.3       5 GLY6        0.0000 
     39 OG          0.6414  -10.8846   -8.5500 O.2       1 SER1        0.0000 
     40 N           1.8756  -10.2275   -9.0932 N.2       2 ALA2        0.0000 
     41 N           3.1097   -9.5705   -9.6364 N.2       2 ALA2        0.0000 
     42 OG         -0.1027  -12.8705   -8.5008 O.2       1 SER1        0.0000 
     43 N           1.1315  -12.2135   -9.0440 N.2       2 ALA2        0.0000 
     44 DU          2.3656  -11.5564   -9.5872 H         6 CUB7        0.0000 
     45 CA          3.5998  -10.8993  -10.1304 C.3       5 GLY6        0.0000 
     46 CA          4.8340  -10.2422  -10.6736 C.3       5 GLY6        0.0000 
     47 CA          1.6215  -13.5423   -9.5380 C.3       5 GLY6        0.0000 
     48 CZ          2.8557  -12.8852  -10.0812 C.ar      4 PHE5        0.0000 
     49 CZ          4.0899  -12.2281  -10.6243 C.ar      4 PHE5        0.0000 
     50 CZ          5.3240  -11.5710  -11.1675 C.ar      4 PHE5        0.0000 
     51 CZ          5.8141  -12.8999  -11.6615 C.ar      4 PHE5        0.0000 
     52 N           1.6680  -11.3274  -10.8952 N.2       2 ALA2        0.0000 
     53 CA          2.9022  -10.6703  -11.4384 C.3       5 GLY6        0.0000 
     54 CA          2.1581  -12.6562  -11.3892 C.3       5 GLY6        0.0000 
     55 CZ          3.3923  -11.9992  -11.9324 C.ar      4 PHE5        0.0000 
     56 CA          4.6264  -11.3421  -12.4756 C.3       5 GLY6        0.0000 
     57 CZ          5.1165  -12.6709  -12.9695 C.ar      4 PHE5        0.0000 
     58 CZ          6.3507  -12.0138  -13.5127 C.ar      4 PHE5        0.0000 
     59 N           1.4605  -12.4273  -12.6972 N.2       2 ALA2        0.0000 
     60 N           2.6947  -11.7702  -13.2404 N.2       2 ALA2        0.0000 
     61 CA          1.9506  -13.7561  -13.1912 C.3       5 GLY6        0.0000 
     62 CZ          3.1847  -13.0990  -13.7344 C.ar      4 PHE5        0.0000 
     63 CZ          4.4189  -12.4419  -14.2776 C.ar      4 PHE5        0.0000 
     64 NZ          5.6531  -11.7849  -14.8208 N.2       3 LYS4        0.0000 
     65 CZ          4.9090  -13.7708  -14.7716 C.ar      4 PHE5        0.0000 
     66 NZ          6.1432  -13.1137  -15.3147 N.2       3 LYS4        0.0000 
     67 N           1.9971  -11.5412  -14.5484 N.2       2 ALA2        0.0000 
     68 N           3.2313  -10.8841  -15.0916 N.2       2 ALA2        0.0000 
     69 OG          2.4871  -12.8701  -15.0424 O.2       1 SER1        0.0000 
     70 CA          3.7213  -12.2130  -15.5856 C.3       5 GLY6        0.0000 
@<TRIPOS>BOND
@<TRIPOS>SUBSTRUCTURE
     1 SER1       39 GROUP   
     2 ALA2        1 GROUP   
     3 LYS4       64 GROUP   
     4 PHE5        8 GROUP   
     5 GLY6        5 GROUP   
     6 CUB7        2 GROUP   
@<TRIPOS>SET

