#    Name: 4j3l_AJ5_1_INTS_M
#    Modification time : Tue Mar 25 05:20:25 2014

@<TRIPOS>MOLECULE
4j3l_AJ5_1_INTS_M
   54     0     9     0     0
SMALL
NO_CHARGES


@<TRIPOS>ATOM
      1 CA          0.6950  -10.8960   -2.5870 C.3       3 GLC5        0.0000 
      2 CA          2.5620  -10.4020   -1.6490 C.3       9 GLL5        0.0000 
      3 CA         -1.1720  -11.3900   -3.5250 C.3       6 GLP5        0.0000 
      4 CA          5.2870  -14.0890  -13.7105 C.3       3 GLC5        0.0000 
      5 CA          5.5600  -12.4170  -14.3080 C.3       9 GLL5        0.0000 
      6 CA          5.0140  -15.7610  -13.1130 C.3       6 GLP5        0.0000 
      7 CA          6.9980   -8.5010   -1.9555 C.3       3 GLC5        0.0000 
      8 CA          6.3600  -10.3350   -1.0990 C.3       9 GLL5        0.0000 
      9 CA          7.6360   -6.6670   -2.8120 C.3       6 GLP5        0.0000 
     10 CA          1.7600  -14.0320  -15.5675 C.3       3 GLC5        0.0000 
     11 CA          3.0630  -12.5230  -14.7350 C.3       9 GLL5        0.0000 
     12 CA          0.4570  -15.5410  -16.4000 C.3       6 GLP5        0.0000 
     13 N          -0.5880  -12.7295  -14.6280 N.am      2 SEC2        0.0000 
     14 N           0.7460  -12.6620  -14.9810 N.am      8 SEL2        0.0000 
     15 N          -1.9220  -12.7970  -14.2750 N.am      5 SEP2        0.0000 
     16 N           0.4235  -13.0265  -16.2170 N.am      2 SEC2        0.0000 
     17 N           0.1010  -13.3910  -17.4530 N.am      5 SEP2        0.0000 
     18 O           0.3200  -12.6860  -12.3025 O.2       1 ALC1        0.0000 
     19 O           1.4790  -12.2780  -12.9110 O.2       7 ALL1        0.0000 
     20 O          -0.8390  -13.0940  -11.6940 O.2       4 ALP1        0.0000 
     21 CA         -0.6890  -13.7850   -8.9160 C.3       3 GLC5        0.0000 
     22 CA          1.2420  -14.0720   -8.2460 C.3       9 GLL5        0.0000 
     23 CA         -2.6200  -13.4980   -9.5860 C.3       6 GLP5        0.0000 
     24 CA          1.4435  -14.8520   -9.8590 C.3       3 GLC5        0.0000 
     25 CA          1.6450  -15.6320  -11.4720 C.3       6 GLP5        0.0000 
     26 CA          1.0785  -15.6265   -7.2890 C.3       3 GLC5        0.0000 
     27 CA          0.9150  -17.1810   -6.3320 C.3       6 GLP5        0.0000 
     28 CA          4.8890   -9.4685   -7.0915 C.3       3 GLC5        0.0000 
     29 CA          3.2680  -10.6130   -6.0170 C.3       9 GLL5        0.0000 
     30 CA          6.4400   -8.2920   -7.4760 C.3       6 GLP5        0.0000 
     31 CA          4.2860  -12.4608   -7.3465 C.3       3 GLC5        0.0000 
     32 CA          3.4080  -10.6770   -7.3970 C.3       9 GLL5        0.0000 
     33 CA          5.4620  -13.7360   -6.9090 C.3       6 GLP5        0.0000 
     34 CA          5.6572  -10.4525   -9.7547 C.3       3 GLC5        0.0000 
     35 CA          4.4130  -11.8280  -10.0450 C.3       9 GLL5        0.0000 
     36 CA          6.7050   -9.0060   -8.8060 C.3       6 GLP5        0.0000 
     37 CA          4.6000  -12.7713   -8.3783 C.3       3 GLC5        0.0000 
     38 CA          2.3845  -13.8762  -11.8197 C.3       3 GLC5        0.0000 
     39 CA          3.8080  -12.1310  -12.3770 C.3       9 GLL5        0.0000 
     40 CA          2.1063  -13.7525  -10.8042 C.3       3 GLC5        0.0000 
     41 CA          2.0720  -11.9610  -10.6230 C.3       9 GLL5        0.0000 
     42 CA          3.6322  -14.1100  -13.6090 C.3       3 GLC5        0.0000 
     43 CA          4.1060  -12.3390  -13.8290 C.3       9 GLL5        0.0000 
     44 CA          3.6800  -15.7890  -12.9360 C.3       6 GLP5        0.0000 
     45 CA          4.4785  -10.7027  -14.0674 C.3       3 GLC5        0.0000 
     46 CA          5.0090   -8.9550  -13.7330 C.3       6 GLP5        0.0000 
     47 CA          4.1913  -10.5176  -12.8234 C.3       3 GLC5        0.0000 
     48 CA          4.8060  -11.9700  -11.3620 C.3       9 GLL5        0.0000 
     49 CA          3.5560  -13.5628   -7.3850 C.3       3 GLC5        0.0000 
     50 CA         -0.0730  -13.7181   -6.8865 C.3       3 GLC5        0.0000 
     51 CA          2.0580  -12.7070   -7.4760 C.3       9 GLL5        0.0000 
     52 CA         -1.9420  -14.4240   -6.8010 C.3       6 GLP5        0.0000 
     53 CA          3.9417  -12.8018   -6.3944 C.3       3 GLC5        0.0000 
     54 CA          1.9420  -12.6350   -6.0830 C.3       9 GLL5        0.0000 
@<TRIPOS>BOND
@<TRIPOS>SUBSTRUCTURE
     1 ALC1       18 GROUP        1 X    ALC  0     ROOT ALC X 1
     2 SEC2       13 GROUP        1 X    SEC  0     **** SEC X 2
     3 GLC5        1 GROUP        1 X    GLC  0     **** GLC X 6
     4 ALP1       20 GROUP        1 Y    ALP  0     ROOT ALP Y 8
     5 SEP2       15 GROUP        1 Y    SEP  0     **** SEP Y 9
     6 GLP5        3 GROUP        1 Y    GLP  0     **** GLP Y 13
     7 ALL1       19 GROUP        1 Z    ALL  0     ROOT ALL Z 15
     8 SEL2       14 GROUP        1 Z    SEL  0     **** SEL Z 16
     9 GLL5        2 GROUP        1 Z    GLL  0     **** GLL Z 20
@<TRIPOS>SET

