#    Name: 4j3l_AJ5_1_ligand
#    Modification time : Tue Mar 25 05:20:25 2014

@<TRIPOS>MOLECULE
4j3l_AJ5_1_ligand
   45    47     1     0     0
SMALL
NO_CHARGES


@<TRIPOS>ATOM
      1 C4          2.5620  -10.4020   -1.6490 C.3       1 AJ51204     0.0000 
      2 C6          2.4150  -11.5620   -3.8310 C.2       1 AJ51204     0.0000 
      3 C8          2.5340  -11.5870   -5.3360 C.ar      1 AJ51204     0.0000 
      4 C10         3.4080  -10.6770   -7.3970 C.ar      1 AJ51204     0.0000 
      5 C13         4.4130  -11.8280  -10.0450 C.ar      1 AJ51204     0.0000 
      6 C15         3.8080  -12.1310  -12.3770 C.ar      1 AJ51204     0.0000 
      7 C17         5.5600  -12.4170  -14.3080 C.3       1 AJ51204     0.0000 
      8 C24         2.0720  -11.9610  -10.6230 C.ar      1 AJ51204     0.0000 
      9 C1          6.3600  -10.3350   -1.0990 C.3       1 AJ51204     0.0000 
     10 O2          5.0130  -10.7520   -1.4070 O.3       1 AJ51204     0.0000 
     11 C3          3.9170   -9.8240   -1.1740 C.3       1 AJ51204     0.0000 
     12 N5          2.6080  -10.4470   -3.1130 N.am      1 AJ51204     0.0000 
     13 O7          2.2230  -12.6190   -3.2440 O.2       1 AJ51204     0.0000 
     14 C9          3.2680  -10.6130   -6.0170 C.ar      1 AJ51204     0.0000 
     15 C11         2.8120  -11.6940   -8.1710 C.ar      1 AJ51204     0.0000 
     16 C12         3.0630  -11.7850   -9.6500 C.ar      1 AJ51204     0.0000 
     17 C14         4.8060  -11.9700  -11.3620 C.ar      1 AJ51204     0.0000 
     18 C16         4.1060  -12.3390  -13.8290 C.2       1 AJ51204     0.0000 
     19 C18         3.0630  -12.5230  -14.7350 C.2       1 AJ51204     0.0000 
     20 C19         1.7260  -12.4890  -14.2360 C.2       1 AJ51204     0.0000 
     21 O20         0.7460  -12.6620  -14.9810 O.2       1 AJ51204     0.0000 
     22 N21         1.4790  -12.2780  -12.9110 N.am      1 AJ51204     0.0000 
     23 C23         2.4400  -12.1100  -11.9580 C.ar      1 AJ51204     0.0000 
     24 C25         2.0580  -12.7070   -7.4760 C.ar      1 AJ51204     0.0000 
     25 CL          1.2420  -14.0720   -8.2460 Cl        1 AJ51204     0.0000 
     26 C27         1.9420  -12.6350   -6.0830 C.ar      1 AJ51204     0.0000 
     27 H           1.7783   -9.7503   -1.2988 H         1 AJ51204     0.0000 
     28 H           2.4517  -11.3877   -1.2273 H         1 AJ51204     0.0000 
     29 H           3.9727   -9.9507   -7.8874 H         1 AJ51204     0.0000 
     30 H           5.1446  -11.7479   -9.2993 H         1 AJ51204     0.0000 
     31 H           1.0857  -11.9796  -10.3522 H         1 AJ51204     0.0000 
     32 H           3.8183   -9.5854   -0.1051 H         1 AJ51204     0.0000 
     33 H           4.0778   -8.8764   -1.7082 H         1 AJ51204     0.0000 
     34 H           2.8074   -9.5248   -3.5800 H         1 AJ51204     0.0000 
     35 H           3.7064   -9.8446   -5.4893 H         1 AJ51204     0.0000 
     36 H           5.7874  -11.9633  -11.6314 H         1 AJ51204     0.0000 
     37 H           3.2315  -12.6767  -15.7169 H         1 AJ51204     0.0000 
     38 H           0.4566  -12.2417  -12.5967 H         1 AJ51204     0.0000 
     39 H           1.4095  -13.3655   -5.5772 H         1 AJ51204     0.0000 
     40 H           6.0659  -11.5807  -14.0969 H         1 AJ51204     0.0000 
     41 H           6.0525  -13.1738  -13.8783 H         1 AJ51204     0.0000 
     42 H           5.6184  -12.5532  -15.2970 H         1 AJ51204     0.0000 
     43 H           7.0261  -11.0536   -1.2988 H         1 AJ51204     0.0000 
     44 H           6.6297   -9.5302   -1.6277 H         1 AJ51204     0.0000 
     45 H           6.4641  -10.0993   -0.1327 H         1 AJ51204     0.0000 
@<TRIPOS>BOND
     1   11    1 1    
     2   12    1 1    
     3   27    1 1    
     4   28    1 1    
     5    3    2 1    
     6   12    2 am   
     7   13    2 2    
     8   14    3 ar   
     9   26    3 ar   
    10   14    4 ar   
    11   15    4 ar   
    12   29    4 1    
    13   16    5 ar   
    14   17    5 ar   
    15   30    5 1    
    16   17    6 ar   
    17   18    6 1    
    18   23    6 ar   
    19   18    7 1    
    20   40    7 1    
    21   41    7 1    
    22   42    7 1    
    23   16    8 ar   
    24   23    8 ar   
    25   31    8 1    
    26   10    9 1    
    27   43    9 1    
    28   44    9 1    
    29   45    9 1    
    30   11   10 1    
    31   32   11 1    
    32   33   11 1    
    33   34   12 1    
    34   35   14 1    
    35   16   15 1    
    36   24   15 ar   
    37   36   17 1    
    38   19   18 2    
    39   20   19 1    
    40   37   19 1    
    41   21   20 2    
    42   22   20 am   
    43   23   22 1    
    44   38   22 1    
    45   25   24 1    
    46   26   24 ar   
    47   39   26 1    
@<TRIPOS>SUBSTRUCTURE
     1 AJ51204     1 GROUP   
@<TRIPOS>SET

