#    Name: 3m6p_BB2_2_INTS_M
#    Modification time : Mon Mar 24 22:47:46 2014

@<TRIPOS>MOLECULE
3m6p_BB2_2_INTS_M
   78     0    12     0     0
SMALL
NO_CHARGES


@<TRIPOS>ATOM
      1 CA         30.4600   23.8640    9.9430 C.3       4 GLC5        0.0000 
      2 CA         30.9610   25.7150   10.0480 C.3      12 GLL5        0.0000 
      3 CA         29.9590   22.0130    9.8380 C.3       8 GLP5        0.0000 
      4 Zn         31.7625   26.0845    6.9045 Zn        3 ZIC7        0.0000 
      5 Zn         31.5070   25.6450    7.7890 Zn       11 ZIL7        0.0000 
      6 Zn         32.0180   26.5240    6.0200 Zn        7 ZIP7        0.0000 
      7 N          30.5795   25.2595    6.6245 N.am      2 SEC2        0.0000 
      8 N          31.5070   25.6450    7.7890 N.am     10 SEL2        0.0000 
      9 N          29.6520   24.8740    5.4600 N.am      6 SEP2        0.0000 
     10 N          31.9040   24.1465    7.7470 N.am      2 SEC2        0.0000 
     11 N          32.3010   22.6480    7.7050 N.am      6 SEP2        0.0000 
     12 O          29.1085   27.0220    9.6565 O.2       1 ALC1        0.0000 
     13 O          30.1790   27.3560    8.4070 O.2       9 ALL1        0.0000 
     14 O          28.0380   26.6880   10.9060 O.2       5 ALP1        0.0000 
     15 O          30.0395   28.4730    8.8490 O.2       1 ALC1        0.0000 
     16 O          29.9000   29.5900    9.2910 O.2       5 ALP1        0.0000 
     17 Zn         31.1095   27.1300    6.5470 Zn        3 ZIC7        0.0000 
     18 Zn         30.2010   27.7360    7.0740 Zn       11 ZIL7        0.0000 
     19 O          29.3535   28.7030    7.2860 O.2       1 ALC1        0.0000 
     20 O          30.2010   27.7360    7.0740 O.2       9 ALL1        0.0000 
     21 O          28.5060   29.6700    7.4980 O.2       5 ALP1        0.0000 
     22 CA         33.3510   24.9335    8.9345 C.3       4 GLC5        0.0000 
     23 CA         32.3370   26.0940   10.5050 C.3      12 GLL5        0.0000 
     24 CA         34.3650   23.7730    7.3640 C.3       8 GLP5        0.0000 
     25 N          30.9700   25.7670   13.7370 N.am      2 SEC2        0.0000 
     26 N          31.8680   25.3400   12.7300 N.am     10 SEL2        0.0000 
     27 N          30.0720   26.1940   14.7440 N.am      6 SEP2        0.0000 
     28 CA         32.6465   28.4425    8.9080 C.3       4 GLC5        0.0000 
     29 CA         32.4180   27.6310   10.7320 C.3      12 GLL5        0.0000 
     30 CA         32.8750   29.2540    7.0840 C.3       8 GLP5        0.0000 
     31 CA         33.8950   29.0805    9.1925 C.3       4 GLC5        0.0000 
     32 CA         33.8600   28.1410   10.9320 C.3      12 GLL5        0.0000 
     33 CA         33.9300   30.0200    7.4530 C.3       8 GLP5        0.0000 
     34 CA         33.7300   29.1675   13.0620 C.3       4 GLC5        0.0000 
     35 CA         33.8960   29.6410   11.0310 C.3      12 GLL5        0.0000 
     36 CA         33.5640   28.6940   15.0930 C.3       8 GLP5        0.0000 
     37 CA         34.9105   29.2525   13.6035 C.3       4 GLC5        0.0000 
     38 CA         36.2570   29.8110   12.1140 C.3      12 GLL5        0.0000 
     39 CA         37.6840   29.8945   13.4395 C.3       4 GLC5        0.0000 
     40 CA         39.1110   29.9780   14.7650 C.3       8 GLP5        0.0000 
     41 O          34.7035   25.1310   10.5850 O.2       1 ALC1        0.0000 
     42 O          33.9450   25.0000   11.8660 O.2       9 ALL1        0.0000 
     43 O          35.4620   25.2620    9.3040 O.2       5 ALP1        0.0000 
     44 CA         31.6080   23.0050   13.6995 C.3       4 GLC5        0.0000 
     45 CA         33.4420   22.2080   12.9790 C.3      12 GLL5        0.0000 
     46 CA         29.7740   23.8020   14.4200 C.3       8 GLP5        0.0000 
     47 CA         31.7690   21.4165   11.7045 C.3       4 GLC5        0.0000 
     48 CA         30.0960   20.6250   10.4300 C.3       8 GLP5        0.0000 
     49 CA         36.5015   23.2720   10.6245 C.3       4 GLC5        0.0000 
     50 CA         35.5570   22.6140   11.7810 C.3      12 GLL5        0.0000 
     51 CA         37.4460   23.9300    9.4680 C.3       8 GLP5        0.0000 
     52 N          37.2495   25.4015   11.2600 N.am      2 SEC2        0.0000 
     53 N          36.4850   25.7120   12.4320 N.am     10 SEL2        0.0000 
     54 N          38.0140   25.0910   10.0880 N.am      6 SEP2        0.0000 
     55 CA         38.2210   28.1240   14.8945 C.3       4 GLC5        0.0000 
     56 CA         37.3310   26.2700   15.0240 C.3      12 GLL5        0.0000 
     57 CA         38.3075   28.3880   16.3040 C.3       4 GLC5        0.0000 
     58 CA         37.1590   26.6170   16.5110 C.3      12 GLL5        0.0000 
     59 CA         39.4560   30.1590   16.0970 C.3       8 GLP5        0.0000 
     60 O          40.2130   26.7665   13.9335 O.2       1 ALC1        0.0000 
     61 O          39.7690   26.2110   15.0340 O.2       9 ALL1        0.0000 
     62 O          40.6570   27.3220   12.8330 O.2       5 ALP1        0.0000 
     63 CA         32.6455   28.1300   12.7735 C.3       4 GLC5        0.0000 
     64 CA         32.1520   28.3740   14.7150 C.3       8 GLP5        0.0000 
     65 CA         33.7793   31.5862   11.3860 C.3       4 GLC5        0.0000 
     66 CA         32.9150   33.2830   11.8190 C.3       8 GLP5        0.0000 
     67 CA         34.3173   30.6648    9.4370 C.3       4 GLC5        0.0000 
     68 CA         33.9910   31.4400    7.9210 C.3       8 GLP5        0.0000 
     69 CA         37.6420   29.6758   10.3972 C.3       4 GLC5        0.0000 
     70 CA         35.3910   30.1380   10.8750 C.3      12 GLL5        0.0000 
     71 CA         39.4600   29.3770    9.3000 C.3       8 GLP5        0.0000 
     72 CA         36.7970   31.7138   11.8727 C.3       4 GLC5        0.0000 
     73 CA         37.7700   33.4530   12.2510 C.3       8 GLP5        0.0000 
     74 CA         36.7565   21.9853   12.4127 C.3       4 GLC5        0.0000 
     75 CA         34.7710   22.9590   13.0100 C.3      12 GLL5        0.0000 
     76 CA         38.3490   21.1840   12.4300 C.3       8 GLP5        0.0000 
     77 CA         34.9890   27.3496   15.5886 C.3       4 GLC5        0.0000 
     78 CA         35.7970   26.0690   16.9410 C.3      12 GLL5        0.0000 
@<TRIPOS>BOND
@<TRIPOS>SUBSTRUCTURE
     1 ALC1       12 GROUP        1 X    ALC  0     ROOT ALC X 1
     2 SEC2        7 GROUP        1 X    SEC  0     **** SEC X 2
     3 ZIC7        4 GROUP        1 X    ZIC  0     **** ZIC X 5
     4 GLC5        1 GROUP        1 X    GLC  0     **** GLC X 6
     5 ALP1       14 GROUP        1 Y    ALP  0     ROOT ALP Y 8
     6 SEP2        9 GROUP        1 Y    SEP  0     **** SEP Y 9
     7 ZIP7        6 GROUP        1 Y    ZIP  0     **** ZIP Y 12
     8 GLP5        3 GROUP        1 Y    GLP  0     **** GLP Y 13
     9 ALL1       13 GROUP        1 Z    ALL  0     ROOT ALL Z 15
    10 SEL2        8 GROUP        1 Z    SEL  0     **** SEL Z 16
    11 ZIL7        5 GROUP        1 Z    ZIL  0     **** ZIL Z 19
    12 GLL5        2 GROUP        1 Z    GLL  0     **** GLL Z 20
@<TRIPOS>SET

