#    Name: 3m6p_BB2_2_ligand
#    Modification time : Mon Mar 24 22:47:46 2014

@<TRIPOS>MOLECULE
3m6p_BB2_2_ligand
   62    62     1     0     0
SMALL
NO_CHARGES


@<TRIPOS>ATOM
      1 C5         30.9610   25.7150   10.0480 C.3       1 BB2194      0.0000 
      2 C3         30.8920   26.2390    8.6520 C.2       1 BB2194      0.0000 
      3 O4         31.5070   25.6450    7.7890 O.2       1 BB2194      0.0000 
      4 N1         30.1790   27.3560    8.4070 N.am      1 BB2194      0.0000 
      5 O2         30.2010   27.7360    7.0740 O.3       1 BB2194      0.0000 
      6 C6         32.3370   26.0940   10.5050 C.3       1 BB2194      0.0000 
      7 C12        32.6820   25.4240   11.8150 C.2       1 BB2194      0.0000 
      8 O13        31.8680   25.3400   12.7300 O.2       1 BB2194      0.0000 
      9 C7         32.4180   27.6310   10.7320 C.3       1 BB2194      0.0000 
     10 C8         33.8600   28.1410   10.9320 C.3       1 BB2194      0.0000 
     11 C9         33.8960   29.6410   11.0310 C.3       1 BB2194      0.0000 
     12 C10        35.3910   30.1380   10.8750 C.3       1 BB2194      0.0000 
     13 C11        36.2570   29.8110   12.1140 C.3       1 BB2194      0.0000 
     14 N14        33.9450   25.0000   11.8660 N.am      1 BB2194      0.0000 
     15 C15        34.5000   24.4440   13.0850 C.3       1 BB2194      0.0000 
     16 C16        34.7710   22.9590   13.0100 C.3       1 BB2194      0.0000 
     17 C18        33.4420   22.2080   12.9790 C.3       1 BB2194      0.0000 
     18 C17        35.5570   22.6140   11.7810 C.3       1 BB2194      0.0000 
     19 C19        35.7770   25.2640   13.3710 C.2       1 BB2194      0.0000 
     20 O20        36.4850   25.7120   12.4320 O.2       1 BB2194      0.0000 
     21 N21        36.1130   25.5160   14.6610 N.am      1 BB2194      0.0000 
     22 C22        37.3310   26.2700   15.0240 C.3       1 BB2194      0.0000 
     23 C23        35.3690   25.0650   15.8610 C.3       1 BB2194      0.0000 
     24 C24        35.7970   26.0690   16.9410 C.3       1 BB2194      0.0000 
     25 C25        37.1590   26.6170   16.5110 C.3       1 BB2194      0.0000 
     26 C26        38.6030   25.3790   14.8100 C.3       1 BB2194      0.0000 
     27 O27        39.7690   26.2110   15.0340 O.3       1 BB2194      0.0000 
     28 H          30.8551   24.6526   10.0497 H         1 BB2194      0.0000 
     29 H          30.2281   26.1938   10.6592 H         1 BB2194      0.0000 
     30 H          29.6831   27.8676    9.0946 H         1 BB2194      0.0000 
     31 H          33.0649   25.8338    9.7681 H         1 BB2194      0.0000 
     32 H          31.8224   27.8852   11.6143 H         1 BB2194      0.0000 
     33 H          31.9764   28.1352    9.8668 H         1 BB2194      0.0000 
     34 H          34.4654   27.8073   10.0876 H         1 BB2194      0.0000 
     35 H          34.2610   27.6963   11.8443 H         1 BB2194      0.0000 
     36 H          33.5396   29.9714   11.9944 H         1 BB2194      0.0000 
     37 H          33.3163   30.0925   10.2407 H         1 BB2194      0.0000 
     38 H          35.3743   31.2145   10.7168 H         1 BB2194      0.0000 
     39 H          35.8168   29.6572    9.9965 H         1 BB2194      0.0000 
     40 H          34.5816   25.0467   11.0488 H         1 BB2194      0.0000 
     41 H          33.8176   24.6450   13.9164 H         1 BB2194      0.0000 
     42 H          35.3124   22.6509   13.8854 H         1 BB2194      0.0000 
     43 H          37.4146   27.1539   14.4647 H         1 BB2194      0.0000 
     44 H          35.6730   24.0901   16.1563 H         1 BB2194      0.0000 
     45 H          34.3192   25.1440   15.7131 H         1 BB2194      0.0000 
     46 H          35.8912   25.5645   17.8799 H         1 BB2194      0.0000 
     47 H          35.0857   26.8669   16.9883 H         1 BB2194      0.0000 
     48 H          37.1747   27.6813   16.6326 H         1 BB2194      0.0000 
     49 H          37.9343   26.1439   17.0792 H         1 BB2194      0.0000 
     50 H          38.5631   24.9988   13.7983 H         1 BB2194      0.0000 
     51 H          38.5455   24.5612   15.5154 H         1 BB2194      0.0000 
     52 H          37.1977   30.1320   12.0048 H         1 BB2194      0.0000 
     53 H          35.8958   30.2383   12.9428 H         1 BB2194      0.0000 
     54 H          36.3013   28.8271   12.2870 H         1 BB2194      0.0000 
     55 H          33.5758   21.2183   12.9281 H         1 BB2194      0.0000 
     56 H          32.8945   22.3881   13.7962 H         1 BB2194      0.0000 
     57 H          32.8859   22.4695   12.1901 H         1 BB2194      0.0000 
     58 H          36.4414   23.0803   11.7627 H         1 BB2194      0.0000 
     59 H          35.7416   21.6330   11.7214 H         1 BB2194      0.0000 
     60 H          35.0721   22.8723   10.9454 H         1 BB2194      0.0000 
     61 H          29.5954   28.5300    7.0213 H         1 BB2194      0.0000 
     62 H          39.7109   26.9297   14.3411 H         1 BB2194      0.0000 
@<TRIPOS>BOND
     1    2    1 1    
     2    6    1 1    
     3   28    1 1    
     4   29    1 1    
     5    3    2 2    
     6    4    2 am   
     7    5    4 1    
     8   30    4 1    
     9   61    5 1    
    10    7    6 1    
    11    9    6 1    
    12   31    6 1    
    13    8    7 2    
    14   14    7 am   
    15   10    9 1    
    16   32    9 1    
    17   33    9 1    
    18   11   10 1    
    19   34   10 1    
    20   35   10 1    
    21   12   11 1    
    22   36   11 1    
    23   37   11 1    
    24   13   12 1    
    25   38   12 1    
    26   39   12 1    
    27   52   13 1    
    28   53   13 1    
    29   54   13 1    
    30   15   14 1    
    31   40   14 1    
    32   16   15 1    
    33   19   15 1    
    34   41   15 1    
    35   17   16 1    
    36   18   16 1    
    37   42   16 1    
    38   55   17 1    
    39   56   17 1    
    40   57   17 1    
    41   58   18 1    
    42   59   18 1    
    43   60   18 1    
    44   20   19 2    
    45   21   19 am   
    46   22   21 1    
    47   23   21 1    
    48   25   22 1    
    49   26   22 1    
    50   43   22 1    
    51   24   23 1    
    52   44   23 1    
    53   45   23 1    
    54   25   24 1    
    55   46   24 1    
    56   47   24 1    
    57   48   25 1    
    58   49   25 1    
    59   27   26 1    
    60   50   26 1    
    61   51   26 1    
    62   62   27 1    
@<TRIPOS>SUBSTRUCTURE
     1 BB2194      1 GROUP   
@<TRIPOS>SET

