#    Name: 4bzn_UGX_1_INTS_M
#    Modification time : Tue Mar 25 08:35:25 2014

@<TRIPOS>MOLECULE
4bzn_UGX_1_INTS_M
   73     0     9     0     0
SMALL
NO_CHARGES


@<TRIPOS>ATOM
      1 O          23.6575  -33.4375    5.5295 O.2       1 ALC1        0.0000 
      2 O          22.4980  -34.3270    5.2830 O.2       7 ALL1        0.0000 
      3 O          24.8170  -32.5480    5.7760 O.2       4 ALP1        0.0000 
      4 CA         20.6960  -36.9075    5.1405 C.3       3 GLC5        0.0000 
      5 CA         22.2780  -35.6190    5.9390 C.3       9 GLL5        0.0000 
      6 CA         19.1140  -38.1960    4.3420 C.3       6 GLP5        0.0000 
      7 CA         26.2260  -35.4430    5.9915 C.3       3 GLC5        0.0000 
      8 CA         24.6570  -36.2850    5.7730 C.3       9 GLL5        0.0000 
      9 CA         27.7950  -34.6010    6.2100 C.3       6 GLP5        0.0000 
     10 CA         25.8075  -35.9510    4.2270 C.3       3 GLC5        0.0000 
     11 CA         26.9580  -35.6170    2.6810 C.3       6 GLP5        0.0000 
     12 CA         21.1030  -37.6150    4.1815 C.3       3 GLC5        0.0000 
     13 CA         23.0920  -37.0340    4.0210 C.3       9 GLL5        0.0000 
     14 CA         25.0250  -36.3255    3.3510 C.3       3 GLC5        0.0000 
     15 CA         21.0140  -38.0935    5.3355 C.3       3 GLC5        0.0000 
     16 CA         22.9140  -37.9910    6.3290 C.3       9 GLL5        0.0000 
     17 CA         20.4530  -31.3775    4.5045 C.3       3 GLC5        0.0000 
     18 CA         22.0650  -32.3230    3.9980 C.3       9 GLL5        0.0000 
     19 CA         18.8410  -30.4320    5.0110 C.3       6 GLP5        0.0000 
     20 CA         19.7680  -31.2845    3.2525 C.3       3 GLC5        0.0000 
     21 CA         21.3270  -31.9170    2.7130 C.3       9 GLL5        0.0000 
     22 CA         18.2090  -30.6520    3.7920 C.3       6 GLP5        0.0000 
     23 CA         19.6975  -32.5695    1.7870 C.3       3 GLC5        0.0000 
     24 CA         18.0680  -33.2220    0.8610 C.3       6 GLP5        0.0000 
     25 CA         20.2260  -29.4195    2.7565 C.3       3 GLC5        0.0000 
     26 CA         21.6450  -30.4280    2.4400 C.3       9 GLL5        0.0000 
     27 CA         18.8070  -28.4110    3.0730 C.3       6 GLP5        0.0000 
     28 CA         22.5550  -29.2380    0.9290 C.3       3 GLC5        0.0000 
     29 CA         23.4650  -28.0480   -0.5820 C.3       6 GLP5        0.0000 
     30 O          21.4405  -28.6895    0.9160 O.2       1 ALC1        0.0000 
     31 O          21.2300  -30.0700    1.0810 O.2       7 ALL1        0.0000 
     32 O          21.6510  -27.3090    0.7510 O.2       4 ALP1        0.0000 
     33 N          20.3225  -29.5040   -1.6545 N.am      2 SEC2        0.0000 
     34 N          21.2010  -30.4250   -1.1430 N.am      8 SEL2        0.0000 
     35 N          19.4440  -28.5830   -2.1660 N.am      5 SEP2        0.0000 
     36 CA         21.3305  -38.1225    1.4150 C.3       3 GLC5        0.0000 
     37 CA         22.6970  -36.7910    0.4810 C.3       9 GLL5        0.0000 
     38 CA         19.9640  -39.4540    2.3490 C.3       6 GLP5        0.0000 
     39 CA         23.1585  -39.7165   -1.4240 C.3       3 GLC5        0.0000 
     40 CA         23.3480  -38.1110   -0.4470 C.3       9 GLL5        0.0000 
     41 CA         22.9690  -41.3220   -2.4010 C.3       6 GLP5        0.0000 
     42 CA         25.1065  -39.1580   -1.3565 C.3       3 GLC5        0.0000 
     43 CA         26.8650  -40.2050   -2.2660 C.3       6 GLP5        0.0000 
     44 CA         25.0750  -36.7410   -2.9290 C.3       3 GLC5        0.0000 
     45 CA         23.5760  -37.1440   -1.8740 C.3       9 GLL5        0.0000 
     46 CA         26.5740  -36.3380   -3.9840 C.3       6 GLP5        0.0000 
     47 CA         22.5405  -36.5760   -3.6540 C.3       3 GLC5        0.0000 
     48 CA         21.5050  -36.0080   -5.4340 C.3       6 GLP5        0.0000 
     49 CA         23.9095  -39.0770   -2.5400 C.3       3 GLC5        0.0000 
     50 CA         24.2430  -41.0100   -3.2060 C.3       6 GLP5        0.0000 
     51 CA         24.4270  -35.5880   -3.1740 C.3       3 GLC5        0.0000 
     52 CA         23.1740  -35.8380   -1.6500 C.3       9 GLL5        0.0000 
     53 CA         25.6800  -35.3380   -4.6980 C.3       6 GLP5        0.0000 
     54 CA         20.3767  -34.9292    0.7930 C.3       3 GLC5        0.0000 
     55 CA         22.0320  -34.0510    1.4890 C.3       9 GLL5        0.0000 
     56 CA         18.6160  -35.6630    0.7650 C.3       6 GLP5        0.0000 
     57 CA         23.4118  -31.7645    2.0899 C.3       3 GLC5        0.0000 
     58 CA         25.1530  -32.2550    1.2820 C.3       6 GLP5        0.0000 
     59 CA         19.9710  -32.9887    0.3317 C.3       3 GLC5        0.0000 
     60 CA         21.6940  -32.2660    0.2640 C.3       9 GLL5        0.0000 
     61 CA         21.5478  -33.8813   -2.1430 C.3       3 GLC5        0.0000 
     62 CA         22.0540  -33.2450   -0.6590 C.3       9 GLL5        0.0000 
     63 CA         20.9470  -33.9700   -4.0330 C.3       6 GLP5        0.0000 
     64 CA         20.6553  -35.9500    0.4150 C.3       3 GLC5        0.0000 
     65 CA         22.6920  -35.6830   -0.3510 C.3       9 GLL5        0.0000 
     66 CA         21.9400  -34.8652   -2.5168 C.3       3 GLC5        0.0000 
     67 CA         24.6180  -34.5328   -1.2617 C.3       3 GLC5        0.0000 
     68 CA         26.3030  -33.3050   -1.5230 C.3       6 GLP5        0.0000 
     69 CA         23.5794  -32.8653    0.7969 C.3       3 GLC5        0.0000 
     70 CA         21.6386  -37.4097   -1.4868 C.3       3 GLC5        0.0000 
     71 CA         20.0790  -37.9870   -1.9970 C.3       6 GLP5        0.0000 
     72 CA         24.8286  -36.6103   -0.3242 C.3       3 GLC5        0.0000 
     73 CA         26.4590  -36.3880    0.3280 C.3       6 GLP5        0.0000 
@<TRIPOS>BOND
@<TRIPOS>SUBSTRUCTURE
     1 ALC1        1 GROUP        1 X    ALC  0     ROOT ALC X 1
     2 SEC2       33 GROUP        1 X    SEC  0     **** SEC X 2
     3 GLC5        4 GROUP        1 X    GLC  0     **** GLC X 6
     4 ALP1        3 GROUP        1 Y    ALP  0     ROOT ALP Y 8
     5 SEP2       35 GROUP        1 Y    SEP  0     **** SEP Y 9
     6 GLP5        6 GROUP        1 Y    GLP  0     **** GLP Y 13
     7 ALL1        2 GROUP        1 Z    ALL  0     ROOT ALL Z 15
     8 SEL2       34 GROUP        1 Z    SEL  0     **** SEL Z 16
     9 GLL5        5 GROUP        1 Z    GLL  0     **** GLL Z 20
@<TRIPOS>SET

