#    Name: 4bzn_UGX_1_ligand
#    Modification time : Tue Mar 25 08:35:25 2014

@<TRIPOS>MOLECULE
4bzn_UGX_1_ligand
   47    49     1     0     0
SMALL
NO_CHARGES


@<TRIPOS>ATOM
      1 O13        20.4840  -34.0910    4.3330 O.2       1 UGX1306     0.0000 
      2 C12        21.6070  -33.6510    4.5630 C.2       1 UGX1306     0.0000 
      3 N14        22.4980  -34.3270    5.2830 N.am      1 UGX1306     0.0000 
      4 C21        22.2780  -35.6190    5.9390 C.3       1 UGX1306     0.0000 
      5 C15        23.2200  -36.7280    5.5050 C.3       1 UGX1306     0.0000 
      6 C24        24.6570  -36.2850    5.7730 C.3       1 UGX1306     0.0000 
      7 C23        23.0920  -37.0340    4.0210 C.3       1 UGX1306     0.0000 
      8 C22        22.9140  -37.9910    6.3290 C.3       1 UGX1306     0.0000 
      9 C11        22.0650  -32.3230    3.9980 C.3       1 UGX1306     0.0000 
     10 C6         21.3270  -31.9170    2.7130 C.3       1 UGX1306     0.0000 
     11 N5         21.6940  -32.7610    1.5210 N.pl3     1 UGX1306     0.0000 
     12 C1         22.0320  -34.0510    1.4890 C.2       1 UGX1306     0.0000 
     13 C7         21.6450  -30.4280    2.4400 C.3       1 UGX1306     0.0000 
     14 N8         21.2300  -30.0700    1.0810 N.am      1 UGX1306     0.0000 
     15 C9         21.3560  -30.8410   -0.0010 C.2       1 UGX1306     0.0000 
     16 O10        21.2010  -30.4250   -1.1430 O.2       1 UGX1306     0.0000 
     17 C4         21.6940  -32.2660    0.2640 C.2       1 UGX1306     0.0000 
     18 C2         22.0540  -33.2450   -0.6590 C.2       1 UGX1306     0.0000 
     19 C3         22.2430  -34.3400    0.1530 C.2       1 UGX1306     0.0000 
     20 C16        22.6920  -35.6830   -0.3510 C.2       1 UGX1306     0.0000 
     21 C18        22.6970  -36.7910    0.4810 C.2       1 UGX1306     0.0000 
     22 S20        23.3480  -38.1110   -0.4470 S.3       1 UGX1306     0.0000 
     23 C19        23.5760  -37.1440   -1.8740 C.2       1 UGX1306     0.0000 
     24 C17        23.1740  -35.8380   -1.6500 C.2       1 UGX1306     0.0000 
     25 H          23.4840  -33.9338    5.4275 H         1 UGX1306     0.0000 
     26 H          21.2332  -35.9654    5.7611 H         1 UGX1306     0.0000 
     27 H          22.3651  -35.5063    7.0449 H         1 UGX1306     0.0000 
     28 H          23.1436  -32.3690    3.7828 H         1 UGX1306     0.0000 
     29 H          21.9169  -31.5339    4.7511 H         1 UGX1306     0.0000 
     30 H          20.2608  -31.9854    2.8999 H         1 UGX1306     0.0000 
     31 H          22.1171  -34.6593    2.2041 H         1 UGX1306     0.0000 
     32 H          22.7173  -30.2844    2.5747 H         1 UGX1306     0.0000 
     33 H          21.1161  -29.8309    3.1832 H         1 UGX1306     0.0000 
     34 H          20.7949  -29.0982    1.0023 H         1 UGX1306     0.0000 
     35 H          22.1390  -33.1694   -1.5613 H         1 UGX1306     0.0000 
     36 H          22.4691  -36.9919    1.3128 H         1 UGX1306     0.0000 
     37 H          23.9255  -37.6059   -2.5814 H         1 UGX1306     0.0000 
     38 H          23.2193  -35.1267   -2.3023 H         1 UGX1306     0.0000 
     39 H          25.3180  -36.9847    5.5020 H         1 UGX1306     0.0000 
     40 H          24.8888  -35.4523    5.2701 H         1 UGX1306     0.0000 
     41 H          24.8123  -36.0948    6.7424 H         1 UGX1306     0.0000 
     42 H          23.2986  -36.2340    3.4577 H         1 UGX1306     0.0000 
     43 H          23.7161  -37.7618    3.7367 H         1 UGX1306     0.0000 
     44 H          22.1675  -37.3304    3.7813 H         1 UGX1306     0.0000 
     45 H          23.5116  -38.7523    6.0775 H         1 UGX1306     0.0000 
     46 H          23.0362  -37.8337    7.3090 H         1 UGX1306     0.0000 
     47 H          21.9726  -38.3014    6.1971 H         1 UGX1306     0.0000 
@<TRIPOS>BOND
     1    2    1 2    
     2    3    2 am   
     3    9    2 1    
     4    4    3 1    
     5   25    3 1    
     6    5    4 1    
     7   26    4 1    
     8   27    4 1    
     9    6    5 1    
    10    7    5 1    
    11    8    5 1    
    12   39    6 1    
    13   40    6 1    
    14   41    6 1    
    15   42    7 1    
    16   43    7 1    
    17   44    7 1    
    18   45    8 1    
    19   46    8 1    
    20   47    8 1    
    21   10    9 1    
    22   28    9 1    
    23   29    9 1    
    24   11   10 1    
    25   13   10 1    
    26   30   10 1    
    27   12   11 1    
    28   17   11 1    
    29   19   12 2    
    30   31   12 1    
    31   14   13 1    
    32   32   13 1    
    33   33   13 1    
    34   15   14 am   
    35   34   14 1    
    36   16   15 2    
    37   17   15 1    
    38   18   17 2    
    39   19   18 1    
    40   35   18 1    
    41   20   19 1    
    42   21   20 2    
    43   24   20 1    
    44   22   21 1    
    45   36   21 1    
    46   23   22 1    
    47   24   23 2    
    48   37   23 1    
    49   38   24 1    
@<TRIPOS>SUBSTRUCTURE
     1 UGX1306     1 GROUP   
@<TRIPOS>SET

