#    Name: 1ia2_TQ4_2_INTS_M
#    Modification time : Tue Mar 25 06:50:01 2014

@<TRIPOS>MOLECULE
1ia2_TQ4_2_INTS_M
   55     0     9     0     0
SMALL
NO_CHARGES


@<TRIPOS>ATOM
      1 CA          7.1500   33.7355   16.7800 C.3       3 GLC5        0.0000 
      2 CA          8.5490   34.6780   18.1580 C.3       9 GLL5        0.0000 
      3 CA          5.7510   32.7930   15.4020 C.3       6 GLP5        0.0000 
      4 CA          6.0560   33.0560   19.2270 C.3       3 GLC5        0.0000 
      5 CA          6.3780   35.0430   18.7500 C.3       9 GLL5        0.0000 
      6 CA          5.7340   31.0690   19.7040 C.3       6 GLP5        0.0000 
      7 CA          6.0645   33.9180   17.0760 C.3       3 GLC5        0.0000 
      8 CA          5.2940   36.1025   17.3950 C.3       3 GLC5        0.0000 
      9 CA          4.2100   37.1620   16.0400 C.3       6 GLP5        0.0000 
     10 CA          6.8980   35.3025   20.7790 C.3       3 GLC5        0.0000 
     11 CA          7.4180   35.5620   22.8080 C.3       6 GLP5        0.0000 
     12 N           5.7805   37.2225   19.5530 N.am      2 SEC2        0.0000 
     13 N           6.7070   36.3270   19.2100 N.am      8 SEL2        0.0000 
     14 N           4.8540   38.1180   19.8960 N.am      5 SEP2        0.0000 
     15 O           8.5590   32.4925   17.0315 O.2       1 ALC1        0.0000 
     16 O           9.2710   33.7160   17.5200 O.2       7 ALL1        0.0000 
     17 O           7.8470   31.2690   16.5430 O.2       4 ALP1        0.0000 
     18 O           9.2500   33.0665   15.9110 O.2       1 ALC1        0.0000 
     19 O           9.2290   32.4170   14.3020 O.2       4 ALP1        0.0000 
     20 CA          7.9630   38.9345   17.8855 C.3       3 GLC5        0.0000 
     21 CA          8.3200   38.0620   19.8350 C.3       9 GLL5        0.0000 
     22 CA          7.6060   39.8070   15.9360 C.3       6 GLP5        0.0000 
     23 O           4.2140   35.6555   19.4140 O.2       1 ALC1        0.0000 
     24 O           5.1260   34.6790   18.8210 O.2       7 ALL1        0.0000 
     25 O           3.3020   36.6320   20.0070 O.2       4 ALP1        0.0000 
     26 CA         11.4005   34.6795   19.8565 C.3       3 GLC5        0.0000 
     27 CA         11.6360   35.4310   18.1240 C.3       9 GLL5        0.0000 
     28 CA         11.1650   33.9280   21.5890 C.3       6 GLP5        0.0000 
     29 CA         11.9760   33.3900   18.2865 C.3       3 GLC5        0.0000 
     30 CA         12.3160   31.3490   18.4490 C.3       6 GLP5        0.0000 
     31 CA         10.9770   35.4755   16.3035 C.3       3 GLC5        0.0000 
     32 CA         10.3180   35.5200   14.4830 C.3       6 GLP5        0.0000 
     33 CA         11.0625   38.6510   16.2190 C.3       3 GLC5        0.0000 
     34 CA         12.7760   37.5600   16.7960 C.3       9 GLL5        0.0000 
     35 CA          9.3490   39.7420   15.6420 C.3       6 GLP5        0.0000 
     36 CA         14.2245   34.5980   19.0320 C.3       3 GLC5        0.0000 
     37 CA         13.9980   36.6100   18.6330 C.3       9 GLL5        0.0000 
     38 CA         14.4510   32.5860   19.4310 C.3       6 GLP5        0.0000 
     39 CA         17.2420   40.0460   15.8900 C.3       3 GLC5        0.0000 
     40 CA         16.1090   39.4860   17.2580 C.3       9 GLL5        0.0000 
     41 CA         18.3750   40.6060   14.5220 C.3       6 GLP5        0.0000 
     42 CA          8.3660   39.9618   20.9622 C.3       3 GLC5        0.0000 
     43 CA          7.7440   41.6530   22.1040 C.3       6 GLP5        0.0000 
     44 CA          7.9221   36.3909   21.1088 C.3       3 GLC5        0.0000 
     45 CA          9.7553   38.9203   17.5887 C.3       3 GLC5        0.0000 
     46 CA          9.6560   38.4790   19.8060 C.3       9 GLL5        0.0000 
     47 CA         14.4283   36.1765   16.4288 C.3       3 GLC5        0.0000 
     48 CA         16.0210   35.2640   15.5470 C.3       6 GLP5        0.0000 
     49 CA         15.1983   36.8738   16.2730 C.3       3 GLC5        0.0000 
     50 CA         13.8130   38.4830   16.6030 C.3       9 GLL5        0.0000 
     51 CA         15.2703   36.1695   17.0388 C.3       3 GLC5        0.0000 
     52 CA         15.0410   37.5400   18.4280 C.3       9 GLL5        0.0000 
     53 CA         17.0896   38.4665   18.4789 C.3       3 GLC5        0.0000 
     54 CA         14.9380   38.4840   17.3950 C.3       9 GLL5        0.0000 
     55 CA         18.6300   38.1840   19.3730 C.3       6 GLP5        0.0000 
@<TRIPOS>BOND
@<TRIPOS>SUBSTRUCTURE
     1 ALC1       15 GROUP        1 X    ALC  0     ROOT ALC X 1
     2 SEC2       12 GROUP        1 X    SEC  0     **** SEC X 2
     3 GLC5        1 GROUP        1 X    GLC  0     **** GLC X 6
     4 ALP1       17 GROUP        1 Y    ALP  0     ROOT ALP Y 8
     5 SEP2       14 GROUP        1 Y    SEP  0     **** SEP Y 9
     6 GLP5        3 GROUP        1 Y    GLP  0     **** GLP Y 13
     7 ALL1       16 GROUP        1 Z    ALL  0     ROOT ALL Z 15
     8 SEL2       13 GROUP        1 Z    SEL  0     **** SEL Z 16
     9 GLL5        2 GROUP        1 Z    GLL  0     **** GLL Z 20
@<TRIPOS>SET

