#    Name: 1ia2_TQ4_2_ligand
#    Modification time : Tue Mar 25 06:50:01 2014

@<TRIPOS>MOLECULE
1ia2_TQ4_2_ligand
   33    35     1     0     0
SMALL
NO_CHARGES


@<TRIPOS>ATOM
      1 C1          8.0400   36.7860   19.2710 C.ar      1 TQ4196      0.0000 
      2 C2          9.0250   35.9690   18.6970 C.ar      1 TQ4196      0.0000 
      3 C3          8.5490   34.6780   18.1580 C.ar      1 TQ4196      0.0000 
      4 N4          7.3230   34.2940   18.1740 N.ar      1 TQ4196      0.0000 
      5 C5          6.3780   35.0430   18.7500 C.ar      1 TQ4196      0.0000 
      6 N6          6.7070   36.3270   19.2100 N.ar      1 TQ4196      0.0000 
      7 N7          9.2710   33.7160   17.5200 N.pl3     1 TQ4196      0.0000 
      8 C8          8.3200   38.0620   19.8350 C.ar      1 TQ4196      0.0000 
      9 C9          9.6560   38.4790   19.8060 C.ar      1 TQ4196      0.0000 
     10 C12        10.6670   37.7180   19.2650 C.ar      1 TQ4196      0.0000 
     11 C13        10.3300   36.4640   18.7140 C.ar      1 TQ4196      0.0000 
     12 N14         5.1260   34.6790   18.8210 N.pl3     1 TQ4196      0.0000 
     13 S20        11.6360   35.4310   18.1240 S.3       1 TQ4196      0.0000 
     14 C22        12.8950   36.6180   17.8250 C.ar      1 TQ4196      0.0000 
     15 C23        12.7760   37.5600   16.7960 C.ar      1 TQ4196      0.0000 
     16 C24        13.8130   38.4830   16.6030 C.ar      1 TQ4196      0.0000 
     17 C25        14.9380   38.4840   17.3950 C.ar      1 TQ4196      0.0000 
     18 C26        15.0410   37.5400   18.4280 C.ar      1 TQ4196      0.0000 
     19 C27        13.9980   36.6100   18.6330 C.ar      1 TQ4196      0.0000 
     20 C32        16.1090   39.4860   17.2580 C.3       1 TQ4196      0.0000 
     21 H           7.5945   38.6217   20.2278 H         1 TQ4196      0.0000 
     22 H           9.8873   39.4168   20.2183 H         1 TQ4196      0.0000 
     23 H          11.6298   38.0347   19.2550 H         1 TQ4196      0.0000 
     24 H           4.5111   35.3083   19.2963 H         1 TQ4196      0.0000 
     25 H           4.8971   33.8044   18.3936 H         1 TQ4196      0.0000 
     26 H          11.9532   37.5748   16.1997 H         1 TQ4196      0.0000 
     27 H          13.7190   39.1820   15.8370 H         1 TQ4196      0.0000 
     28 H          15.8643   37.5221   19.0308 H         1 TQ4196      0.0000 
     29 H          14.0878   35.9287   19.4023 H         1 TQ4196      0.0000 
     30 H          16.8254   39.3147   17.9343 H         1 TQ4196      0.0000 
     31 H          16.5386   39.4342   16.3565 H         1 TQ4196      0.0000 
     32 H          15.8062   40.4306   17.3846 H         1 TQ4196      0.0000 
     33 H           8.6286   33.2903   16.8827 H         1 TQ4196      0.0000 
@<TRIPOS>BOND
     1    2    1 ar   
     2    6    1 ar   
     3    8    1 ar   
     4    3    2 ar   
     5   11    2 ar   
     6    4    3 ar   
     7    7    3 1    
     8    5    4 ar   
     9    6    5 ar   
    10   12    5 1    
    11   33    7 1    
    12    9    8 ar   
    13   21    8 1    
    14   10    9 ar   
    15   22    9 1    
    16   11   10 ar   
    17   23   10 1    
    18   13   11 1    
    19   24   12 1    
    20   25   12 1    
    21   14   13 1    
    22   15   14 ar   
    23   19   14 ar   
    24   16   15 ar   
    25   26   15 1    
    26   17   16 ar   
    27   27   16 1    
    28   18   17 ar   
    29   20   17 1    
    30   19   18 ar   
    31   28   18 1    
    32   29   19 1    
    33   30   20 1    
    34   31   20 1    
    35   32   20 1    
@<TRIPOS>SUBSTRUCTURE
     1 TQ4196      1 GROUP   
@<TRIPOS>SET

