#    Name: 2YOG_1_CAVITY_N1_6.mol2
#    Modification time : Tue Mar 11 04:11:01 2014

@<TRIPOS>MOLECULE
2YOG_1_CAVITY_N1_6.mol2
   79     0     6     0     0
SMALL
NO_CHARGES


@<TRIPOS>ATOM
      1 N          20.7835   14.4812   -0.7242 N.2       1 ALA2        0.0000 
      2 N          19.7806   13.3663   -0.7582 N.2       1 ALA2        0.0000 
      3 OD1        20.5088   12.7466   -1.9140 O.3       2 ASP3        0.0000 
      4 OD1        21.2369   12.1269   -3.0698 O.3       2 ASP3        0.0000 
      5 CA         18.0496   12.8711    0.3635 C.3       5 GLY6        0.0000 
      6 CA         18.7777   12.2514   -0.7922 C.3       5 GLY6        0.0000 
      7 CA         19.5059   11.6317   -1.9480 C.3       5 GLY6        0.0000 
      8 N          20.2340   11.0119   -3.1038 N.2       1 ALA2        0.0000 
      9 CA         17.0467   11.7562    0.3295 C.3       5 GLY6        0.0000 
     10 CA         18.6199   10.3472    0.1293 C.3       5 GLY6        0.0000 
     11 CA         17.7749   11.1364   -0.8262 C.3       5 GLY6        0.0000 
     12 CA         19.3480    9.7275   -1.0265 C.3       5 GLY6        0.0000 
     13 N          18.5030   10.5167   -1.9820 N.2       1 ALA2        0.0000 
     14 N          19.2311    9.8970   -3.1378 N.2       1 ALA2        0.0000 
     15 CA         16.8889    9.8520    1.2511 C.3       5 GLY6        0.0000 
     16 CA         16.0438   10.6412    0.2955 C.3       5 GLY6        0.0000 
     17 CA         18.4620    8.4430    1.0508 C.3       5 GLY6        0.0000 
     18 CA         17.6170    9.2323    0.0953 C.3       5 GLY6        0.0000 
     19 DU         16.7720   10.0215   -0.8602 H         6 CUB7        0.0000 
     20 DU         15.9269   10.8108   -1.8158 H         6 CUB7        0.0000 
     21 CZ         19.1901    7.8233   -0.1049 C.ar      4 PHE5        0.0000 
     22 NZ         18.3451    8.6126   -1.0605 N.2       3 LYS4        0.0000 
     23 NZ         17.5001    9.4018   -2.0160 N.2       3 LYS4        0.0000 
     24 NZ         16.6551   10.1911   -2.9715 N.2       3 LYS4        0.0000 
     25 CA         14.3128   10.1460    1.4173 C.3       5 GLY6        0.0000 
     26 CA         17.5760    7.1586    3.1281 C.3       5 GLY6        0.0000 
     27 CA         16.7310    7.9478    2.1726 C.3       5 GLY6        0.0000 
     28 CA         15.8860    8.7371    1.2171 C.3       5 GLY6        0.0000 
     29 CA         15.0410    9.5263    0.2615 C.3       5 GLY6        0.0000 
     30 DU         14.1959   10.3156   -0.6940 H         6 CUB7        0.0000 
     31 CZ         18.3041    6.5389    1.9724 C.ar      4 PHE5        0.0000 
     32 CA         17.4591    7.3281    1.0168 C.3       5 GLY6        0.0000 
     33 DU         16.6141    8.1174    0.0613 H         6 CUB7        0.0000 
     34 DU         15.7691    8.9066   -0.8942 H         6 CUB7        0.0000 
     35 DU         14.9241    9.6958   -1.8498 H         6 CUB7        0.0000 
     36 CZ         18.1872    6.7084   -0.1389 C.ar      4 PHE5        0.0000 
     37 NZ         17.3422    7.4976   -1.0945 N.2       3 LYS4        0.0000 
     38 NZ         16.4972    8.2869   -2.0500 N.2       3 LYS4        0.0000 
     39 NZ         15.6522    9.0761   -3.0055 N.2       3 LYS4        0.0000 
     40 CZ         15.0000    7.4526    3.2944 C.ar      4 PHE5        0.0000 
     41 CA         14.1550    8.2419    2.3388 C.3       5 GLY6        0.0000 
     42 CA         13.3099    9.0311    1.3833 C.3       5 GLY6        0.0000 
     43 DU         12.4649    9.8203    0.4278 H         6 CUB7        0.0000 
     44 CZ         17.4181    5.2544    4.0497 C.ar      4 PHE5        0.0000 
     45 CZ         16.5731    6.0437    3.0941 C.ar      4 PHE5        0.0000 
     46 DU         15.7281    6.8329    2.1386 H         6 CUB7        0.0000 
     47 DU         14.8831    7.6221    1.1831 H         6 CUB7        0.0000 
     48 O          14.0381    8.4114    0.2275 O.2       1 ALA2        0.0000 
     49 DU         13.1930    9.2006   -0.7280 H         6 CUB7        0.0000 
     50 CA         18.1462    4.6347    2.8939 C.3       5 GLY6        0.0000 
     51 CZ         17.3012    5.4239    1.9384 C.ar      4 PHE5        0.0000 
     52 CZ         16.4562    6.2132    0.9828 C.ar      4 PHE5        0.0000 
     53 O          15.6112    7.0024    0.0273 O.2       1 ALA2        0.0000 
     54 O          14.7662    7.7917   -0.9282 O.2       1 ALA2        0.0000 
     55 O          13.9212    8.5809   -1.8838 O.2       1 ALA2        0.0000 
     56 NZ         16.3393    6.3827   -1.1285 N.2       3 LYS4        0.0000 
     57 O          15.4943    7.1720   -2.0840 O.2       1 ALA2        0.0000 
     58 O          14.6493    7.9612   -3.0395 O.2       1 ALA2        0.0000 
     59 N          13.8043    8.7504   -3.9951 N.2       1 ALA2        0.0000 
     60 CA         13.9971    6.3377    3.2604 C.3       5 GLY6        0.0000 
     61 CA         12.3071    7.9162    1.3493 C.3       5 GLY6        0.0000 
     62 CZ         16.4152    4.1395    4.0157 C.ar      4 PHE5        0.0000 
     63 CZ         15.5702    4.9287    3.0601 C.ar      4 PHE5        0.0000 
     64 CA         14.7252    5.7180    2.1046 C.3       5 GLY6        0.0000 
     65 CA         13.8802    6.5072    1.1491 C.3       5 GLY6        0.0000 
     66 O          13.0352    7.2965    0.1935 O.2       1 ALA2        0.0000 
     67 O          12.1902    8.0857   -0.7620 O.2       1 ALA2        0.0000 
     68 CZ         16.2983    4.3090    1.9044 C.ar      4 PHE5        0.0000 
     69 O          15.4533    5.0983    0.9488 O.2       1 ALA2        0.0000 
     70 O          14.6083    5.8875   -0.0067 O.2       1 ALA2        0.0000 
     71 O          12.9183    7.4660   -1.9178 O.2       1 ALA2        0.0000 
     72 CZ         14.6842    3.6443    5.1374 C.ar      4 PHE5        0.0000 
     73 CZ         13.8392    4.4335    4.1819 C.ar      4 PHE5        0.0000 
     74 CA         12.9942    5.2228    3.2264 C.3       5 GLY6        0.0000 
     75 N          15.4123    3.0246    3.9817 N.2       1 ALA2        0.0000 
     76 CA         14.5673    3.8138    3.0261 C.3       5 GLY6        0.0000 
     77 CA         13.7223    4.6031    2.0706 C.3       5 GLY6        0.0000 
     78 CZ         15.2954    3.1941    1.8704 C.ar      4 PHE5        0.0000 
     79 CA         14.4504    3.9833    0.9148 C.3       5 GLY6        0.0000 
@<TRIPOS>BOND
@<TRIPOS>SUBSTRUCTURE
     1 ALA2        1 GROUP   
     2 ASP3        3 GROUP   
     3 LYS4       22 GROUP   
     4 PHE5       21 GROUP   
     5 GLY6        5 GROUP   
     6 CUB7       19 GROUP   
@<TRIPOS>SET

