#    Name: 2yog_74X_1_INTS_M
#    Modification time : Tue Mar 25 09:32:14 2014

@<TRIPOS>MOLECULE
2yog_74X_1_INTS_M
   50     0     6     0     0
SMALL
NO_CHARGES


@<TRIPOS>ATOM
      1 N          12.6925    2.4895    6.7860 N.am      1 SEC2        0.0000 
      2 N          13.8440    2.7820    6.1770 N.am      5 SEL2        0.0000 
      3 N          11.5410    2.1970    7.3950 N.am      3 SEP2        0.0000 
      4 N          13.2740    1.7105    7.4075 N.am      1 SEC2        0.0000 
      5 N          12.7040    0.6390    8.6380 N.am      3 SEP2        0.0000 
      6 CA         10.2550    4.4710    4.7395 C.3       2 GLC5        0.0000 
      7 CA         12.0200    3.9340    4.3520 C.3       6 GLL5        0.0000 
      8 CA          8.4900    5.0080    5.1270 C.3       4 GLP5        0.0000 
      9 CA         10.9495    3.5730    2.7310 C.3       2 GLC5        0.0000 
     10 CA          9.8790    3.2120    1.1100 C.3       4 GLP5        0.0000 
     11 CA         14.5430    5.7090    4.6710 C.3       2 GLC5        0.0000 
     12 CA         14.1700    4.6070    3.1980 C.3       6 GLL5        0.0000 
     13 CA         14.9160    6.8110    6.1440 C.3       4 GLP5        0.0000 
     14 CA         13.0230    4.5775    1.6505 C.3       2 GLC5        0.0000 
     15 CA         11.8760    4.5480    0.1030 C.3       4 GLP5        0.0000 
     16 CA         17.5640    8.1590    2.8370 C.3       2 GLC5        0.0000 
     17 CA         16.7910    6.6650    2.1350 C.3       6 GLL5        0.0000 
     18 CA         18.3370    9.6530    3.5390 C.3       4 GLP5        0.0000 
     19 CA         16.5445    6.8525    4.1190 C.3       2 GLC5        0.0000 
     20 CA         16.2980    7.0400    6.1030 C.3       4 GLP5        0.0000 
     21 CA         18.9015    6.3865    2.1350 C.3       2 GLC5        0.0000 
     22 CA         21.0120    6.1080    2.1350 C.3       4 GLP5        0.0000 
     23 CA         13.8005    7.6500    2.7140 C.3       2 GLC5        0.0000 
     24 CA         15.7460    7.5580    1.5900 C.3       6 GLL5        0.0000 
     25 CA         11.8550    7.7420    3.8380 C.3       4 GLP5        0.0000 
     26 CA         15.8580    9.1495    2.6620 C.3       2 GLC5        0.0000 
     27 CA         15.9700   10.7410    3.7340 C.3       4 GLP5        0.0000 
     28 CA         13.5475    5.6415    0.2540 C.3       2 GLC5        0.0000 
     29 CA         15.2190    6.7350    0.4050 C.3       6 GLL5        0.0000 
     30 CA         17.2175    5.2705   -0.8810 C.3       2 GLC5        0.0000 
     31 CA         16.0990    6.9500   -0.8830 C.3       6 GLL5        0.0000 
     32 CA         18.3360    3.5910   -0.8790 C.3       4 GLP5        0.0000 
     33 CA         18.0865    9.5215    1.5195 C.3       2 GLC5        0.0000 
     34 CA         17.8360    9.3900   -0.5000 C.3       6 GLL5        0.0000 
     35 CA         19.4945    9.9635    0.1905 C.3       2 GLC5        0.0000 
     36 CA         21.1530   10.5370    0.8810 C.3       4 GLP5        0.0000 
     37 CA         13.5795    4.9273    5.6858 C.3       2 GLC5        0.0000 
     38 CA         14.3740    5.9130    7.0710 C.3       4 GLP5        0.0000 
     39 CA         12.6662    6.0081    3.7936 C.3       2 GLC5        0.0000 
     40 CA         13.5500    3.9490    4.2490 C.3       6 GLL5        0.0000 
     41 CA         13.4268    2.6956    2.9131 C.3       2 GLC5        0.0000 
     42 CA         13.3760    1.1170    2.0770 C.3       4 GLP5        0.0000 
     43 CA         17.7125    4.6220    1.1780 C.3       2 GLC5        0.0000 
     44 CA         16.2670    5.2890    1.8850 C.3       6 GLL5        0.0000 
     45 CA         18.8960    3.2670    0.3460 C.3       4 GLP5        0.0000 
     46 CA         17.2437   13.3738    2.4094 C.3       2 GLC5        0.0000 
     47 CA         17.1020   14.9260    1.5990 C.3       6 GLL5        0.0000 
     48 CA         18.0510   12.2780    3.5710 C.3       4 GLP5        0.0000 
     49 CA         17.3676   16.2623    2.2411 C.3       2 GLC5        0.0000 
     50 CA         18.2980   17.4970    3.3710 C.3       4 GLP5        0.0000 
@<TRIPOS>BOND
@<TRIPOS>SUBSTRUCTURE
     1 SEC2        1 GROUP        1 X    SEC  0     ROOT SEC X 2
     2 GLC5        6 GROUP        1 X    GLC  0     **** GLC X 6
     3 SEP2        3 GROUP        1 Y    SEP  0     ROOT SEP Y 9
     4 GLP5        8 GROUP        1 Y    GLP  0     **** GLP Y 13
     5 SEL2        2 GROUP        1 Z    SEL  0     ROOT SEL Z 16
     6 GLL5        7 GROUP        1 Z    GLL  0     **** GLL Z 20
@<TRIPOS>SET

