#    Name: 2yog_74X_1_ligand
#    Modification time : Tue Mar 25 09:32:14 2014

@<TRIPOS>MOLECULE
2yog_74X_1_ligand
   49    51     1     0     0
SMALL
NO_CHARGES


@<TRIPOS>ATOM
      1 OAC        17.5240    4.0930    3.9890 O.2       1 74X211      0.0000 
      2 CAZ        16.3290    4.0730    4.0460 C.2       1 74X211      0.0000 
      3 NAR        15.7350    3.4400    5.1160 N.am      1 74X211      0.0000 
      4 CAY        14.3420    3.3810    5.2330 C.2       1 74X211      0.0000 
      5 OAB        13.8440    2.7820    6.1770 O.2       1 74X211      0.0000 
      6 CAU        13.5500    3.9490    4.2490 C.2       1 74X211      0.0000 
      7 CAA        12.0200    3.9340    4.3520 C.3       1 74X211      0.0000 
      8 CAM        14.1700    4.6070    3.1980 C.2       1 74X211      0.0000 
      9 NBD        15.5610    4.6560    3.0550 N.am      1 74X211      0.0000 
     10 CBC        16.2670    5.2890    1.8850 C.3       1 74X211      0.0000 
     11 OAS        15.2670    5.3630    0.8470 O.3       1 74X211      0.0000 
     12 CAO        16.7910    6.6650    2.1350 C.3       1 74X211      0.0000 
     13 CBA        15.7460    7.5580    1.5900 C.3       1 74X211      0.0000 
     14 OAD        14.7130    7.7140    2.5600 O.3       1 74X211      0.0000 
     15 CBB        15.2190    6.7350    0.4050 C.3       1 74X211      0.0000 
     16 CAN        16.0990    6.9500   -0.8830 C.3       1 74X211      0.0000 
     17 NAP        15.6430    8.2400   -1.4350 N.am      1 74X211      0.0000 
     18 CAT        16.2850    9.3850   -1.2780 C.2       1 74X211      0.0000 
     19 SAE        17.8360    9.3900   -0.5000 S.2       1 74X211      0.0000 
     20 NAQ        15.7060   10.4930   -1.7580 N.am      1 74X211      0.0000 
     21 CAV        16.3120   11.6740   -1.6230 C.ar      1 74X211      0.0000 
     22 CAL        15.9420   12.4920   -0.5590 C.ar      1 74X211      0.0000 
     23 CAJ        17.3090   12.0870   -2.4990 C.ar      1 74X211      0.0000 
     24 CAK        17.9250   13.3190   -2.3050 C.ar      1 74X211      0.0000 
     25 CAW        17.5500   14.1410   -1.2450 C.ar      1 74X211      0.0000 
     26 CLA        18.3580   15.6560   -1.0670 Cl        1 74X211      0.0000 
     27 CAX        16.5490   13.7270   -0.3600 C.ar      1 74X211      0.0000 
     28 CBE        16.0820   14.5810    0.8310 C.3       1 74X211      0.0000 
     29 FAG        15.4630   15.6770    0.4160 F         1 74X211      0.0000 
     30 FAH        15.2260   13.8720    1.5580 F         1 74X211      0.0000 
     31 FAF        17.1020   14.9260    1.5990 F         1 74X211      0.0000 
     32 H          16.3192    2.9992    5.8483 H         1 74X211      0.0000 
     33 H          13.5794    5.0874    2.4809 H         1 74X211      0.0000 
     34 H          17.0618    4.6390    1.5640 H         1 74X211      0.0000 
     35 H          17.7149    6.8043    1.6101 H         1 74X211      0.0000 
     36 H          16.9091    6.8245    3.1882 H         1 74X211      0.0000 
     37 H          16.1579    8.4367    1.2363 H         1 74X211      0.0000 
     38 H          14.2214    7.0426    0.1968 H         1 74X211      0.0000 
     39 H          15.9022    6.1428   -1.5493 H         1 74X211      0.0000 
     40 H          17.1184    6.9887   -0.5771 H         1 74X211      0.0000 
     41 H          14.7390    8.1803   -1.9812 H         1 74X211      0.0000 
     42 H          14.7788   10.4303   -2.2383 H         1 74X211      0.0000 
     43 H          15.2035   12.1752    0.0936 H         1 74X211      0.0000 
     44 H          17.5887   11.4883   -3.2826 H         1 74X211      0.0000 
     45 H          18.6674   13.6278   -2.9525 H         1 74X211      0.0000 
     46 H          11.6595    3.0020    4.3909 H         1 74X211      0.0000 
     47 H          11.6983    4.4072    5.1721 H         1 74X211      0.0000 
     48 H          11.5906    4.3819    3.5678 H         1 74X211      0.0000 
     49 H          14.1182    8.4287    2.1919 H         1 74X211      0.0000 
@<TRIPOS>BOND
     1    2    1 2    
     2    3    2 am   
     3    9    2 am   
     4    4    3 am   
     5   32    3 1    
     6    5    4 2    
     7    6    4 1    
     8    7    6 1    
     9    8    6 2    
    10   46    7 1    
    11   47    7 1    
    12   48    7 1    
    13    9    8 1    
    14   33    8 1    
    15   10    9 1    
    16   11   10 1    
    17   12   10 1    
    18   34   10 1    
    19   15   11 1    
    20   13   12 1    
    21   35   12 1    
    22   36   12 1    
    23   14   13 1    
    24   15   13 1    
    25   37   13 1    
    26   49   14 1    
    27   16   15 1    
    28   38   15 1    
    29   17   16 1    
    30   39   16 1    
    31   40   16 1    
    32   18   17 am   
    33   41   17 1    
    34   19   18 2    
    35   20   18 am   
    36   21   20 1    
    37   42   20 1    
    38   22   21 ar   
    39   23   21 ar   
    40   27   22 ar   
    41   43   22 1    
    42   24   23 ar   
    43   44   23 1    
    44   25   24 ar   
    45   45   24 1    
    46   26   25 1    
    47   27   25 ar   
    48   28   27 1    
    49   29   28 1    
    50   30   28 1    
    51   31   28 1    
@<TRIPOS>SUBSTRUCTURE
     1 74X211      1 GROUP   
@<TRIPOS>SET

