#    Name: 3plz_470_2_INTS_M
#    Modification time : Tue Mar 25 08:10:29 2014

@<TRIPOS>MOLECULE
3plz_470_2_INTS_M
   91     0     3     0     0
SMALL
NO_CHARGES


@<TRIPOS>ATOM
      1 CA        -17.3905    3.1010  -43.6095 C.3       1 GLC5        0.0000 
      2 CA        -16.5210    1.5380  -44.2810 C.3       3 GLL5        0.0000 
      3 CA        -18.2600    4.6640  -42.9380 C.3       2 GLP5        0.0000 
      4 CA        -15.3530   -0.0530  -44.0720 C.3       1 GLC5        0.0000 
      5 CA        -14.1850   -1.6440  -43.8630 C.3       2 GLP5        0.0000 
      6 CA        -16.2440    1.9575  -42.4115 C.3       1 GLC5        0.0000 
      7 CA        -15.9670    2.3770  -40.5420 C.3       2 GLP5        0.0000 
      8 CA        -18.3360    2.6845  -44.5890 C.3       1 GLC5        0.0000 
      9 CA        -17.3050    1.1500  -45.5110 C.3       3 GLL5        0.0000 
     10 CA        -19.3670    4.2190  -43.6670 C.3       2 GLP5        0.0000 
     11 CA        -19.2735    1.6515  -45.9190 C.3       1 GLC5        0.0000 
     12 CA        -21.2420    2.1530  -46.3270 C.3       2 GLP5        0.0000 
     13 CA        -15.8315   -0.9975  -44.7015 C.3       1 GLC5        0.0000 
     14 CA        -17.4780   -0.3510  -45.5400 C.3       3 GLL5        0.0000 
     15 CA        -20.0680   -0.4485  -46.4900 C.3       1 GLC5        0.0000 
     16 CA        -17.9220   -0.7810  -46.8980 C.3       3 GLL5        0.0000 
     17 CA        -22.2140   -0.1160  -46.0820 C.3       2 GLP5        0.0000 
     18 CA        -14.9870   -1.7465  -45.7435 C.3       1 GLC5        0.0000 
     19 CA        -15.7890   -1.8490  -47.6240 C.3       3 GLL5        0.0000 
     20 CA        -16.8460   -3.6950  -45.9050 C.3       1 GLC5        0.0000 
     21 CA        -15.6630   -3.3470  -47.7700 C.3       3 GLL5        0.0000 
     22 CA        -18.0290   -4.0430  -44.0400 C.3       2 GLP5        0.0000 
     23 CA        -12.5520   -3.0195  -48.3970 C.3       1 GLC5        0.0000 
     24 CA        -14.2520   -3.8130  -47.5010 C.3       3 GLL5        0.0000 
     25 CA        -10.8520   -2.2260  -49.2930 C.3       2 GLP5        0.0000 
     26 CA        -12.7490   -4.6970  -46.7270 C.3       1 GLC5        0.0000 
     27 CA        -11.2460   -5.5810  -45.9530 C.3       2 GLP5        0.0000 
     28 CA        -13.3525   -4.9135  -49.2220 C.3       1 GLC5        0.0000 
     29 CA        -12.4530   -6.0140  -50.9430 C.3       2 GLP5        0.0000 
     30 CA        -14.2185   -2.7285  -45.6820 C.3       1 GLC5        0.0000 
     31 CA        -17.7775    1.9210  -50.1380 C.3       1 GLC5        0.0000 
     32 CA        -16.0680    0.4980  -50.4760 C.3       3 GLL5        0.0000 
     33 CA        -19.4870    3.3440  -49.8000 C.3       2 GLP5        0.0000 
     34 CA        -15.3480    1.7760  -48.8110 C.3       1 GLC5        0.0000 
     35 CA        -14.6280    3.0540  -47.1460 C.3       2 GLP5        0.0000 
     36 CA        -14.3070    3.0660  -51.3615 C.3       1 GLC5        0.0000 
     37 CA        -14.9100    1.1680  -50.8120 C.3       3 GLL5        0.0000 
     38 CA        -13.7040    4.9640  -51.9110 C.3       2 GLP5        0.0000 
     39 CA        -17.3660   -0.1155  -53.1745 C.3       1 GLC5        0.0000 
     40 CA        -18.9850   -0.8250  -52.0900 C.3       3 GLL5        0.0000 
     41 CA        -15.7470    0.5940  -54.2590 C.3       2 GLP5        0.0000 
     42 CA        -20.5600    1.4935  -50.9575 C.3       1 GLC5        0.0000 
     43 CA        -20.2900   -0.4880  -51.3970 C.3       3 GLL5        0.0000 
     44 CA        -20.8300    3.4750  -50.5180 C.3       2 GLP5        0.0000 
     45 CA        -21.4765   -3.5105  -50.3575 C.3       1 GLC5        0.0000 
     46 CA        -20.7740   -1.8090  -50.8440 C.3       3 GLL5        0.0000 
     47 CA        -22.1790   -5.2120  -49.8710 C.3       2 GLP5        0.0000 
     48 CA        -20.3515   -4.2980  -50.6125 C.3       1 GLC5        0.0000 
     49 CA        -19.5310   -2.6190  -50.5500 C.3       3 GLL5        0.0000 
     50 CA        -21.1720   -5.9770  -50.6750 C.3       2 GLP5        0.0000 
     51 CA        -19.2145   -3.1245  -46.9915 C.3       1 GLC5        0.0000 
     52 CA        -19.1680   -2.4510  -49.0840 C.3       3 GLL5        0.0000 
     53 CA        -19.2610   -3.7980  -44.8990 C.3       2 GLP5        0.0000 
     54 CA        -20.6735   -3.8315  -49.4775 C.3       1 GLC5        0.0000 
     55 CA        -16.6030   -7.4105  -49.3210 C.3       1 GLC5        0.0000 
     56 CA        -16.5560   -5.9820  -50.7430 C.3       3 GLL5        0.0000 
     57 CA        -16.6500   -8.8390  -47.8990 C.3       2 GLP5        0.0000 
     58 CA        -14.1240   -5.6625  -52.8290 C.3       1 GLC5        0.0000 
     59 CA        -16.0460   -5.9900  -53.0720 C.3       3 GLL5        0.0000 
     60 CA        -12.2020   -5.3350  -52.5860 C.3       2 GLP5        0.0000 
     61 CA        -17.8430   -5.6220  -54.5925 C.3       1 GLC5        0.0000 
     62 CA        -16.6630   -4.7640  -53.1850 C.3       3 GLL5        0.0000 
     63 CA        -19.0230   -6.4800  -56.0000 C.3       2 GLP5        0.0000 
     64 CA        -15.7705    2.1990  -46.0210 C.3       1 GLC5        0.0000 
     65 CA        -18.2047    0.6397  -43.4605 C.3       1 GLC5        0.0000 
     66 CA        -19.2140    0.7830  -41.7030 C.3       2 GLP5        0.0000 
     67 CA        -18.3580   -2.3998  -45.9603 C.3       1 GLC5        0.0000 
     68 CA        -15.9343    0.2063  -52.4237 C.3       1 GLC5        0.0000 
     69 CA        -16.1750   -0.8610  -50.7010 C.3       3 GLL5        0.0000 
     70 CA        -15.0663    0.7085  -52.6770 C.3       1 GLC5        0.0000 
     71 CA        -13.3868    1.8030  -49.6780 C.3       1 GLC5        0.0000 
     72 CA        -13.8610    0.4780  -51.3780 C.3       3 GLL5        0.0000 
     73 CA        -12.3880    2.7830  -48.2610 C.3       2 GLP5        0.0000 
     74 CA        -11.9423   -0.8155  -51.4937 C.3       1 GLC5        0.0000 
     75 CA         -9.9740   -1.4310  -51.4960 C.3       2 GLP5        0.0000 
     76 CA        -15.1425   -0.3103  -52.8473 C.3       1 GLC5        0.0000 
     77 CA        -13.9600   -0.8780  -51.6050 C.3       3 GLL5        0.0000 
     78 CA        -20.3392    0.6238  -53.2248 C.3       1 GLC5        0.0000 
     79 CA        -21.0410    1.9040  -54.7060 C.3       2 GLP5        0.0000 
     80 CA        -16.9225   -2.9680  -54.1577 C.3       1 GLC5        0.0000 
     81 CA        -17.2270   -4.1280  -52.0960 C.3       3 GLL5        0.0000 
     82 CA        -16.9000   -1.4900  -55.6750 C.3       2 GLP5        0.0000 
     83 CA        -18.6350   -6.2075  -50.5800 C.3       1 GLC5        0.0000 
     84 CA        -17.1740   -4.7480  -50.8610 C.3       3 GLL5        0.0000 
     85 CA        -20.4050   -7.0500  -50.3580 C.3       2 GLP5        0.0000 
     86 CA        -14.3648   -6.1523  -51.1168 C.3       1 GLC5        0.0000 
     87 CA        -16.8203   -7.6472  -53.7655 C.3       1 GLC5        0.0000 
     88 CA        -15.9970   -6.5990  -51.8380 C.3       3 GLL5        0.0000 
     89 CA        -17.6190   -9.0000  -55.0760 C.3       2 GLP5        0.0000 
     90 CA        -15.6597   -5.2980  -55.1707 C.3       1 GLC5        0.0000 
     91 CA        -14.9650   -5.2190  -57.2130 C.3       2 GLP5        0.0000 
@<TRIPOS>BOND
@<TRIPOS>SUBSTRUCTURE
     1 GLC5        1 GROUP        1 X    GLC  0     ROOT GLC X 6
     2 GLP5        3 GROUP        1 Y    GLP  0     ROOT GLP Y 13
     3 GLL5        2 GROUP        1 Z    GLL  0     ROOT GLL Z 20
@<TRIPOS>SET

