#    Name: 3plz_470_2_ligand
#    Modification time : Tue Mar 25 08:10:29 2014

@<TRIPOS>MOLECULE
3plz_470_2_ligand
   64    67     1     0     0
SMALL
NO_CHARGES


@<TRIPOS>ATOM
      1 C1        -16.5210    1.5380  -44.2810 C.3       1 4701        0.0000 
      2 N1        -17.8240   -2.8790  -52.3760 N.pl3     1 4701        0.0000 
      3 C2        -17.3050    1.1500  -45.5110 C.3       1 4701        0.0000 
      4 C3        -17.4780   -0.3510  -45.5400 C.3       1 4701        0.0000 
      5 C4        -17.9220   -0.7810  -46.8980 C.2       1 4701        0.0000 
      6 C5        -17.2100   -1.4370  -47.8240 C.2       1 4701        0.0000 
      7 C6        -15.7890   -1.8490  -47.6240 C.3       1 4701        0.0000 
      8 C7        -15.6630   -3.3470  -47.7700 C.3       1 4701        0.0000 
      9 C8        -14.2520   -3.8130  -47.5010 C.3       1 4701        0.0000 
     10 C9        -17.8420   -1.7670  -49.0890 C.2       1 4701        0.0000 
     11 C10       -17.4160   -1.5420  -50.3320 C.2       1 4701        0.0000 
     12 C11       -16.1750   -0.8610  -50.7010 C.ar      1 4701        0.0000 
     13 C12       -16.0680    0.4980  -50.4760 C.ar      1 4701        0.0000 
     14 C13       -14.9100    1.1680  -50.8120 C.ar      1 4701        0.0000 
     15 C14       -13.8610    0.4780  -51.3780 C.ar      1 4701        0.0000 
     16 C15       -13.9600   -0.8780  -51.6050 C.ar      1 4701        0.0000 
     17 C16       -15.1160   -1.5510  -51.2660 C.ar      1 4701        0.0000 
     18 C17       -18.3930   -2.0120  -51.3480 C.3       1 4701        0.0000 
     19 C18       -18.9850   -0.8250  -52.0900 C.3       1 4701        0.0000 
     20 C19       -20.2900   -0.4880  -51.3970 C.3       1 4701        0.0000 
     21 C20       -20.7740   -1.8090  -50.8440 C.3       1 4701        0.0000 
     22 C21       -19.5310   -2.6190  -50.5500 C.3       1 4701        0.0000 
     23 C22       -19.1680   -2.4510  -49.0840 C.3       1 4701        0.0000 
     24 C23       -17.2270   -4.1280  -52.0960 C.ar      1 4701        0.0000 
     25 C24       -17.1740   -4.7480  -50.8610 C.ar      1 4701        0.0000 
     26 C25       -16.5560   -5.9820  -50.7430 C.ar      1 4701        0.0000 
     27 C26       -15.9970   -6.5990  -51.8380 C.ar      1 4701        0.0000 
     28 C27       -16.0460   -5.9900  -53.0720 C.ar      1 4701        0.0000 
     29 C28       -16.6630   -4.7640  -53.1850 C.ar      1 4701        0.0000 
     30 H         -17.8702   -2.5428  -53.3569 H         1 4701        0.0000 
     31 H         -16.7700    1.4709  -46.4002 H         1 4701        0.0000 
     32 H         -18.2804    1.6273  -45.4868 H         1 4701        0.0000 
     33 H         -18.2206   -0.6406  -44.7965 H         1 4701        0.0000 
     34 H         -16.5291   -0.8260  -45.2909 H         1 4701        0.0000 
     35 H         -18.9435   -0.5057  -47.1053 H         1 4701        0.0000 
     36 H         -15.4538   -1.5559  -46.6284 H         1 4701        0.0000 
     37 H         -15.1532   -1.3615  -48.3639 H         1 4701        0.0000 
     38 H         -15.9537   -3.6380  -48.7854 H         1 4701        0.0000 
     39 H         -16.3470   -3.8383  -47.0693 H         1 4701        0.0000 
     40 H         -16.8582    1.0131  -50.0548 H         1 4701        0.0000 
     41 H         -14.8310    2.1810  -50.6398 H         1 4701        0.0000 
     42 H         -12.9929    0.9802  -51.6346 H         1 4701        0.0000 
     43 H         -13.1705   -1.3902  -52.0282 H         1 4701        0.0000 
     44 H         -15.1929   -2.5647  -51.4322 H         1 4701        0.0000 
     45 H         -19.1748   -1.0962  -53.1113 H         1 4701        0.0000 
     46 H         -18.3137    0.0105  -52.0279 H         1 4701        0.0000 
     47 H         -20.9900   -0.1117  -52.1072 H         1 4701        0.0000 
     48 H         -20.1102    0.1967  -50.6003 H         1 4701        0.0000 
     49 H         -21.3715   -2.3138  -51.5778 H         1 4701        0.0000 
     50 H         -21.3235   -1.6448  -49.9377 H         1 4701        0.0000 
     51 H         -19.6584   -3.6167  -50.7914 H         1 4701        0.0000 
     52 H         -19.9035   -1.8397  -48.6037 H         1 4701        0.0000 
     53 H         -19.0913   -3.4144  -48.6244 H         1 4701        0.0000 
     54 H         -17.5895   -4.2976  -50.0368 H         1 4701        0.0000 
     55 H         -16.5164   -6.4437  -49.8145 H         1 4701        0.0000 
     56 H         -15.5399   -7.5200  -51.7351 H         1 4701        0.0000 
     57 H         -15.6301   -6.4416  -53.8930 H         1 4701        0.0000 
     58 H         -16.7068   -4.3000  -54.1205 H         1 4701        0.0000 
     59 H         -15.6140    1.1171  -44.2706 H         1 4701        0.0000 
     60 H         -16.3858    2.5271  -44.2235 H         1 4701        0.0000 
     61 H         -16.9845    1.2562  -43.4409 H         1 4701        0.0000 
     62 H         -13.5966   -3.3955  -48.1305 H         1 4701        0.0000 
     63 H         -13.9553   -3.5832  -46.5741 H         1 4701        0.0000 
     64 H         -14.1630   -4.8041  -47.6000 H         1 4701        0.0000 
@<TRIPOS>BOND
     1    3    1 1    
     2   59    1 1    
     3   60    1 1    
     4   61    1 1    
     5   18    2 1    
     6   24    2 1    
     7   30    2 1    
     8    4    3 1    
     9   31    3 1    
    10   32    3 1    
    11    5    4 1    
    12   33    4 1    
    13   34    4 1    
    14    6    5 2    
    15   35    5 1    
    16    7    6 1    
    17   10    6 1    
    18    8    7 1    
    19   36    7 1    
    20   37    7 1    
    21    9    8 1    
    22   38    8 1    
    23   39    8 1    
    24   62    9 1    
    25   63    9 1    
    26   64    9 1    
    27   11   10 2    
    28   23   10 1    
    29   12   11 1    
    30   18   11 1    
    31   13   12 ar   
    32   17   12 ar   
    33   14   13 ar   
    34   40   13 1    
    35   15   14 ar   
    36   41   14 1    
    37   16   15 ar   
    38   42   15 1    
    39   17   16 ar   
    40   43   16 1    
    41   44   17 1    
    42   19   18 1    
    43   22   18 1    
    44   20   19 1    
    45   45   19 1    
    46   46   19 1    
    47   21   20 1    
    48   47   20 1    
    49   48   20 1    
    50   22   21 1    
    51   49   21 1    
    52   50   21 1    
    53   23   22 1    
    54   51   22 1    
    55   52   23 1    
    56   53   23 1    
    57   25   24 ar   
    58   29   24 ar   
    59   26   25 ar   
    60   54   25 1    
    61   27   26 ar   
    62   55   26 1    
    63   28   27 ar   
    64   56   27 1    
    65   29   28 ar   
    66   57   28 1    
    67   58   29 1    
@<TRIPOS>SUBSTRUCTURE
     1 4701        1 GROUP   
@<TRIPOS>SET

