#    Name: 1mei_XMP_1_INTS_M
#    Modification time : Tue Mar 25 11:46:13 2014

@<TRIPOS>MOLECULE
1mei_XMP_1_INTS_M
   45     0     9     0     0
SMALL
NO_CHARGES


@<TRIPOS>ATOM
      1 N          67.8265   56.4890   12.6000 N.am      2 SEC2        0.0000 
      2 N          67.6840   55.2950   13.4810 N.am      8 SEL2        0.0000 
      3 N          67.9690   57.6830   11.7190 N.am      5 SEP2        0.0000 
      4 N          68.1475   54.0825   12.7945 N.am      2 SEC2        0.0000 
      5 N          68.6110   52.8700   12.1080 N.am      5 SEP2        0.0000 
      6 N          68.5700   52.8865   15.0590 N.am      2 SEC2        0.0000 
      7 N          68.9020   54.2340   15.3540 N.am      8 SEL2        0.0000 
      8 N          68.2380   51.5390   14.7640 N.am      5 SEP2        0.0000 
      9 N          68.0780   57.8200   14.8315 N.am      2 SEC2        0.0000 
     10 N          68.6510   56.6720   15.2750 N.am      8 SEL2        0.0000 
     11 N          67.5050   58.9680   14.3880 N.am      5 SEP2        0.0000 
     12 CA         64.5155   53.2375   14.6180 C.3       3 GLC5        0.0000 
     13 CA         65.7960   54.3470   15.8630 C.3       9 GLL5        0.0000 
     14 CA         63.2350   52.1280   13.3730 C.3       6 GLP5        0.0000 
     15 CA         66.5970   52.8720   14.7250 C.3       3 GLC5        0.0000 
     16 CA         67.3980   51.3970   13.5870 C.3       6 GLP5        0.0000 
     17 CA         66.5200   55.2315   18.1460 C.3       3 GLC5        0.0000 
     18 CA         64.7560   54.5930   16.9600 C.3       9 GLL5        0.0000 
     19 CA         68.2840   55.8700   19.3320 C.3       6 GLP5        0.0000 
     20 O          59.2210   60.4380   13.9980 O.2       1 ALC1        0.0000 
     21 O          60.0860   59.2580   14.3530 O.2       7 ALL1        0.0000 
     22 O          58.3560   61.6180   13.6430 O.2       4 ALP1        0.0000 
     23 N          57.8620   57.1555   12.7360 N.am      2 SEC2        0.0000 
     24 N          59.0150   57.8750   12.8530 N.am      8 SEL2        0.0000 
     25 N          56.7090   56.4360   12.6190 N.am      5 SEP2        0.0000 
     26 CA         60.3530   56.3960   12.6345 C.3       3 GLC5        0.0000 
     27 CA         60.4060   56.9090   14.5060 C.3       9 GLL5        0.0000 
     28 CA         60.3000   55.8830   10.7630 C.3       6 GLP5        0.0000 
     29 N          59.4825   55.1480   13.1790 N.am      2 SEC2        0.0000 
     30 N          60.3250   55.5730   14.2680 N.am      8 SEL2        0.0000 
     31 N          58.6400   54.7230   12.0900 N.am      5 SEP2        0.0000 
     32 O          64.2570   53.6670   19.5650 O.2       1 ALC1        0.0000 
     33 O          62.8080   54.5540   19.2610 O.2       7 ALL1        0.0000 
     34 O          65.7060   52.7800   19.8690 O.2       4 ALP1        0.0000 
     35 O          63.3130   53.7890   20.1065 O.2       1 ALC1        0.0000 
     36 O          63.8180   53.0240   20.9520 O.2       4 ALP1        0.0000 
     37 CA         64.2510   51.7025   16.4160 C.3       3 GLC5        0.0000 
     38 CA         63.7050   53.5370   17.1410 C.3       9 GLL5        0.0000 
     39 CA         64.7970   49.8680   15.6910 C.3       6 GLP5        0.0000 
     40 CA         63.4700   52.8325   15.2570 C.3       3 GLC5        0.0000 
     41 O          64.9335   52.6090   18.8975 O.2       1 ALC1        0.0000 
     42 O          64.1610   52.4380   17.9260 O.2       7 ALL1        0.0000 
     43 CA         62.2700   57.2950   14.1318 C.3       3 GLC5        0.0000 
     44 CA         61.2480   57.1830   15.6010 C.3       9 GLL5        0.0000 
     45 CA         63.7130   57.5440   13.2100 C.3       6 GLP5        0.0000 
@<TRIPOS>BOND
@<TRIPOS>SUBSTRUCTURE
     1 ALC1       20 GROUP        1 X    ALC  0     ROOT ALC X 1
     2 SEC2        1 GROUP        1 X    SEC  0     **** SEC X 2
     3 GLC5       12 GROUP        1 X    GLC  0     **** GLC X 6
     4 ALP1       22 GROUP        1 Y    ALP  0     ROOT ALP Y 8
     5 SEP2        3 GROUP        1 Y    SEP  0     **** SEP Y 9
     6 GLP5       14 GROUP        1 Y    GLP  0     **** GLP Y 13
     7 ALL1       21 GROUP        1 Z    ALL  0     ROOT ALL Z 15
     8 SEL2        2 GROUP        1 Z    SEL  0     **** SEL Z 16
     9 GLL5       13 GROUP        1 Z    GLL  0     **** GLL Z 20
@<TRIPOS>SET

