#    Name: 1mei_XMP_1_ligand
#    Modification time : Tue Mar 25 11:46:13 2014

@<TRIPOS>MOLECULE
1mei_XMP_1_ligand
   35    37     1     0     0
SMALL
NO_CHARGES


@<TRIPOS>ATOM
      1 P          68.0810   55.3690   14.8900 P.3       1 XMP602      0.0000 
      2 O1P        67.6840   55.2950   13.4810 O.co2     1 XMP602      0.0000 
      3 O2P        68.9020   54.2340   15.3540 O.co2     1 XMP602      0.0000 
      4 O5'        66.7870   55.3920   15.7170 O.3       1 XMP602      0.0000 
      5 O3P        68.6510   56.6720   15.2750 O.co2     1 XMP602      0.0000 
      6 C5'        65.7960   54.3470   15.8630 C.3       1 XMP602      0.0000 
      7 C4'        64.7560   54.5930   16.9600 C.3       1 XMP602      0.0000 
      8 O4'        63.9430   55.7320   16.6880 O.3       1 XMP602      0.0000 
      9 C1'        62.6180   55.6810   17.1800 C.3       1 XMP602      0.0000 
     10 N9         61.6900   55.9530   16.0310 N.pl3     1 XMP602      0.0000 
     11 C4         61.2480   57.1830   15.6010 C.2       1 XMP602      0.0000 
     12 N3         61.5560   58.4440   16.1210 N.am      1 XMP602      0.0000 
     13 N1         60.0860   59.2580   14.3530 N.am      1 XMP602      0.0000 
     14 C2         60.9420   59.4810   15.4590 C.2       1 XMP602      0.0000 
     15 O2         61.1280   60.6390   15.8290 O.2       1 XMP602      0.0000 
     16 C6         59.7640   57.9890   13.8110 C.2       1 XMP602      0.0000 
     17 O6         59.0150   57.8750   12.8530 O.2       1 XMP602      0.0000 
     18 C5         60.4060   56.9090   14.5060 C.2       1 XMP602      0.0000 
     19 N7         60.3250   55.5730   14.2680 N.2       1 XMP602      0.0000 
     20 C8         61.0760   55.0820   15.1660 C.2       1 XMP602      0.0000 
     21 C2'        62.6040   54.2980   17.8780 C.3       1 XMP602      0.0000 
     22 O2'        62.8080   54.5540   19.2610 O.3       1 XMP602      0.0000 
     23 C3'        63.7050   53.5370   17.1410 C.3       1 XMP602      0.0000 
     24 O3'        64.1610   52.4380   17.9260 O.3       1 XMP602      0.0000 
     25 H          66.2843   53.3679   16.0798 H         1 XMP602      0.0000 
     26 H          65.2424   54.1921   14.9072 H         1 XMP602      0.0000 
     27 H          65.2519   54.7345   17.9144 H         1 XMP602      0.0000 
     28 H          62.5095   56.4355   17.9497 H         1 XMP602      0.0000 
     29 H          62.1595   58.5657   16.8920 H         1 XMP602      0.0000 
     30 H          59.6521   60.1065   13.8946 H         1 XMP602      0.0000 
     31 H          61.2514   54.0662   15.2831 H         1 XMP602      0.0000 
     32 H          61.6611   53.8649   17.6491 H         1 XMP602      0.0000 
     33 H          63.3241   53.2619   16.1907 H         1 XMP602      0.0000 
     34 H          63.2174   53.7159   19.6216 H         1 XMP602      0.0000 
     35 H          65.0444   52.7305   18.2920 H         1 XMP602      0.0000 
@<TRIPOS>BOND
     1    2    1 ar   
     2    3    1 ar   
     3    4    1 1    
     4    5    1 ar   
     5    6    4 1    
     6    7    6 1    
     7   25    6 1    
     8   26    6 1    
     9    8    7 1    
    10   23    7 1    
    11   27    7 1    
    12    9    8 1    
    13   10    9 1    
    14   21    9 1    
    15   28    9 1    
    16   11   10 1    
    17   20   10 1    
    18   12   11 1    
    19   18   11 2    
    20   14   12 am   
    21   29   12 1    
    22   14   13 1    
    23   16   13 am   
    24   30   13 1    
    25   15   14 2    
    26   17   16 2    
    27   18   16 1    
    28   19   18 1    
    29   20   19 2    
    30   31   20 1    
    31   22   21 1    
    32   23   21 1    
    33   32   21 1    
    34   34   22 1    
    35   24   23 1    
    36   33   23 1    
    37   35   24 1    
@<TRIPOS>SUBSTRUCTURE
     1 XMP602      1 GROUP   
@<TRIPOS>SET

