#    Name: 3cd2_MTX_1_INTS_M
#    Modification time : Mon Mar 24 20:45:58 2014

@<TRIPOS>MOLECULE
3cd2_MTX_1_INTS_M
   70     0    12     0     0
SMALL
NO_CHARGES


@<TRIPOS>ATOM
      1 N          11.9205    1.6080   11.0505 N.am      2 SEC2        0.0000 
      2 N          11.5930    2.5830   11.9460 N.am     10 SEL2        0.0000 
      3 N          12.2480    0.6330   10.1550 N.am      6 SEP2        0.0000 
      4 CA          8.3215    2.7795   12.8660 C.3       4 GLC5        0.0000 
      5 CA         10.3530    2.3620   12.4940 C.3      12 GLL5        0.0000 
      6 CA          6.2900    3.1970   13.2380 C.3       8 GLP5        0.0000 
      7 CA          9.7580    1.7155   14.4760 C.3       4 GLC5        0.0000 
      8 CA          9.1630    1.0690   16.4580 C.3       8 GLP5        0.0000 
      9 CA         11.3005    0.5150   13.0575 C.3       4 GLC5        0.0000 
     10 CA         12.2480   -1.3320   13.6210 C.3       8 GLP5        0.0000 
     11 CA          9.9975    3.4600   10.6865 C.3       4 GLC5        0.0000 
     12 CA          9.6420    4.5580    8.8790 C.3       8 GLP5        0.0000 
     13 O          10.9375    1.0315   11.0730 O.2       1 ALC1        0.0000 
     14 O           9.6270    1.4300   11.9910 O.2       9 ALL1        0.0000 
     15 O          12.2480    0.6330   10.1550 O.2       5 ALP1        0.0000 
     16 O           9.9925    0.5195   11.0125 O.2       1 ALC1        0.0000 
     17 O          10.3580   -0.3910   10.0340 O.2       5 ALP1        0.0000 
     18 CA          9.9020    2.5605   15.2385 C.3       4 GLC5        0.0000 
     19 CA         10.6410    4.0520   14.0190 C.3      12 GLL5        0.0000 
     20 O          10.5615    5.6525   16.0250 O.2       1 ALC1        0.0000 
     21 O          10.1940    4.7700   15.0140 O.2       9 ALL1        0.0000 
     22 O          10.9290    6.5350   17.0360 O.2       5 ALP1        0.0000 
     23 CA         14.2850    4.4995   10.5895 C.3       4 GLC5        0.0000 
     24 CA         14.3110    4.7580   12.3500 C.3      12 GLL5        0.0000 
     25 CA         14.2590    4.2410    8.8290 C.3       8 GLP5        0.0000 
     26 CA         13.3240    3.9055   10.6210 C.3       4 GLC5        0.0000 
     27 CA         12.3890    3.5700   12.4130 C.3      12 GLL5        0.0000 
     28 CA         14.6905    8.1375   15.4025 C.3       4 GLC5        0.0000 
     29 CA         14.7670    6.6350   13.9650 C.3      12 GLL5        0.0000 
     30 CA         14.6140    9.6400   16.8400 C.3       8 GLP5        0.0000 
     31 CA         14.5085    6.3415   15.7950 C.3       4 GLC5        0.0000 
     32 CA         14.2500    6.0480   17.6250 C.3       8 GLP5        0.0000 
     33 CA         17.2530    5.2785   13.0915 C.3       4 GLC5        0.0000 
     34 CA         17.1860    7.1320   13.4290 C.3      12 GLL5        0.0000 
     35 CA         17.3200    3.4250   12.7540 C.3       8 GLP5        0.0000 
     36 CA         18.6015    8.4165   14.4670 C.3       4 GLC5        0.0000 
     37 CA         20.0170    9.7010   15.5050 C.3       8 GLP5        0.0000 
     38 CA         13.0880   10.5350    9.8145 C.3       4 GLC5        0.0000 
     39 CA         13.8440    8.5570   10.2620 C.3      12 GLL5        0.0000 
     40 CA         12.3320   12.5130    9.3670 C.3       8 GLP5        0.0000 
     41 CA         12.6395   11.0255    7.7335 C.3       4 GLC5        0.0000 
     42 CA         12.9470    9.5380    6.1000 C.3      12 GLL5        0.0000 
     43 NZ         10.0320   11.8285    5.9380 N.4       3 LYC4        0.0000 
     44 NZ         11.3460   11.1150    5.5220 N.4      11 LYL4        0.0000 
     45 NZ          8.0590   11.9760    7.4050 N.4       7 LYP4        0.0000 
     46 N          10.0320   11.8285    5.9380 N.am      2 SEC2        0.0000 
     47 N          11.3460   11.1150    5.5220 N.am     10 SEL2        0.0000 
     48 N           8.7180   12.5420    6.3540 N.am      6 SEP2        0.0000 
     49 NZ          9.5755   10.1950    7.3585 N.4       3 LYC4        0.0000 
     50 NZ         10.7890    9.6720    7.0260 N.4      11 LYL4        0.0000 
     51 N           9.5755   10.1950    7.3585 N.am      2 SEC2        0.0000 
     52 N          10.7890    9.6720    7.0260 N.am     10 SEL2        0.0000 
     53 N           8.3620   10.7180    7.6910 N.am      6 SEP2        0.0000 
     54 CA         11.0860    8.8955    4.0335 C.3       4 GLC5        0.0000 
     55 CA         13.0190    8.4560    5.0730 C.3      12 GLL5        0.0000 
     56 CA          9.1530    9.3350    2.9940 C.3       8 GLP5        0.0000 
     57 CA         15.2140   10.1970    3.3105 C.3       4 GLC5        0.0000 
     58 CA         14.0290    8.5830    4.0060 C.3      12 GLL5        0.0000 
     59 CA         16.3990   11.8110    2.6150 C.3       8 GLP5        0.0000 
     60 CA         15.8759    4.6591   13.0861 C.3       4 GLC5        0.0000 
     61 CA         14.9225   10.0110   11.7707 C.3       4 GLC5        0.0000 
     62 CA         14.1320    8.0610   11.5250 C.3      12 GLL5        0.0000 
     63 CA         15.8570   11.7130   12.6480 C.3       8 GLP5        0.0000 
     64 CA         15.8890    9.7205   11.9953 C.3       4 GLC5        0.0000 
     65 CA         15.4250    7.6550   11.8330 C.3      12 GLL5        0.0000 
     66 CA         17.8083    9.2157    9.8453 C.3       4 GLC5        0.0000 
     67 CA         16.4170    7.8010   10.8520 C.3      12 GLL5        0.0000 
     68 CA         19.3490   10.3800    9.4580 C.3       8 GLP5        0.0000 
     69 CA         13.6185    7.1370    5.2266 C.3       4 GLC5        0.0000 
     70 CA         13.7310    5.4840    5.6570 C.3       8 GLP5        0.0000 
@<TRIPOS>BOND
@<TRIPOS>SUBSTRUCTURE
     1 ALC1       13 GROUP        1 X    ALC  0     ROOT ALC X 1
     2 SEC2        1 GROUP        1 X    SEC  0     **** SEC X 2
     3 LYC4       43 GROUP        1 X    LYC  0     **** LYC X 4
     4 GLC5        4 GROUP        1 X    GLC  0     **** GLC X 6
     5 ALP1       15 GROUP        1 Y    ALP  0     ROOT ALP Y 8
     6 SEP2        3 GROUP        1 Y    SEP  0     **** SEP Y 9
     7 LYP4       45 GROUP        1 Y    LYP  0     **** LYP Y 11
     8 GLP5        6 GROUP        1 Y    GLP  0     **** GLP Y 13
     9 ALL1       14 GROUP        1 Z    ALL  0     ROOT ALL Z 15
    10 SEL2        2 GROUP        1 Z    SEL  0     **** SEL Z 16
    11 LYL4       44 GROUP        1 Z    LYL  0     **** LYL Z 18
    12 GLL5        5 GROUP        1 Z    GLL  0     **** GLL Z 20
@<TRIPOS>SET

