#    Name: 3cd2_MTX_1_ligand
#    Modification time : Mon Mar 24 20:45:58 2014

@<TRIPOS>MOLECULE
3cd2_MTX_1_ligand
   53    55     1     0     0
SMALL
NO_CHARGES


@<TRIPOS>ATOM
      1 N1         11.5930    2.5830   11.9460 N.ar      1 MTX307      0.0000 
      2 C2         10.3530    2.3620   12.4940 C.ar      1 MTX307      0.0000 
      3 NA2         9.6270    1.4300   11.9910 N.pl3     1 MTX307      0.0000 
      4 N3          9.8780    3.0830   13.5370 N.ar      1 MTX307      0.0000 
      5 C4         10.6410    4.0520   14.0190 C.ar      1 MTX307      0.0000 
      6 NA4        10.1940    4.7700   15.0140 N.pl3     1 MTX307      0.0000 
      7 C4A        11.9500    4.3610   13.4750 C.ar      1 MTX307      0.0000 
      8 N5         12.7070    5.3500   13.9710 N.ar      1 MTX307      0.0000 
      9 C6         13.8820    5.5450   13.3930 C.ar      1 MTX307      0.0000 
     10 C7         14.3110    4.7580   12.3500 C.ar      1 MTX307      0.0000 
     11 N8         13.5700    3.7550   11.8530 N.ar      1 MTX307      0.0000 
     12 C8A        12.3890    3.5700   12.4130 C.ar      1 MTX307      0.0000 
     13 C9         14.7670    6.6350   13.9650 C.3       1 MTX307      0.0000 
     14 N10        15.7690    7.1290   13.0480 N.pl3     1 MTX307      0.0000 
     15 CM         17.1860    7.1320   13.4290 C.3       1 MTX307      0.0000 
     16 C11        14.8190    8.7030    9.2930 C.ar      1 MTX307      0.0000 
     17 C12        13.8440    8.5570   10.2620 C.ar      1 MTX307      0.0000 
     18 C13        14.1320    8.0610   11.5250 C.ar      1 MTX307      0.0000 
     19 C14        15.4250    7.6550   11.8330 C.ar      1 MTX307      0.0000 
     20 C15        16.4170    7.8010   10.8520 C.ar      1 MTX307      0.0000 
     21 C16        16.1180    8.3020    9.6130 C.ar      1 MTX307      0.0000 
     22 C          14.5060    9.2420    7.9690 C.2       1 MTX307      0.0000 
     23 O          15.4050    9.7730    7.2930 O.2       1 MTX307      0.0000 
     24 N          13.2890    9.0950    7.4660 N.am      1 MTX307      0.0000 
     25 CA         12.9470    9.5380    6.1000 C.3       1 MTX307      0.0000 
     26 CT         11.5720   10.1520    6.2290 C.2       1 MTX307      0.0000 
     27 O1         11.3460   11.1150    5.5220 O.co2     1 MTX307      0.0000 
     28 O2         10.7890    9.6720    7.0260 O.co2     1 MTX307      0.0000 
     29 CB         13.0190    8.4560    5.0730 C.3       1 MTX307      0.0000 
     30 CG         14.0290    8.5830    4.0060 C.3       1 MTX307      0.0000 
     31 CD         14.0780    7.5020    3.0200 C.2       1 MTX307      0.0000 
     32 OE1        15.2110    6.9870    2.5570 O.co2     1 MTX307      0.0000 
     33 OE2        13.0440    6.8640    2.4300 O.co2     1 MTX307      0.0000 
     34 H           8.7153    1.3203   12.3870 H         1 MTX307      0.0000 
     35 H          10.0411    0.9010   11.2503 H         1 MTX307      0.0000 
     36 H           9.2034    4.9015   15.0516 H         1 MTX307      0.0000 
     37 H          10.8834    5.1224   15.6469 H         1 MTX307      0.0000 
     38 H          15.2599    4.9612   11.9345 H         1 MTX307      0.0000 
     39 H          15.2443    6.2362   14.8896 H         1 MTX307      0.0000 
     40 H          14.1070    7.4645   14.3086 H         1 MTX307      0.0000 
     41 H          12.8607    8.8276   10.0385 H         1 MTX307      0.0000 
     42 H          13.3898    7.9932   12.2341 H         1 MTX307      0.0000 
     43 H          17.3888    7.5207   11.0830 H         1 MTX307      0.0000 
     44 H          16.8600    8.3898    8.8924 H         1 MTX307      0.0000 
     45 H          12.5059    8.6616    7.9990 H         1 MTX307      0.0000 
     46 H          13.6314   10.3525    5.8287 H         1 MTX307      0.0000 
     47 H          11.9981    8.3455    4.6023 H         1 MTX307      0.0000 
     48 H          13.1680    7.4710    5.6056 H         1 MTX307      0.0000 
     49 H          15.0444    8.6972    4.4803 H         1 MTX307      0.0000 
     50 H          13.8713    9.5628    3.4730 H         1 MTX307      0.0000 
     51 H          17.7658    7.4957   12.6999 H         1 MTX307      0.0000 
     52 H          17.3510    7.6914   14.2413 H         1 MTX307      0.0000 
     53 H          17.5171    6.2112   13.6350 H         1 MTX307      0.0000 
@<TRIPOS>BOND
     1    2    1 ar   
     2   12    1 ar   
     3    3    2 1    
     4    4    2 ar   
     5   34    3 1    
     6   35    3 1    
     7    5    4 ar   
     8    6    5 1    
     9    7    5 ar   
    10   36    6 1    
    11   37    6 1    
    12    8    7 ar   
    13   12    7 ar   
    14    9    8 ar   
    15   10    9 ar   
    16   13    9 1    
    17   11   10 ar   
    18   38   10 1    
    19   12   11 ar   
    20   14   13 1    
    21   39   13 1    
    22   40   13 1    
    23   15   14 1    
    24   19   14 1    
    25   51   15 1    
    26   52   15 1    
    27   53   15 1    
    28   17   16 ar   
    29   21   16 ar   
    30   22   16 1    
    31   18   17 ar   
    32   41   17 1    
    33   19   18 ar   
    34   42   18 1    
    35   20   19 ar   
    36   21   20 ar   
    37   43   20 1    
    38   44   21 1    
    39   23   22 2    
    40   24   22 am   
    41   25   24 1    
    42   45   24 1    
    43   26   25 1    
    44   29   25 1    
    45   46   25 1    
    46   27   26 ar   
    47   28   26 ar   
    48   30   29 1    
    49   47   29 1    
    50   48   29 1    
    51   31   30 1    
    52   49   30 1    
    53   50   30 1    
    54   32   31 ar   
    55   33   31 ar   
@<TRIPOS>SUBSTRUCTURE
     1 MTX307      1 GROUP   
@<TRIPOS>SET

