#    Name: 3cjg_KIM_1_INTS_M
#    Modification time : Mon Mar 24 21:42:42 2014

@<TRIPOS>MOLECULE
3cjg_KIM_1_INTS_M
   76     0     9     0     0
SMALL
NO_CHARGES


@<TRIPOS>ATOM
      1 O           4.8865   42.1095    4.4295 O.2       1 ALC1        0.0000 
      2 O           6.0200   41.7280    5.0700 O.2       7 ALL1        0.0000 
      3 O           3.7530   42.4910    3.7890 O.2       4 ALP1        0.0000 
      4 CA          7.3610   40.0070    4.9715 C.3       3 GLC5        0.0000 
      5 CA          6.0660   40.9220    6.2230 C.3       9 GLL5        0.0000 
      6 CA          8.6560   39.0920    3.7200 C.3       6 GLP5        0.0000 
      7 CA          4.0585   41.6205    6.2365 C.3       3 GLC5        0.0000 
      8 CA          2.0510   42.3190    6.2500 C.3       6 GLP5        0.0000 
      9 CA          5.5395   41.7555    7.6570 C.3       3 GLC5        0.0000 
     10 CA          5.0130   42.5890    9.0910 C.3       6 GLP5        0.0000 
     11 CA          3.7200   38.6885    6.2110 C.3       3 GLC5        0.0000 
     12 CA          4.9090   39.5540    7.5850 C.3       9 GLL5        0.0000 
     13 CA          2.5310   37.8230    4.8370 C.3       6 GLP5        0.0000 
     14 CA          3.0895   40.5090    7.6265 C.3       3 GLC5        0.0000 
     15 CA          1.2700   41.4640    7.6680 C.3       6 GLP5        0.0000 
     16 CA          8.9020   38.7665    7.4775 C.3       3 GLC5        0.0000 
     17 CA          7.1710   39.9990    8.0230 C.3       9 GLL5        0.0000 
     18 CA         10.6330   37.5340    6.9320 C.3       6 GLP5        0.0000 
     19 CA         10.2560   34.3920   12.1330 C.3       3 GLC5        0.0000 
     20 CA          9.1260   34.8060   13.2690 C.3       9 GLL5        0.0000 
     21 CA         11.3860   33.9780   10.9970 C.3       6 GLP5        0.0000 
     22 CA          8.3615   33.0675   13.3265 C.3       3 GLC5        0.0000 
     23 CA          7.5970   31.3290   13.3840 C.3       6 GLP5        0.0000 
     24 CA          5.8595   41.9625    0.8505 C.3       3 GLC5        0.0000 
     25 CA          6.6560   43.9040    0.7890 C.3       9 GLL5        0.0000 
     26 CA          5.0630   40.0210    0.9120 C.3       6 GLP5        0.0000 
     27 CA          4.5245   43.3075    1.0825 C.3       3 GLC5        0.0000 
     28 CA          2.3930   42.7110    1.3760 C.3       6 GLP5        0.0000 
     29 CA         10.2090   42.4865    2.2080 C.3       3 GLC5        0.0000 
     30 CA         10.9060   44.3900    2.5140 C.3       9 GLL5        0.0000 
     31 CA          9.5120   40.5830    1.9020 C.3       6 GLP5        0.0000 
     32 CA          7.6795   44.8650    7.8990 C.3       3 GLC5        0.0000 
     33 CA          9.6190   44.7170    6.8690 C.3       9 GLL5        0.0000 
     34 CA          5.7400   45.0130    8.9290 C.3       6 GLP5        0.0000 
     35 CA          9.9890   41.9450    4.3670 C.3       3 GLC5        0.0000 
     36 CA          9.0280   43.8810    4.8390 C.3       9 GLL5        0.0000 
     37 CA         10.9500   40.0090    3.8950 C.3       6 GLP5        0.0000 
     38 N           3.6685   40.2710    5.7975 N.am      2 SEC2        0.0000 
     39 N           4.9060   40.3280    6.5070 N.am      8 SEL2        0.0000 
     40 N           2.4310   40.2140    5.0880 N.am      5 SEP2        0.0000 
     41 CA         10.0525   39.1040    7.7410 C.3       3 GLC5        0.0000 
     42 CA          9.4720   40.6740    8.5500 C.3       9 GLL5        0.0000 
     43 CA          7.3130   36.9700    7.8580 C.3       3 GLC5        0.0000 
     44 CA          8.1300   37.5310    9.5890 C.3       9 GLL5        0.0000 
     45 CA          6.4960   36.4090    6.1270 C.3       6 GLP5        0.0000 
     46 N          10.0675   36.4320   14.9540 N.am      2 SEC2        0.0000 
     47 N           9.9200   37.0510   13.7630 N.am      8 SEL2        0.0000 
     48 N          10.2150   35.8130   16.1450 N.am      5 SEP2        0.0000 
     49 CA         11.1410   36.8880   12.0610 C.3       3 GLC5        0.0000 
     50 CA          9.3490   38.2030   11.8960 C.3       9 GLL5        0.0000 
     51 CA         12.9330   35.5730   12.2260 C.3       6 GLP5        0.0000 
     52 CA          8.1045   40.9513    4.3470 C.3       3 GLC5        0.0000 
     53 CA          7.0160   42.6060    4.5910 C.3       9 GLL5        0.0000 
     54 CA          6.6045   44.4763    4.7710 C.3       3 GLC5        0.0000 
     55 CA          5.6560   46.1420    4.5680 C.3       6 GLP5        0.0000 
     56 CA          4.2205   38.8990    9.6190 C.3       3 GLC5        0.0000 
     57 CA          6.0050   39.3540    8.3730 C.3       9 GLL5        0.0000 
     58 CA          2.9840   38.3440   11.2590 C.3       6 GLP5        0.0000 
     59 CA          5.2735   37.5630    8.7825 C.3       3 GLC5        0.0000 
     60 CA          5.0900   35.6720    9.5860 C.3       6 GLP5        0.0000 
     61 CA          6.4050   38.0678    7.0640 C.3       3 GLC5        0.0000 
     62 CA          5.6635   41.1578    8.5460 C.3       3 GLC5        0.0000 
     63 CA          9.4845   37.8585    8.3117 C.3       3 GLC5        0.0000 
     64 CA          8.5420   38.8350    9.7940 C.3       9 GLL5        0.0000 
     65 CA         10.3872   37.1870   10.0258 C.3       3 GLC5        0.0000 
     66 CA          8.3160   36.5390   10.5290 C.3       9 GLL5        0.0000 
     67 CA         12.1470   37.6560    8.9320 C.3       6 GLP5        0.0000 
     68 CA         10.0068   35.3480   11.0583 C.3       3 GLC5        0.0000 
     69 CA         10.7027   38.1793   10.1830 C.3       3 GLC5        0.0000 
     70 CA          7.3113   45.1265    4.3810 C.3       3 GLC5        0.0000 
     71 CA          8.9050   44.3410    3.5490 C.3       9 GLL5        0.0000 
     72 CA          6.6565   36.3535    9.8225 C.3       3 GLC5        0.0000 
     73 CA          8.5725   42.0944    2.5669 C.3       3 GLC5        0.0000 
     74 CA          6.8950   43.0730    3.2980 C.3       9 GLL5        0.0000 
     75 CA          6.5110   44.8233    3.8040 C.3       3 GLC5        0.0000 
     76 CA          7.8370   43.9360    2.7820 C.3       9 GLL5        0.0000 
@<TRIPOS>BOND
@<TRIPOS>SUBSTRUCTURE
     1 ALC1        1 GROUP        1 X    ALC  0     ROOT ALC X 1
     2 SEC2       38 GROUP        1 X    SEC  0     **** SEC X 2
     3 GLC5        4 GROUP        1 X    GLC  0     **** GLC X 6
     4 ALP1        3 GROUP        1 Y    ALP  0     ROOT ALP Y 8
     5 SEP2       40 GROUP        1 Y    SEP  0     **** SEP Y 9
     6 GLP5        6 GROUP        1 Y    GLP  0     **** GLP Y 13
     7 ALL1        2 GROUP        1 Z    ALL  0     ROOT ALL Z 15
     8 SEL2       39 GROUP        1 Z    SEL  0     **** SEL Z 16
     9 GLL5        5 GROUP        1 Z    GLL  0     **** GLL Z 20
@<TRIPOS>SET

