#    Name: 3cjg_KIM_1_ligand
#    Modification time : Mon Mar 24 21:42:42 2014

@<TRIPOS>MOLECULE
3cjg_KIM_1_ligand
   55    58     1     0     0
SMALL
NO_CHARGES


@<TRIPOS>ATOM
      1 N1          6.0200   41.7280    5.0700 N.pl3     1 KIM1167     0.0000 
      2 N3          7.1920   40.7770    6.9400 N.ar      1 KIM1167     0.0000 
      3 C4          7.0160   42.6060    4.5910 C.ar      1 KIM1167     0.0000 
      4 C5          6.0660   40.9220    6.2230 C.ar      1 KIM1167     0.0000 
      5 C6          4.9090   39.5540    7.5850 C.ar      1 KIM1167     0.0000 
      6 C7          6.0050   39.3540    8.3730 C.ar      1 KIM1167     0.0000 
      7 C8          7.1710   39.9990    8.0230 C.ar      1 KIM1167     0.0000 
      8 C10         8.5420   38.8350    9.7940 C.ar      1 KIM1167     0.0000 
      9 C13         8.9390   36.8970   11.7100 C.ar      1 KIM1167     0.0000 
     10 C15         9.1260   34.8060   13.2690 C.3       1 KIM1167     0.0000 
     11 C17         9.1680   39.2020   10.9720 C.ar      1 KIM1167     0.0000 
     12 C20         6.6560   43.9040    0.7890 C.3       1 KIM1167     0.0000 
     13 C21         8.9050   44.3410    3.5490 C.ar      1 KIM1167     0.0000 
     14 C22        10.9060   44.3900    2.5140 C.3       1 KIM1167     0.0000 
     15 C1          9.6190   44.7170    6.8690 C.3       1 KIM1167     0.0000 
     16 O1         10.1100   44.2850    5.6000 O.3       1 KIM1167     0.0000 
     17 C2          9.0280   43.8810    4.8390 C.ar      1 KIM1167     0.0000 
     18 C3          8.0900   43.0150    5.3570 C.ar      1 KIM1167     0.0000 
     19 N2          4.9060   40.3280    6.5070 N.ar      1 KIM1167     0.0000 
     20 N4          8.3270   39.8160    8.8150 N.pl3     1 KIM1167     0.0000 
     21 C9          9.4720   40.6740    8.5500 C.3       1 KIM1167     0.0000 
     22 C11         8.1300   37.5310    9.5890 C.ar      1 KIM1167     0.0000 
     23 C12         8.3160   36.5390   10.5290 C.ar      1 KIM1167     0.0000 
     24 C14         9.3180   36.2230   12.9050 C.2       1 KIM1167     0.0000 
     25 N5          9.9200   37.0510   13.7630 N.2       1 KIM1167     0.0000 
     26 N6          9.9280   38.2370   13.1340 N.pl3     1 KIM1167     0.0000 
     27 C16         9.3490   38.2030   11.8960 C.ar      1 KIM1167     0.0000 
     28 C18         6.8950   43.0730    3.2980 C.ar      1 KIM1167     0.0000 
     29 C19         7.8370   43.9360    2.7820 C.ar      1 KIM1167     0.0000 
     30 O2          7.7710   44.4330    1.4910 O.3       1 KIM1167     0.0000 
     31 O3          9.8580   45.2110    3.0320 O.3       1 KIM1167     0.0000 
     32 H           5.1186   41.6688    4.4827 H         1 KIM1167     0.0000 
     33 H           4.0079   39.0511    7.8653 H         1 KIM1167     0.0000 
     34 H           5.9687   38.7501    9.1927 H         1 KIM1167     0.0000 
     35 H           9.4707   40.1466   11.1367 H         1 KIM1167     0.0000 
     36 H           8.1896   42.6675    6.3271 H         1 KIM1167     0.0000 
     37 H           7.6584   37.2887    8.6840 H         1 KIM1167     0.0000 
     38 H           8.0099   35.5888   10.3626 H         1 KIM1167     0.0000 
     39 H          10.3157   39.0699   13.5214 H         1 KIM1167     0.0000 
     40 H           6.0951   42.7740    2.7159 H         1 KIM1167     0.0000 
     41 H           9.5822   34.1920   12.6249 H         1 KIM1167     0.0000 
     42 H           9.4923   34.6029   14.1771 H         1 KIM1167     0.0000 
     43 H           8.1586   34.5532   13.2799 H         1 KIM1167     0.0000 
     44 H           6.6040   44.2567   -0.1453 H         1 KIM1167     0.0000 
     45 H           6.6970   42.9070    0.7240 H         1 KIM1167     0.0000 
     46 H           5.7920   44.1332    1.2374 H         1 KIM1167     0.0000 
     47 H          11.6441   44.9360    2.1176 H         1 KIM1167     0.0000 
     48 H          11.3144   43.8169    3.2244 H         1 KIM1167     0.0000 
     49 H          10.5769   43.7767    1.7959 H         1 KIM1167     0.0000 
     50 H          10.3579   45.0275    7.4670 H         1 KIM1167     0.0000 
     51 H           8.9757   45.4773    6.7791 H         1 KIM1167     0.0000 
     52 H           9.1402   43.9834    7.3513 H         1 KIM1167     0.0000 
     53 H          10.2369   40.4721    9.1617 H         1 KIM1167     0.0000 
     54 H           9.8084   40.5660    7.6145 H         1 KIM1167     0.0000 
     55 H           9.2474   41.6409    8.6709 H         1 KIM1167     0.0000 
@<TRIPOS>BOND
     1    3    1 1    
     2    4    1 1    
     3   32    1 1    
     4    4    2 ar   
     5    7    2 ar   
     6   18    3 ar   
     7   28    3 ar   
     8   19    4 ar   
     9    6    5 ar   
    10   19    5 ar   
    11   33    5 1    
    12    7    6 ar   
    13   34    6 1    
    14   20    7 1    
    15   11    8 ar   
    16   20    8 1    
    17   22    8 ar   
    18   23    9 ar   
    19   24    9 1    
    20   27    9 ar   
    21   24   10 1    
    22   41   10 1    
    23   42   10 1    
    24   43   10 1    
    25   27   11 ar   
    26   35   11 1    
    27   30   12 1    
    28   44   12 1    
    29   45   12 1    
    30   46   12 1    
    31   17   13 ar   
    32   29   13 ar   
    33   31   13 1    
    34   31   14 1    
    35   47   14 1    
    36   48   14 1    
    37   49   14 1    
    38   16   15 1    
    39   50   15 1    
    40   51   15 1    
    41   52   15 1    
    42   17   16 1    
    43   18   17 ar   
    44   36   18 1    
    45   21   20 1    
    46   53   21 1    
    47   54   21 1    
    48   55   21 1    
    49   23   22 ar   
    50   37   22 1    
    51   38   23 1    
    52   25   24 2    
    53   26   25 1    
    54   27   26 1    
    55   39   26 1    
    56   29   28 ar   
    57   40   28 1    
    58   30   29 1    
@<TRIPOS>SUBSTRUCTURE
     1 KIM1167     1 GROUP   
@<TRIPOS>SET

