#    Name: 3ekx_1UN_1_INTS_M
#    Modification time : Tue Mar 25 02:03:12 2014

@<TRIPOS>MOLECULE
3ekx_1UN_1_INTS_M
   99     0     9     0     0
SMALL
NO_CHARGES


@<TRIPOS>ATOM
      1 CA         15.8415   25.3775   10.2650 C.3       3 GLC5        0.0000 
      2 CA         17.5420   26.7500   10.3450 C.3       9 GLL5        0.0000 
      3 CA         14.1410   24.0050   10.1850 C.3       6 GLP5        0.0000 
      4 CA         18.5435   29.1560    9.4045 C.3       3 GLC5        0.0000 
      5 CA         16.8880   28.0990   10.0830 C.3       9 GLL5        0.0000 
      6 CA         20.1990   30.2130    8.7260 C.3       6 GLP5        0.0000 
      7 CA         16.9495   30.1245    9.7230 C.3       3 GLC5        0.0000 
      8 CA         17.0110   32.1500    9.3630 C.3       6 GLP5        0.0000 
      9 CA         14.9075   28.5055    9.5705 C.3       3 GLC5        0.0000 
     10 CA         16.1660   28.5860   11.3310 C.3       9 GLL5        0.0000 
     11 CA         13.6490   28.4250    7.8100 C.3       6 GLP5        0.0000 
     12 CA         21.7680   26.3475   13.8915 C.3       3 GLC5        0.0000 
     13 CA         20.4650   27.6440   12.6890 C.3       9 GLL5        0.0000 
     14 CA         23.0710   25.0510   15.0940 C.3       6 GLP5        0.0000 
     15 CA         19.9310   28.8965   10.0565 C.3       3 GLC5        0.0000 
     16 CA         19.6630   27.5800   11.3870 C.3       9 GLL5        0.0000 
     17 CA         16.6100   27.3130   14.3735 C.3       3 GLC5        0.0000 
     18 CA         18.5190   27.5190   14.0440 C.3       9 GLL5        0.0000 
     19 CA         14.7010   27.1070   14.7030 C.3       6 GLP5        0.0000 
     20 CA         19.1850   26.1585   15.5860 C.3       3 GLC5        0.0000 
     21 CA         19.8510   24.7980   17.1280 C.3       6 GLP5        0.0000 
     22 CA         24.5585   30.6185   12.0515 C.3       3 GLC5        0.0000 
     23 CA         24.6920   28.7540   12.7890 C.3       9 GLL5        0.0000 
     24 CA         24.4250   32.4830   11.3140 C.3       6 GLP5        0.0000 
     25 CA         26.6290   28.7360   12.3095 C.3       3 GLC5        0.0000 
     26 CA         28.5660   28.7180   11.8300 C.3       6 GLP5        0.0000 
     27 CA         25.3775   30.1500   14.0665 C.3       3 GLC5        0.0000 
     28 CA         26.0630   31.5460   15.3440 C.3       6 GLP5        0.0000 
     29 CA         24.0040   30.4820    9.5975 C.3       3 GLC5        0.0000 
     30 CA         23.9610   28.6780   10.3500 C.3       9 GLL5        0.0000 
     31 CA         24.0470   32.2860    8.8450 C.3       6 GLP5        0.0000 
     32 CA         25.6270   28.7195    9.4980 C.3       3 GLC5        0.0000 
     33 CA         27.2930   28.7610    8.6460 C.3       6 GLP5        0.0000 
     34 CA         22.0800   29.4455    9.5380 C.3       3 GLC5        0.0000 
     35 CA         26.4140   25.4185   11.3825 C.3       3 GLC5        0.0000 
     36 CA         24.8630   26.6300   11.4480 C.3       9 GLL5        0.0000 
     37 CA         27.9650   24.2070   11.3170 C.3       6 GLP5        0.0000 
     38 CA         26.7145   27.6740   11.6390 C.3       3 GLC5        0.0000 
     39 CA         26.0780   27.6955   10.0470 C.3       3 GLC5        0.0000 
     40 CA         20.1390   26.5735   16.0555 C.3       3 GLC5        0.0000 
     41 CA         20.4270   28.3490   14.9830 C.3       9 GLL5        0.0000 
     42 CA         21.7490   26.7000   15.0385 C.3       3 GLC5        0.0000 
     43 N          19.5890   28.3665   17.9710 N.am      2 SEC2        0.0000 
     44 N          20.2180   29.1920   17.1330 N.am      8 SEL2        0.0000 
     45 N          18.9600   27.5410   18.8090 N.am      5 SEP2        0.0000 
     46 O          21.6065   28.9200   17.3085 O.2       1 ALC1        0.0000 
     47 O          20.2180   29.1920   17.1330 O.2       7 ALL1        0.0000 
     48 O          22.9950   28.6480   17.4840 O.2       4 ALP1        0.0000 
     49 O          20.0710   31.9205   17.7295 O.2       1 ALC1        0.0000 
     50 O          19.8830   31.9160   16.0470 O.2       7 ALL1        0.0000 
     51 O          20.2590   31.9250   19.4120 O.2       4 ALP1        0.0000 
     52 CA         14.2385   34.8220   18.5105 C.3       3 GLC5        0.0000 
     53 CA         16.1010   34.5470   17.3310 C.3       9 GLL5        0.0000 
     54 CA         12.3760   35.0970   19.6900 C.3       6 GLP5        0.0000 
     55 O          14.3485   35.7210   18.3095 O.2       1 ALC1        0.0000 
     56 O          14.7860   34.5830   17.4030 O.2       7 ALL1        0.0000 
     57 O          13.9110   36.8590   19.2160 O.2       4 ALP1        0.0000 
     58 CA         13.8460   32.7480   15.6840 C.3       3 GLC5        0.0000 
     59 CA         15.7930   32.6670   15.5910 C.3       9 GLL5        0.0000 
     60 CA         11.8990   32.8290   15.7770 C.3       6 GLP5        0.0000 
     61 CA         15.0800   32.6495   13.8920 C.3       3 GLC5        0.0000 
     62 CA         14.3670   32.6320   12.1930 C.3       6 GLP5        0.0000 
     63 CA         23.5960   32.4055   13.0575 C.3       3 GLC5        0.0000 
     64 CA         22.7670   32.3280   14.8010 C.3       9 GLL5        0.0000 
     65 CA         23.3605   32.8320   18.7620 C.3       3 GLC5        0.0000 
     66 CA         22.7350   33.8470   17.0370 C.3       9 GLL5        0.0000 
     67 CA         23.9860   31.8170   20.4870 C.3       6 GLP5        0.0000 
     68 CA         17.3938   25.7145   14.3102 C.3       3 GLC5        0.0000 
     69 CA         16.7020   23.9450   15.1990 C.3       6 GLP5        0.0000 
     70 CA         15.8215   27.3023    8.8390 C.3       3 GLC5        0.0000 
     71 CA         14.4280   27.1800    7.4640 C.3       6 GLP5        0.0000 
     72 CA         15.7390   27.7356   13.3459 C.3       3 GLC5        0.0000 
     73 CA         15.8405   30.4350   11.4147 C.3       3 GLC5        0.0000 
     74 CA         17.1240   28.8360   12.4940 C.3       9 GLL5        0.0000 
     75 CA         15.0360   32.1590   10.9170 C.3       6 GLP5        0.0000 
     76 CA         24.3656   26.7925   13.6435 C.3       3 GLC5        0.0000 
     77 CA         24.0630   27.9180   11.6750 C.3       9 GLL5        0.0000 
     78 CA         24.1110   26.1020   15.4470 C.3       6 GLP5        0.0000 
     79 CA         24.2417   31.6065   15.3095 C.3       3 GLC5        0.0000 
     80 CA         22.0740   31.0060   15.7490 C.3       9 GLL5        0.0000 
     81 CA         18.0225   32.7903   18.2915 C.3       3 GLC5        0.0000 
     82 CA         18.9000   34.4270   17.1640 C.3       9 GLL5        0.0000 
     83 CA         17.5100   31.5920   19.8210 C.3       6 GLP5        0.0000 
     84 CA         17.5493   33.4767   18.9420 C.3       3 GLC5        0.0000 
     85 CA         18.2810   35.3300   18.0260 C.3       9 GLL5        0.0000 
     86 CA         17.0772   35.6047   20.0590 C.3       3 GLC5        0.0000 
     87 CA         16.8960   35.3930   18.1000 C.3       9 GLL5        0.0000 
     88 CA         16.5660   35.8480   22.0550 C.3       6 GLP5        0.0000 
     89 CA         16.2484   32.1106   17.6614 C.3       3 GLC5        0.0000 
     90 CA         16.4010   30.8610   19.0930 C.3       6 GLP5        0.0000 
     91 CA         24.3783   32.6815   15.8435 C.3       3 GLC5        0.0000 
     92 CA         21.1565   35.3870   13.7720 C.3       3 GLC5        0.0000 
     93 CA         22.4720   34.9430   14.9010 C.3       9 GLL5        0.0000 
     94 CA         19.8970   35.2190   12.3230 C.3       6 GLP5        0.0000 
     95 CA         23.6278   36.9002   15.0525 C.3       3 GLC5        0.0000 
     96 CA         24.8230   37.9040   14.0320 C.3       6 GLP5        0.0000 
     97 CA         24.3073   36.2020   18.0723 C.3       3 GLC5        0.0000 
     98 CA         22.4490   36.2380   16.9250 C.3       9 GLL5        0.0000 
     99 CA         26.0730   36.7450   18.8470 C.3       6 GLP5        0.0000 
@<TRIPOS>BOND
@<TRIPOS>SUBSTRUCTURE
     1 ALC1       46 GROUP        1 X    ALC  0     ROOT ALC X 1
     2 SEC2       43 GROUP        1 X    SEC  0     **** SEC X 2
     3 GLC5        1 GROUP        1 X    GLC  0     **** GLC X 6
     4 ALP1       48 GROUP        1 Y    ALP  0     ROOT ALP Y 8
     5 SEP2       45 GROUP        1 Y    SEP  0     **** SEP Y 9
     6 GLP5        3 GROUP        1 Y    GLP  0     **** GLP Y 13
     7 ALL1       47 GROUP        1 Z    ALL  0     ROOT ALL Z 15
     8 SEL2       44 GROUP        1 Z    SEL  0     **** SEL Z 16
     9 GLL5        2 GROUP        1 Z    GLL  0     **** GLL Z 20
@<TRIPOS>SET

