#    Name: 3ekx_1UN_1_ligand
#    Modification time : Tue Mar 25 02:03:12 2014

@<TRIPOS>MOLECULE
3ekx_1UN_1_ligand
   86    89     1     0     0
SMALL
NO_CHARGES


@<TRIPOS>ATOM
      1 C1         17.6520   27.4490   12.7990 C.3       1 1UN201      0.0000 
      2 C2         18.3740   26.8110   11.6210 C.3       1 1UN201      0.0000 
      3 C3         17.5420   26.7500   10.3450 C.3       1 1UN201      0.0000 
      4 C4         16.8880   28.0990   10.0830 C.3       1 1UN201      0.0000 
      5 C5         16.1660   28.5860   11.3310 C.3       1 1UN201      0.0000 
      6 C6         17.1240   28.8360   12.4940 C.3       1 1UN201      0.0000 
      7 N7         19.7000   28.3220   13.7270 N.4       1 1UN201      0.0000 
      8 C8         20.4650   27.6440   12.6890 C.3       1 1UN201      0.0000 
      9 C9         19.6630   27.5800   11.3870 C.3       1 1UN201      0.0000 
     10 C10        18.5190   27.5190   14.0440 C.3       1 1UN201      0.0000 
     11 C11        21.7100   28.3770   12.3210 C.2       1 1UN201      0.0000 
     12 N12        22.7420   27.5550   12.1370 N.am      1 1UN201      0.0000 
     13 C13        24.0630   27.9180   11.6750 C.3       1 1UN201      0.0000 
     14 C14        24.6920   28.7540   12.7890 C.3       1 1UN201      0.0000 
     15 C15        23.9610   28.6780   10.3500 C.3       1 1UN201      0.0000 
     16 C16        24.8630   26.6300   11.4480 C.3       1 1UN201      0.0000 
     17 O17        21.6810   29.5930   12.1850 O.2       1 1UN201      0.0000 
     18 C18        20.4270   28.3490   14.9830 C.3       1 1UN201      0.0000 
     19 C19        19.9360   29.5350   15.7930 C.3       1 1UN201      0.0000 
     20 C20        20.5990   30.8460   15.3910 C.3       1 1UN201      0.0000 
     21 O21        20.2180   29.1920   17.1330 O.3       1 1UN201      0.0000 
     22 N22        19.8830   31.9160   16.0470 N.am      1 1UN201      0.0000 
     23 C23        22.0740   31.0060   15.7490 C.3       1 1UN201      0.0000 
     24 C24        18.8960   32.5950   15.4700 C.2       1 1UN201      0.0000 
     25 O25        18.5620   32.4850   14.3050 O.2       1 1UN201      0.0000 
     26 C29        18.1700   33.5500   16.3600 C.ar      1 1UN201      0.0000 
     27 C30        18.9000   34.4270   17.1640 C.ar      1 1UN201      0.0000 
     28 C31        18.2810   35.3300   18.0260 C.ar      1 1UN201      0.0000 
     29 C32        16.8960   35.3930   18.1000 C.ar      1 1UN201      0.0000 
     30 C33        16.1010   34.5470   17.3310 C.ar      1 1UN201      0.0000 
     31 C34        16.6960   33.5600   16.4060 C.ar      1 1UN201      0.0000 
     32 O38        14.7860   34.5830   17.4030 O.3       1 1UN201      0.0000 
     33 C39        15.7930   32.6670   15.5910 C.3       1 1UN201      0.0000 
     34 S74        22.7670   32.3280   14.8010 S.3       1 1UN201      0.0000 
     35 C77        22.6520   33.7870   15.6490 C.ar      1 1UN201      0.0000 
     36 C78        22.4720   34.9430   14.9010 C.ar      1 1UN201      0.0000 
     37 C79        22.3600   36.1670   15.5410 C.ar      1 1UN201      0.0000 
     38 C80        22.4490   36.2380   16.9250 C.ar      1 1UN201      0.0000 
     39 C81        22.6340   35.0800   17.6700 C.ar      1 1UN201      0.0000 
     40 C82        22.7350   33.8470   17.0370 C.ar      1 1UN201      0.0000 
     41 H          16.7802   26.8152   13.0493 H         1 1UN201      0.0000 
     42 H          18.6521   25.7920   11.9068 H         1 1UN201      0.0000 
     43 H          16.7727   25.9904   10.4534 H         1 1UN201      0.0000 
     44 H          18.1853   26.4917    9.5083 H         1 1UN201      0.0000 
     45 H          16.1741   28.0015    9.2682 H         1 1UN201      0.0000 
     46 H          17.6512   28.8215    9.8028 H         1 1UN201      0.0000 
     47 H          15.4240   27.8387   11.6338 H         1 1UN201      0.0000 
     48 H          15.6336   29.5156   11.1007 H         1 1UN201      0.0000 
     49 H          17.9131   29.4655   12.1767 H         1 1UN201      0.0000 
     50 H          16.5864   29.2127   13.3239 H         1 1UN201      0.0000 
     51 H          19.4076   29.2921   13.4406 H         1 1UN201      0.0000 
     52 H          20.7145   26.6400   12.9616 H         1 1UN201      0.0000 
     53 H          19.4320   28.5878   11.0611 H         1 1UN201      0.0000 
     54 H          20.2539   27.0786   10.6290 H         1 1UN201      0.0000 
     55 H          18.8002   26.5103   14.3296 H         1 1UN201      0.0000 
     56 H          17.9434   27.9736   14.8441 H         1 1UN201      0.0000 
     57 H          22.6237   26.5039   12.3414 H         1 1UN201      0.0000 
     58 H          21.4964   28.4631   14.8165 H         1 1UN201      0.0000 
     59 H          20.2529   27.4417   15.5583 H         1 1UN201      0.0000 
     60 H          18.8669   29.6142   15.6389 H         1 1UN201      0.0000 
     61 H          20.4923   30.9721   14.3120 H         1 1UN201      0.0000 
     62 H          20.1939   32.1328   17.0303 H         1 1UN201      0.0000 
     63 H          22.6633   30.1672   15.4735 H         1 1UN201      0.0000 
     64 H          22.2284   31.3130   16.7533 H         1 1UN201      0.0000 
     65 H          19.9404   34.4049   17.1174 H         1 1UN201      0.0000 
     66 H          18.8564   35.9537   18.6110 H         1 1UN201      0.0000 
     67 H          16.4474   36.0762   18.7336 H         1 1UN201      0.0000 
     68 H          22.4221   34.8896   13.8756 H         1 1UN201      0.0000 
     69 H          22.2108   37.0247   14.9915 H         1 1UN201      0.0000 
     70 H          22.3779   37.1484   17.3992 H         1 1UN201      0.0000 
     71 H          22.6967   35.1355   18.6975 H         1 1UN201      0.0000 
     72 H          22.8688   32.9931   17.5839 H         1 1UN201      0.0000 
     73 H          25.6178   29.0499   12.5537 H         1 1UN201      0.0000 
     74 H          24.1601   29.5791   12.9796 H         1 1UN201      0.0000 
     75 H          24.7567   28.2425   13.6458 H         1 1UN201      0.0000 
     76 H          24.8610   28.9420   10.0031 H         1 1UN201      0.0000 
     77 H          23.5227   28.1280    9.6391 H         1 1UN201      0.0000 
     78 H          23.4252   29.5171   10.4435 H         1 1UN201      0.0000 
     79 H          25.7891   26.8205   11.1225 H         1 1UN201      0.0000 
     80 H          24.9519   26.0951   12.2882 H         1 1UN201      0.0000 
     81 H          24.4293   26.0384   10.7684 H         1 1UN201      0.0000 
     82 H          15.9274   32.7997   14.6090 H         1 1UN201      0.0000 
     83 H          15.9578   31.6992   15.7812 H         1 1UN201      0.0000 
     84 H          14.8271   32.8427   15.7810 H         1 1UN201      0.0000 
     85 H          21.2143   29.2368   17.2073 H         1 1UN201      0.0000 
     86 H          14.5815   35.3417   18.0215 H         1 1UN201      0.0000 
@<TRIPOS>BOND
     1    2    1 1    
     2    6    1 1    
     3   10    1 1    
     4   41    1 1    
     5    3    2 1    
     6    9    2 1    
     7   42    2 1    
     8    4    3 1    
     9   43    3 1    
    10   44    3 1    
    11    5    4 1    
    12   45    4 1    
    13   46    4 1    
    14    6    5 1    
    15   47    5 1    
    16   48    5 1    
    17   49    6 1    
    18   50    6 1    
    19    8    7 1    
    20   10    7 1    
    21   18    7 1    
    22   51    7 1    
    23    9    8 1    
    24   11    8 1    
    25   52    8 1    
    26   53    9 1    
    27   54    9 1    
    28   55   10 1    
    29   56   10 1    
    30   12   11 am   
    31   17   11 2    
    32   13   12 1    
    33   57   12 1    
    34   14   13 1    
    35   15   13 1    
    36   16   13 1    
    37   73   14 1    
    38   74   14 1    
    39   75   14 1    
    40   76   15 1    
    41   77   15 1    
    42   78   15 1    
    43   79   16 1    
    44   80   16 1    
    45   81   16 1    
    46   19   18 1    
    47   58   18 1    
    48   59   18 1    
    49   20   19 1    
    50   21   19 1    
    51   60   19 1    
    52   22   20 1    
    53   23   20 1    
    54   61   20 1    
    55   85   21 1    
    56   24   22 am   
    57   62   22 1    
    58   34   23 1    
    59   63   23 1    
    60   64   23 1    
    61   25   24 2    
    62   26   24 1    
    63   27   26 ar   
    64   31   26 ar   
    65   28   27 ar   
    66   65   27 1    
    67   29   28 ar   
    68   66   28 1    
    69   30   29 ar   
    70   67   29 1    
    71   31   30 ar   
    72   32   30 1    
    73   33   31 1    
    74   86   32 1    
    75   82   33 1    
    76   83   33 1    
    77   84   33 1    
    78   35   34 1    
    79   36   35 ar   
    80   40   35 ar   
    81   37   36 ar   
    82   68   36 1    
    83   38   37 ar   
    84   69   37 1    
    85   39   38 ar   
    86   70   38 1    
    87   40   39 ar   
    88   71   39 1    
    89   72   40 1    
@<TRIPOS>SUBSTRUCTURE
     1 1UN201      1 GROUP   
@<TRIPOS>SET

