#    Name: 4L0B_1_CAVITY_N1_6.mol2
#    Modification time : Tue Mar 11 12:33:56 2014

@<TRIPOS>MOLECULE
4L0B_1_CAVITY_N1_6.mol2
   74     0     6     0     0
SMALL
NO_CHARGES


@<TRIPOS>ATOM
      1 O           7.8416   11.1719  -14.4274 O.2       2 ALA2        0.0000 
      2 OG          7.2365   12.6874  -15.7828 O.2       1 SER1        0.0000 
      3 N           6.5666   11.5079  -15.1425 N.2       2 ALA2        0.0000 
      4 CA          5.9614   13.0233  -16.4979 C.3       5 GLY6        0.0000 
      5 O           5.2915   11.8438  -15.8577 O.2       2 ALA2        0.0000 
      6 CA          7.8130   12.9867   -4.0854 C.3       5 GLY6        0.0000 
      7 DU          7.1431   11.8071   -3.4452 H         6 CUB7        0.0000 
      8 CA          5.8681   12.1431   -4.1603 C.3       5 GLY6        0.0000 
      9 DU          5.1982   10.9635   -3.5201 H         6 CUB7        0.0000 
     10 CA          4.5931   12.4790   -4.8755 C.3       5 GLY6        0.0000 
     11 N           3.9232   11.2994   -4.2352 N.2       2 ALA2        0.0000 
     12 CZ         10.1122   10.2717   -3.1675 C.ar      4 PHE5        0.0000 
     13 CA          9.5070   11.7872   -4.5229 C.3       5 GLY6        0.0000 
     14 CZ          8.8372   10.6076   -3.8827 C.ar      4 PHE5        0.0000 
     15 CA          8.2320   12.1231   -5.2381 C.3       5 GLY6        0.0000 
     16 CZ          7.5621   10.9435   -4.5978 C.ar      4 PHE5        0.0000 
     17 CZ          6.8923    9.7640   -3.9576 C.ar      4 PHE5        0.0000 
     18 CA          6.9570   12.4590   -5.9532 C.3       5 GLY6        0.0000 
     19 CA          6.2871   11.2795   -5.3130 C.3       5 GLY6        0.0000 
     20 N           5.6172   10.0999   -4.6727 N.2       2 ALA2        0.0000 
     21 N           4.9473    8.9204   -4.0325 N.2       2 ALA2        0.0000 
     22 CA          5.6819   12.7949   -6.6684 C.3       5 GLY6        0.0000 
     23 N           5.0121   11.6154   -6.0282 N.2       2 ALA2        0.0000 
     24 CZ          9.2562    9.7440   -5.0354 C.ar      4 PHE5        0.0000 
     25 CA          9.3209   12.4390   -7.0310 C.3       5 GLY6        0.0000 
     26 CA          8.6510   11.2595   -6.3908 C.3       5 GLY6        0.0000 
     27 CZ          7.9811   10.0799   -5.7505 C.ar      4 PHE5        0.0000 
     28 CA          8.0458   12.7750   -7.7462 C.3       5 GLY6        0.0000 
     29 CA          7.3760   11.5954   -7.1059 C.3       5 GLY6        0.0000 
     30 DU          6.7061   10.4159   -6.4657 H         6 CUB7        0.0000 
     31 N           6.0362    9.2363   -5.8254 N.2       2 ALA2        0.0000 
     32 CZ          6.7708   13.1109   -8.4613 C.ar      4 PHE5        0.0000 
     33 CA          6.1009   11.9313   -7.8211 C.3       5 GLY6        0.0000 
     34 N           5.4310   10.7518   -7.1808 N.2       2 ALA2        0.0000 
     35 CZ          5.4958   13.4468   -9.1765 C.ar      4 PHE5        0.0000 
     36 CA          4.8259   12.2673   -8.5362 C.3       5 GLY6        0.0000 
     37 CZ          3.0104   16.8137  -12.6024 C.ar      4 PHE5        0.0000 
     38 CA          9.0700   10.3959   -7.5434 C.3       5 GLY6        0.0000 
     39 OG          8.4001    9.2163   -6.9032 O.2       1 SER1        0.0000 
     40 CZ          8.4648   11.9114   -8.8988 C.ar      4 PHE5        0.0000 
     41 DU          7.7950   10.7318   -8.2586 H         6 CUB7        0.0000 
     42 OG          7.1251    9.5523   -7.6183 O.2       1 SER1        0.0000 
     43 N           6.4552    8.3727   -6.9781 N.2       2 ALA2        0.0000 
     44 CZ          7.1898   12.2473   -9.6140 C.ar      4 PHE5        0.0000 
     45 DU          6.5199   11.0677   -8.9737 H         6 CUB7        0.0000 
     46 N           5.8500    9.8882   -8.3335 N.2       2 ALA2        0.0000 
     47 CZ          5.9148   12.5832  -10.3291 C.ar      4 PHE5        0.0000 
     48 CA          5.2449   11.4036   -9.6889 C.3       5 GLY6        0.0000 
     49 N           4.5750   10.2241   -9.0486 N.2       2 ALA2        0.0000 
     50 CZ          4.6397   12.9191  -11.0443 C.ar      4 PHE5        0.0000 
     51 OG          4.0993   17.1296  -14.3953 O.2       1 SER1        0.0000 
     52 OG          3.4294   15.9501  -13.7551 O.2       1 SER1        0.0000 
     53 N           7.6088   11.3837  -10.7666 N.2       2 ALA2        0.0000 
     54 N           6.9389   10.2041  -10.1264 N.2       2 ALA2        0.0000 
     55 N           6.2690    9.0246   -9.4861 N.2       2 ALA2        0.0000 
     56 CZ          6.3337   11.7196  -11.4818 C.ar      4 PHE5        0.0000 
     57 DU          5.6639   10.5400  -10.8415 H         6 CUB7        0.0000 
     58 N           4.9940    9.3605  -10.2013 N.2       2 ALA2        0.0000 
     59 CZ          5.7286   13.2351  -12.8372 C.ar      4 PHE5        0.0000 
     60 CA          5.0587   12.0555  -12.1970 C.3       5 GLY6        0.0000 
     61 CA          4.3888   10.8760  -11.5567 C.3       5 GLY6        0.0000 
     62 CZ          5.7933   15.9301  -14.8329 C.ar      4 PHE5        0.0000 
     63 CZ          5.1234   14.7505  -14.1926 C.ar      4 PHE5        0.0000 
     64 CA          4.4536   13.5710  -13.5524 C.3       5 GLY6        0.0000 
     65 NZ          3.8484   15.0865  -14.9078 N.2       3 LYS4        0.0000 
     66 CZ          7.4226   12.0356  -13.2747 C.ar      4 PHE5        0.0000 
     67 N           6.7527   10.8560  -12.6345 N.2       2 ALA2        0.0000 
     68 CZ          6.8175   13.5510  -14.6301 C.ar      4 PHE5        0.0000 
     69 CA          6.1476   12.3715  -13.9899 C.3       5 GLY6        0.0000 
     70 CA          5.4777   11.1919  -13.3496 C.3       5 GLY6        0.0000 
     71 CA          6.2123   15.0665  -15.9855 C.3       5 GLY6        0.0000 
     72 CZ          5.5424   13.8869  -15.3453 C.ar      4 PHE5        0.0000 
     73 CA          4.8725   12.7074  -14.7050 C.3       5 GLY6        0.0000 
     74 NZ          4.2674   14.2229  -16.0604 N.2       3 LYS4        0.0000 
@<TRIPOS>BOND
@<TRIPOS>SUBSTRUCTURE
     1 SER1        2 GROUP   
     2 ALA2        1 GROUP   
     3 LYS4       65 GROUP   
     4 PHE5       12 GROUP   
     5 GLY6        4 GROUP   
     6 CUB7        7 GROUP   
@<TRIPOS>SET

