#    Name: 4l0b_1UT_1_INTS_M
#    Modification time : Mon Apr  7 23:47:26 2014

@<TRIPOS>MOLECULE
4l0b_1UT_1_INTS_M
   52     0     6     0     0
SMALL
NO_CHARGES


@<TRIPOS>ATOM
      1 CA          3.6815   11.6025   -6.7170 C.3       2 GLC5        0.0000 
      2 CA          5.5600   11.4350   -5.5160 C.3       6 GLL5        0.0000 
      3 CA          1.8030   11.7700   -7.9180 C.3       4 GLP5        0.0000 
      4 CA          5.6820   13.3335   -5.3615 C.3       2 GLC5        0.0000 
      5 CA          5.8040   15.2320   -5.2070 C.3       4 GLP5        0.0000 
      6 CA          7.5550    8.2845   -4.8325 C.3       2 GLC5        0.0000 
      7 CA          6.3650    9.0730   -5.9990 C.3       6 GLL5        0.0000 
      8 CA          8.7450    7.4960   -3.6660 C.3       4 GLP5        0.0000 
      9 CA          5.3275    7.3060   -6.4925 C.3       2 GLC5        0.0000 
     10 CA          4.2900    5.5390   -6.9860 C.3       4 GLP5        0.0000 
     11 CA          6.2755   13.5685   -7.3310 C.3       2 GLC5        0.0000 
     12 CA          5.7340   11.8760   -8.3420 C.3       6 GLL5        0.0000 
     13 CA          6.8170   15.2610   -6.3200 C.3       4 GLP5        0.0000 
     14 CA          4.8095   11.4465  -12.9290 C.3       2 GLC5        0.0000 
     15 CA          6.6690   11.6340  -11.9720 C.3       6 GLL5        0.0000 
     16 CA          2.9500   11.2590  -13.8860 C.3       4 GLP5        0.0000 
     17 CA          7.8220   12.9255  -11.8515 C.3       2 GLC5        0.0000 
     18 CA          8.9750   14.2170  -11.7310 C.3       4 GLP5        0.0000 
     19 CA          4.6780   14.5600  -18.0525 C.3       2 GLC5        0.0000 
     20 CA          5.5630   13.6960  -16.3740 C.3       6 GLL5        0.0000 
     21 CA          3.7930   15.4240  -19.7310 C.3       4 GLP5        0.0000 
     22 CA          5.5280   10.9315  -16.8120 C.3       2 GLC5        0.0000 
     23 CA          6.4240   12.6250  -15.9920 C.3       6 GLL5        0.0000 
     24 CA          4.6320    9.2380  -17.6320 C.3       4 GLP5        0.0000 
     25 CA          8.6135   12.5590  -16.2135 C.3       2 GLC5        0.0000 
     26 CA         10.8030   12.4930  -16.4350 C.3       4 GLP5        0.0000 
     27 N           9.3580    9.7925  -14.6775 N.am      1 SEC2        0.0000 
     28 N           8.2550   10.6770  -15.0420 N.am      5 SEL2        0.0000 
     29 N          10.4610    8.9080  -14.3130 N.am      3 SEP2        0.0000 
     30 N           8.8375   10.7580  -16.2710 N.am      1 SEC2        0.0000 
     31 N           9.4200   10.8390  -17.5000 N.am      3 SEP2        0.0000 
     32 CA          7.6090    8.7830  -13.3880 C.3       2 GLC5        0.0000 
     33 CA          7.4300   10.9290  -12.8960 C.3       6 GLL5        0.0000 
     34 CA          7.7880    6.6370  -13.8800 C.3       4 GLP5        0.0000 
     35 CA          8.7260   12.0330  -12.2120 C.3       2 GLC5        0.0000 
     36 CA         10.0220   13.1370  -11.5280 C.3       4 GLP5        0.0000 
     37 CA          4.0620   12.2240   -9.1047 C.3       2 GLC5        0.0000 
     38 CA          5.8800   12.1960   -9.7030 C.3       6 GLL5        0.0000 
     39 CA          2.3170   12.4120   -9.1870 C.3       4 GLP5        0.0000 
     40 CA          8.6683    8.6747   -9.4533 C.3       2 GLC5        0.0000 
     41 CA          7.1260   10.1830  -10.0090 C.3       6 GLL5        0.0000 
     42 CA         10.2680    7.3160   -9.5850 C.3       4 GLP5        0.0000 
     43 CA          8.4370   11.9482  -10.9078 C.3       2 GLC5        0.0000 
     44 CA          4.1898   12.3987  -13.8715 C.3       2 GLC5        0.0000 
     45 CA          5.8460   13.0170  -13.6880 C.3       6 GLL5        0.0000 
     46 CA          4.0808   12.6612  -14.8827 C.3       2 GLC5        0.0000 
     47 CA          4.8600   14.4310  -15.3850 C.3       6 GLL5        0.0000 
     48 CA          6.5912   12.8547  -17.9365 C.3       2 GLC5        0.0000 
     49 CA          7.1890   12.5490  -19.6900 C.3       4 GLP5        0.0000 
     50 CA          4.7203   11.8530  -14.6022 C.3       2 GLC5        0.0000 
     51 CA          6.8174   14.5771  -16.9954 C.3       2 GLC5        0.0000 
     52 CA          7.8170   15.8100  -18.0550 C.3       4 GLP5        0.0000 
@<TRIPOS>BOND
@<TRIPOS>SUBSTRUCTURE
     1 SEC2       27 GROUP        1 X    SEC  0     ROOT SEC X 2
     2 GLC5        1 GROUP        1 X    GLC  0     **** GLC X 6
     3 SEP2       29 GROUP        1 Y    SEP  0     ROOT SEP Y 9
     4 GLP5        3 GROUP        1 Y    GLP  0     **** GLP Y 13
     5 SEL2       28 GROUP        1 Z    SEL  0     ROOT SEL Z 16
     6 GLL5        2 GROUP        1 Z    GLL  0     **** GLL Z 20
@<TRIPOS>SET

