#    Name: 4l0b_1UT_1_ligand
#    Modification time : Mon Apr  7 23:47:26 2014

@<TRIPOS>MOLECULE
4l0b_1UT_1_ligand
   35    37     1     0     0
SMALL
NO_CHARGES


@<TRIPOS>ATOM
      1 CAA         5.5600   11.4350   -5.5160 C.3       1 1UT1204     0.0000 
      2 NAB         6.1650   10.4470   -6.4430 N.pl3     1 1UT1204     0.0000 
      3 CAC         6.3650    9.0730   -5.9990 C.3       1 1UT1204     0.0000 
      4 CAD         6.3180   10.7430   -7.7860 C.ar      1 1UT1204     0.0000 
      5 CAI         5.7340   11.8760   -8.3420 C.ar      1 1UT1204     0.0000 
      6 CAH         5.8800   12.1960   -9.7030 C.ar      1 1UT1204     0.0000 
      7 CAE         7.0110    9.8840   -8.6340 C.ar      1 1UT1204     0.0000 
      8 CAF         7.1260   10.1830  -10.0090 C.ar      1 1UT1204     0.0000 
      9 CAG         6.5780   11.3360  -10.5660 C.ar      1 1UT1204     0.0000 
     10 CAJ         6.6690   11.6340  -11.9720 C.2       1 1UT1204     0.0000 
     11 OAT         5.8980   12.6600  -12.3640 O.3       1 1UT1204     0.0000 
     12 CAS         5.8460   13.0170  -13.6880 C.ar      1 1UT1204     0.0000 
     13 CAR         5.0130   14.0600  -14.0260 C.ar      1 1UT1204     0.0000 
     14 CAQ         4.8600   14.4310  -15.3850 C.ar      1 1UT1204     0.0000 
     15 CAP         5.5630   13.6960  -16.3740 C.ar      1 1UT1204     0.0000 
     16 CAO         6.4240   12.6250  -15.9920 C.ar      1 1UT1204     0.0000 
     17 CAN         6.5570   12.2690  -14.6450 C.ar      1 1UT1204     0.0000 
     18 CAL         7.4230   11.2210  -14.2540 C.2       1 1UT1204     0.0000 
     19 OAM         8.2550   10.6770  -15.0420 O.2       1 1UT1204     0.0000 
     20 CAK         7.4300   10.9290  -12.8960 C.2       1 1UT1204     0.0000 
     21 H           5.1718   12.5089   -7.7388 H         1 1UT1204     0.0000 
     22 H           5.4730   13.0652  -10.0681 H         1 1UT1204     0.0000 
     23 H           7.4428    9.0285   -8.2673 H         1 1UT1204     0.0000 
     24 H           7.6384    9.5151  -10.6196 H         1 1UT1204     0.0000 
     25 H           4.4959   14.5791  -13.3080 H         1 1UT1204     0.0000 
     26 H           4.2630   15.2026  -15.6449 H         1 1UT1204     0.0000 
     27 H           5.4550   13.9308  -17.3590 H         1 1UT1204     0.0000 
     28 H           6.9429   12.1208  -16.7164 H         1 1UT1204     0.0000 
     29 H           8.0346   10.1441  -12.5542 H         1 1UT1204     0.0000 
     30 H           6.1079   11.5509   -4.6875 H         1 1UT1204     0.0000 
     31 H           5.4739   12.3370   -5.9391 H         1 1UT1204     0.0000 
     32 H           4.6439   11.1590   -5.2253 H         1 1UT1204     0.0000 
     33 H           6.7826    8.5094   -6.7118 H         1 1UT1204     0.0000 
     34 H           6.9631    9.0245   -5.1991 H         1 1UT1204     0.0000 
     35 H           5.5022    8.6349   -5.7468 H         1 1UT1204     0.0000 
@<TRIPOS>BOND
     1    2    1 1    
     2   30    1 1    
     3   31    1 1    
     4   32    1 1    
     5    3    2 1    
     6    4    2 1    
     7   33    3 1    
     8   34    3 1    
     9   35    3 1    
    10    5    4 ar   
    11    7    4 ar   
    12    6    5 ar   
    13   21    5 1    
    14    9    6 ar   
    15   22    6 1    
    16    8    7 ar   
    17   23    7 1    
    18    9    8 ar   
    19   24    8 1    
    20   10    9 1    
    21   11   10 1    
    22   20   10 2    
    23   12   11 1    
    24   13   12 ar   
    25   17   12 ar   
    26   14   13 ar   
    27   25   13 1    
    28   15   14 ar   
    29   26   14 1    
    30   16   15 ar   
    31   27   15 1    
    32   17   16 ar   
    33   28   16 1    
    34   18   17 1    
    35   19   18 2    
    36   20   18 1    
    37   29   20 1    
@<TRIPOS>SUBSTRUCTURE
     1 1UT1204     1 GROUP   
@<TRIPOS>SET

