#    Name: 4d9h_ADN_1_INTS_M
#    Modification time : Mon Apr  7 22:26:23 2014

@<TRIPOS>MOLECULE
4d9h_ADN_1_INTS_M
   51     0     9     0     0
SMALL
NO_CHARGES


@<TRIPOS>ATOM
      1 N          -6.5975   50.0110   22.0165 N.am      2 SEC2        0.0000 
      2 N          -6.2790   51.0640   22.9620 N.am      8 SEL2        0.0000 
      3 N          -6.9160   48.9580   21.0710 N.am      5 SEP2        0.0000 
      4 N          -4.9115   50.9790   23.2865 N.am      2 SEC2        0.0000 
      5 N          -3.5440   50.8940   23.6110 N.am      5 SEP2        0.0000 
      6 CA         -5.5140   53.1690   23.4935 C.3       3 GLC5        0.0000 
      7 CA         -6.0030   52.0680   21.9910 C.3       9 GLL5        0.0000 
      8 CA         -5.0250   54.2700   24.9960 C.3       6 GLP5        0.0000 
      9 CA         -4.4860   50.8830   22.6205 C.3       3 GLC5        0.0000 
     10 CA         -2.9690   49.6980   23.2500 C.3       6 GLP5        0.0000 
     11 CA         -5.6510   52.5155   19.3530 C.3       3 GLC5        0.0000 
     12 CA         -7.0940   53.7060   20.4600 C.3       9 GLL5        0.0000 
     13 CA         -4.2080   51.3250   18.2460 C.3       6 GLP5        0.0000 
     14 CA         -5.8255   55.1275   20.4405 C.3       3 GLC5        0.0000 
     15 CA         -4.5570   56.5490   20.4210 C.3       6 GLP5        0.0000 
     16 N          -7.1510   53.8915   17.8150 N.am      2 SEC2        0.0000 
     17 N          -7.0330   53.4300   19.0650 N.am      8 SEL2        0.0000 
     18 N          -7.2690   54.3530   16.5650 N.am      5 SEP2        0.0000 
     19 CA         -9.2790   56.2180   20.7925 C.3       3 GLC5        0.0000 
     20 CA         -8.3530   54.4640   20.7580 C.3       9 GLL5        0.0000 
     21 CA        -10.2050   57.9720   20.8270 C.3       6 GLP5        0.0000 
     22 CA         -7.1710   55.9900   20.3355 C.3       3 GLC5        0.0000 
     23 CA         -5.9890   57.5160   19.9130 C.3       6 GLP5        0.0000 
     24 N          -8.9025   56.1160   19.1945 N.am      2 SEC2        0.0000 
     25 N          -9.0040   54.6250   19.5140 N.am      8 SEL2        0.0000 
     26 N          -8.8010   57.6070   18.8750 N.am      5 SEP2        0.0000 
     27 N          -8.1365   54.4890   18.0395 N.am      2 SEC2        0.0000 
     28 O          -8.1365   54.4890   18.0395 O.2       1 ALC1        0.0000 
     29 O          -9.0040   54.6250   19.5140 O.2       7 ALL1        0.0000 
     30 O          -7.2690   54.3530   16.5650 O.2       4 ALP1        0.0000 
     31 CA        -10.2685   55.3880   20.9330 C.3       3 GLC5        0.0000 
     32 CA         -9.1850   53.6100   21.6980 C.3       9 GLL5        0.0000 
     33 CA        -11.3520   57.1660   20.1680 C.3       6 GLP5        0.0000 
     34 CA        -11.0185   55.4620   24.3200 C.3       3 GLC5        0.0000 
     35 CA         -8.9560   55.3080   24.9700 C.3       9 GLL5        0.0000 
     36 CA        -13.0810   55.6160   23.6700 C.3       6 GLP5        0.0000 
     37 CA         -9.1670   58.1815   25.6995 C.3       3 GLC5        0.0000 
     38 CA         -8.3610   56.4110   25.7560 C.3       9 GLL5        0.0000 
     39 CA         -9.9730   59.9520   25.6430 C.3       6 GLP5        0.0000 
     40 CA         -7.9920   59.0430   23.7065 C.3       3 GLC5        0.0000 
     41 CA         -7.1980   57.1100   23.8490 C.3       9 GLL5        0.0000 
     42 CA         -8.7860   60.9760   23.5640 C.3       6 GLP5        0.0000 
     43 CA         -8.7015   57.5410   22.3380 C.3       3 GLC5        0.0000 
     44 CA         -6.5935   57.3130   21.8810 C.3       3 GLC5        0.0000 
     45 CA         -9.3850   56.5895   22.1955 C.3       3 GLC5        0.0000 
     46 CA         -8.5650   55.2070   23.5640 C.3       9 GLL5        0.0000 
     47 CA         -5.0408   51.6088   20.7207 C.3       3 GLC5        0.0000 
     48 CA         -7.2400   52.3790   21.1560 C.3       9 GLL5        0.0000 
     49 CA         -3.4600   50.9940   19.8680 C.3       6 GLP5        0.0000 
     50 CA        -10.4303   56.3948   26.2555 C.3       3 GLC5        0.0000 
     51 CA        -12.2020   56.9300   27.1480 C.3       6 GLP5        0.0000 
@<TRIPOS>BOND
@<TRIPOS>SUBSTRUCTURE
     1 ALC1       28 GROUP        1 X    ALC  0     ROOT ALC X 1
     2 SEC2        1 GROUP        1 X    SEC  0     **** SEC X 2
     3 GLC5        6 GROUP        1 X    GLC  0     **** GLC X 6
     4 ALP1       30 GROUP        1 Y    ALP  0     ROOT ALP Y 8
     5 SEP2        3 GROUP        1 Y    SEP  0     **** SEP Y 9
     6 GLP5        8 GROUP        1 Y    GLP  0     **** GLP Y 13
     7 ALL1       29 GROUP        1 Z    ALL  0     ROOT ALL Z 15
     8 SEL2        2 GROUP        1 Z    SEL  0     **** SEL Z 16
     9 GLL5        7 GROUP        1 Z    GLL  0     **** GLL Z 20
@<TRIPOS>SET

