#    Name: 4d9h_ADN_1_ligand
#    Modification time : Mon Apr  7 22:26:24 2014

@<TRIPOS>MOLECULE
4d9h_ADN_1_ligand
   32    34     1     0     0
SMALL
NO_CHARGES


@<TRIPOS>ATOM
      1 O5'        -6.2790   51.0640   22.9620 O.3       1 ADN301      0.0000 
      2 C5'        -6.0030   52.0680   21.9910 C.3       1 ADN301      0.0000 
      3 C4'        -7.2400   52.3790   21.1560 C.3       1 ADN301      0.0000 
      4 O4'        -8.4750   52.3930   21.8780 O.3       1 ADN301      0.0000 
      5 C3'        -7.0940   53.7060   20.4600 C.3       1 ADN301      0.0000 
      6 O3'        -7.0330   53.4300   19.0650 O.3       1 ADN301      0.0000 
      7 C2'        -8.3530   54.4640   20.7580 C.3       1 ADN301      0.0000 
      8 O2'        -9.0040   54.6250   19.5140 O.3       1 ADN301      0.0000 
      9 C1'        -9.1850   53.6100   21.6980 C.3       1 ADN301      0.0000 
     10 N9         -9.2420   54.1630   23.0660 N.pl3     1 ADN301      0.0000 
     11 C8         -9.9770   53.6150   24.0510 C.2       1 ADN301      0.0000 
     12 N7         -9.8170   54.3040   25.1970 N.2       1 ADN301      0.0000 
     13 C5         -8.9560   55.3080   24.9700 C.ar      1 ADN301      0.0000 
     14 C6         -8.3610   56.4110   25.7560 C.ar      1 ADN301      0.0000 
     15 N6         -8.6460   56.5860   27.0620 N.pl3     1 ADN301      0.0000 
     16 N1         -7.5090   57.2500   25.1400 N.ar      1 ADN301      0.0000 
     17 C2         -7.1980   57.1100   23.8490 C.ar      1 ADN301      0.0000 
     18 N3         -7.6980   56.1300   23.0800 N.ar      1 ADN301      0.0000 
     19 C4         -8.5650   55.2070   23.5640 C.ar      1 ADN301      0.0000 
     20 H          -5.2030   51.7562   21.2992 H         1 ADN301      0.0000 
     21 H          -5.6723   53.0090   22.4611 H         1 ADN301      0.0000 
     22 H          -7.2933   51.6157   20.3506 H         1 ADN301      0.0000 
     23 H          -6.2625   54.2098   20.8264 H         1 ADN301      0.0000 
     24 H          -8.1083   55.3765   21.2202 H         1 ADN301      0.0000 
     25 H         -10.1395   53.4471   21.3114 H         1 ADN301      0.0000 
     26 H         -10.5486   52.8254   23.9493 H         1 ADN301      0.0000 
     27 H          -8.2137   57.3713   27.5053 H         1 ADN301      0.0000 
     28 H          -9.2643   55.9150   27.4712 H         1 ADN301      0.0000 
     29 H          -6.5230   57.8058   23.4067 H         1 ADN301      0.0000 
     30 H          -6.5662   51.5655   23.7782 H         1 ADN301      0.0000 
     31 H          -6.0588   53.3272   18.8640 H         1 ADN301      0.0000 
     32 H          -8.2882   54.4924   18.8284 H         1 ADN301      0.0000 
@<TRIPOS>BOND
     1    2    1 1    
     2   30    1 1    
     3    3    2 1    
     4   20    2 1    
     5   21    2 1    
     6    4    3 1    
     7    5    3 1    
     8   22    3 1    
     9    9    4 1    
    10    6    5 1    
    11    7    5 1    
    12   23    5 1    
    13   31    6 1    
    14    8    7 1    
    15    9    7 1    
    16   24    7 1    
    17   32    8 1    
    18   10    9 1    
    19   25    9 1    
    20   11   10 1    
    21   19   10 1    
    22   12   11 2    
    23   26   11 1    
    24   13   12 1    
    25   14   13 ar   
    26   19   13 ar   
    27   15   14 1    
    28   16   14 ar   
    29   27   15 1    
    30   28   15 1    
    31   17   16 ar   
    32   18   17 ar   
    33   29   17 1    
    34   19   18 ar   
@<TRIPOS>SUBSTRUCTURE
     1 ADN301      1 GROUP   
@<TRIPOS>SET

