#    Name: 3l9h_EMQ_1_INTS_M
#    Modification time : Mon Mar 24 21:10:07 2014

@<TRIPOS>MOLECULE
3l9h_EMQ_1_INTS_M
   90     0     6     0     0
SMALL
NO_CHARGES


@<TRIPOS>ATOM
      1 CA         25.6095    7.4175   11.3565 C.3       2 GLC5        0.0000 
      2 CA         26.5190    8.9540   10.7500 C.3       6 GLL5        0.0000 
      3 CA         24.7000    5.8810   11.9630 C.3       4 GLP5        0.0000 
      4 CA         26.4025    7.5260    9.3970 C.3       2 GLC5        0.0000 
      5 CA         26.2860    6.0980    8.0440 C.3       4 GLP5        0.0000 
      6 CA         28.3330    7.6810    9.8110 C.3       2 GLC5        0.0000 
      7 CA         27.4600    8.2800   11.5360 C.3       6 GLL5        0.0000 
      8 CA         29.2060    7.0820    8.0860 C.3       4 GLP5        0.0000 
      9 CA         29.1295    6.9135   11.3755 C.3       2 GLC5        0.0000 
     10 CA         30.7990    5.5470   11.2150 C.3       4 GLP5        0.0000 
     11 CA         25.6835   12.3030   13.7450 C.3       2 GLC5        0.0000 
     12 CA         26.4360   10.7750   12.3620 C.3       6 GLL5        0.0000 
     13 CA         24.9310   13.8310   15.1280 C.3       4 GLP5        0.0000 
     14 O          28.8105    6.6440   13.7810 O.2       1 ALC1        0.0000 
     15 O          28.8550    8.1720   13.5300 O.2       5 ALL1        0.0000 
     16 O          28.7660    5.1160   14.0320 O.2       3 ALP1        0.0000 
     17 CA         26.3820   12.2905   14.7845 C.3       2 GLC5        0.0000 
     18 CA         27.8330   10.7500   14.4410 C.3       6 GLL5        0.0000 
     19 CA         31.0270   10.1775   17.6015 C.3       2 GLC5        0.0000 
     20 CA         29.6860   10.9190   16.1540 C.3       6 GLL5        0.0000 
     21 CA         32.3680    9.4360   19.0490 C.3       4 GLP5        0.0000 
     22 CA         30.0055   10.4440   18.6390 C.3       2 GLC5        0.0000 
     23 CA         28.5960   10.8360   17.2440 C.3       6 GLL5        0.0000 
     24 CA         31.4150   10.0520   20.0340 C.3       4 GLP5        0.0000 
     25 CA         31.3210    6.8830   13.6845 C.3       2 GLC5        0.0000 
     26 CA         30.7180    8.2660   15.1380 C.3       6 GLL5        0.0000 
     27 CA         31.9240    5.5000   12.2310 C.3       4 GLP5        0.0000 
     28 CA         29.7190    6.7275   17.6270 C.3       2 GLC5        0.0000 
     29 CA         30.9250    7.4160   16.2280 C.3       6 GLL5        0.0000 
     30 CA         28.5130    6.0390   19.0260 C.3       4 GLP5        0.0000 
     31 CA         31.4515    9.3970   12.5640 C.3       2 GLC5        0.0000 
     32 CA         31.8260    8.6780   14.3490 C.3       6 GLL5        0.0000 
     33 CA         31.0770   10.1160   10.7790 C.3       4 GLP5        0.0000 
     34 CA         24.3100   13.5715   10.8025 C.3       2 GLC5        0.0000 
     35 CA         24.1650   11.7510   11.0340 C.3       6 GLL5        0.0000 
     36 CA         24.4550   15.3920   10.5710 C.3       4 GLP5        0.0000 
     37 CA         24.0045   13.0180   12.5920 C.3       2 GLC5        0.0000 
     38 CA         23.8440   14.2850   14.1500 C.3       4 GLP5        0.0000 
     39 CA         22.1475   12.4345   11.6145 C.3       2 GLC5        0.0000 
     40 CA         20.1300   13.1180   12.1950 C.3       4 GLP5        0.0000 
     41 CA         25.6765   13.4800    8.1605 C.3       2 GLC5        0.0000 
     42 CA         25.6870   11.7130    9.3470 C.3       6 GLL5        0.0000 
     43 CA         25.6660   15.2470    6.9740 C.3       4 GLP5        0.0000 
     44 CA         27.5845   11.3490    9.2130 C.3       2 GLC5        0.0000 
     45 CA         29.4820   10.9850    9.0790 C.3       4 GLP5        0.0000 
     46 CA         25.0710   13.5525    9.9590 C.3       2 GLC5        0.0000 
     47 CA         26.3280   10.9320    7.8630 C.3       2 GLC5        0.0000 
     48 CA         26.9690   10.1510    6.3790 C.3       4 GLP5        0.0000 
     49 CA         29.5655    9.6225   21.7735 C.3       2 GLC5        0.0000 
     50 CA         27.7540   10.0170   22.2320 C.3       6 GLL5        0.0000 
     51 CA         31.3770    9.2280   21.3150 C.3       4 GLP5        0.0000 
     52 CA         28.5175   11.5800   26.2670 C.3       2 GLC5        0.0000 
     53 CA         28.1200   10.4540   25.0690 C.3       6 GLL5        0.0000 
     54 CA         28.9150   12.7060   27.4650 C.3       4 GLP5        0.0000 
     55 CA         24.7955    9.2285   26.0350 C.3       2 GLC5        0.0000 
     56 CA         26.8260    8.5800   25.6010 C.3       6 GLL5        0.0000 
     57 CA         22.7650    9.8770   26.4690 C.3       4 GLP5        0.0000 
     58 CA         27.8712   10.2820   10.0158 C.3       2 GLC5        0.0000 
     59 CA         26.0020   10.2040   11.1550 C.3       6 GLL5        0.0000 
     60 CA         26.7315    7.1597   12.5817 C.3       2 GLC5        0.0000 
     61 CA         25.7850    5.7530   13.0240 C.3       4 GLP5        0.0000 
     62 CA         29.3775    9.3413   11.4592 C.3       2 GLC5        0.0000 
     63 CA         28.3580   11.3305   12.0000 C.3       2 GLC5        0.0000 
     64 CA         27.3780   10.1070   13.1540 C.3       6 GLL5        0.0000 
     65 CA         29.8090   12.2200   11.2420 C.3       4 GLP5        0.0000 
     66 CA         29.1755   11.3667   12.9330 C.3       2 GLC5        0.0000 
     67 CA         31.2238   11.3735   15.6538 C.3       2 GLC5        0.0000 
     68 CA         29.2510   10.2770   14.8070 C.3       6 GLL5        0.0000 
     69 CA         32.9790   12.1490   15.8270 C.3       4 GLP5        0.0000 
     70 CA         25.7858   12.4917   16.1498 C.3       2 GLC5        0.0000 
     71 CA         27.2110   11.2350   16.6460 C.3       6 GLL5        0.0000 
     72 CA         31.5948    8.6385   17.3660 C.3       2 GLC5        0.0000 
     73 CA         32.0150    5.3253   16.1713 C.3       2 GLC5        0.0000 
     74 CA         32.4580    3.4610   15.9530 C.3       4 GLP5        0.0000 
     75 CA         32.5692    8.2995   17.6073 C.3       2 GLC5        0.0000 
     76 CA         32.2190    6.9630   16.5510 C.3       6 GLL5        0.0000 
     77 CA         34.7062    8.9503   15.6947 C.3       2 GLC5        0.0000 
     78 CA         33.3220    7.3630   15.7800 C.3       6 GLL5        0.0000 
     79 CA         36.1890   10.1090   16.1600 C.3       4 GLP5        0.0000 
     80 CA         33.4952    5.8178   15.2647 C.3       2 GLC5        0.0000 
     81 CA         33.1250    8.2200   14.6790 C.3       6 GLL5        0.0000 
     82 CA         33.7670    3.8440   15.3000 C.3       4 GLP5        0.0000 
     83 CA         32.7049    7.3874   13.2206 C.3       2 GLC5        0.0000 
     84 CA         32.8850    6.5400   11.6520 C.3       4 GLP5        0.0000 
     85 CA         25.2285    9.9025    8.0735 C.3       2 GLC5        0.0000 
     86 CA         24.2240    9.9750    9.5820 C.3       6 GLL5        0.0000 
     87 CA         25.8480    9.3560    6.2200 C.3       4 GLP5        0.0000 
     88 CA         23.8285   11.8332    8.8189 C.3       2 GLC5        0.0000 
     89 CA         24.9940   10.9230   10.2720 C.3       6 GLL5        0.0000 
     90 CA         22.6200   12.2600    7.7240 C.3       4 GLP5        0.0000 
@<TRIPOS>BOND
@<TRIPOS>SUBSTRUCTURE
     1 ALC1       14 GROUP        1 X    ALC  0     ROOT ALC X 1
     2 GLC5        1 GROUP        1 X    GLC  0     **** GLC X 6
     3 ALP1       16 GROUP        1 Y    ALP  0     ROOT ALP Y 8
     4 GLP5        3 GROUP        1 Y    GLP  0     **** GLP Y 13
     5 ALL1       15 GROUP        1 Z    ALL  0     ROOT ALL Z 15
     6 GLL5        2 GROUP        1 Z    GLL  0     **** GLL Z 20
@<TRIPOS>SET

