#    Name: 3l9h_EMQ_1_ligand
#    Modification time : Mon Mar 24 21:10:07 2014

@<TRIPOS>MOLECULE
3l9h_EMQ_1_ligand
   66    69     1     0     0
SMALL
NO_CHARGES


@<TRIPOS>ATOM
      1 N1         26.4770   10.1400   18.7660 N.am      1 EMQ601      0.0000 
      2 C2         26.0020   10.2040   11.1550 C.ar      1 EMQ601      0.0000 
      3 C3         26.5190    8.9540   10.7500 C.ar      1 EMQ601      0.0000 
      4 C4         27.4600    8.2800   11.5360 C.ar      1 EMQ601      0.0000 
      5 C5         26.4360   10.7750   12.3620 C.ar      1 EMQ601      0.0000 
      6 C6         27.3780   10.1070   13.1540 C.ar      1 EMQ601      0.0000 
      7 C7         27.8960    8.8530   12.7430 C.ar      1 EMQ601      0.0000 
      8 N8         28.8550    8.1720   13.5300 N.pl3     1 EMQ601      0.0000 
      9 C9         29.3050    8.7270   14.8420 C.3       1 EMQ601      0.0000 
     10 C10        27.8330   10.7500   14.4410 C.3       1 EMQ601      0.0000 
     11 C11        29.2510   10.2770   14.8070 C.3       1 EMQ601      0.0000 
     12 C12        29.6860   10.9190   16.1540 C.3       1 EMQ601      0.0000 
     13 C13        28.5960   10.8360   17.2440 C.3       1 EMQ601      0.0000 
     14 C14        27.2110   11.2350   16.6460 C.3       1 EMQ601      0.0000 
     15 O15        26.9240   10.4080   15.4930 O.3       1 EMQ601      0.0000 
     16 C16        30.7180    8.2660   15.1380 C.ar      1 EMQ601      0.0000 
     17 C17        30.9250    7.4160   16.2280 C.ar      1 EMQ601      0.0000 
     18 C18        32.2190    6.9630   16.5510 C.ar      1 EMQ601      0.0000 
     19 C19        33.3220    7.3630   15.7800 C.ar      1 EMQ601      0.0000 
     20 C20        33.1250    8.2200   14.6790 C.ar      1 EMQ601      0.0000 
     21 C21        31.8260    8.6780   14.3490 C.ar      1 EMQ601      0.0000 
     22 C22        24.9940   10.9230   10.2720 C.3       1 EMQ601      0.0000 
     23 F23        24.2240    9.9750    9.5820 F         1 EMQ601      0.0000 
     24 F24        24.1650   11.7510   11.0340 F         1 EMQ601      0.0000 
     25 F25        25.6870   11.7130    9.3470 F         1 EMQ601      0.0000 
     26 C26        26.0700   11.0700   17.6970 C.3       1 EMQ601      0.0000 
     27 C27        26.8630   10.5730   20.0010 C.2       1 EMQ601      0.0000 
     28 N28        27.2750    9.6370   20.9030 N.am      1 EMQ601      0.0000 
     29 O29        26.8660   11.7900   20.2760 O.2       1 EMQ601      0.0000 
     30 C30        27.7540   10.0170   22.2320 C.3       1 EMQ601      0.0000 
     31 C31        26.9170    9.3460   23.3370 C.3       1 EMQ601      0.0000 
     32 N32        27.7260    9.1440   24.5700 N.4       1 EMQ601      0.0000 
     33 C33        28.1200   10.4540   25.0690 C.3       1 EMQ601      0.0000 
     34 C34        26.8260    8.5800   25.6010 C.3       1 EMQ601      0.0000 
     35 H          26.4535    9.1322   18.5258 H         1 EMQ601      0.0000 
     36 H          26.1965    8.5387    9.8658 H         1 EMQ601      0.0000 
     37 H          27.8300    7.3757   11.2365 H         1 EMQ601      0.0000 
     38 H          26.0625   11.6806   12.6619 H         1 EMQ601      0.0000 
     39 H          29.2624    7.2933   13.2290 H         1 EMQ601      0.0000 
     40 H          28.6518    8.3882   15.6251 H         1 EMQ601      0.0000 
     41 H          27.8702   11.8209   14.2972 H         1 EMQ601      0.0000 
     42 H          29.9286   10.6246   14.0334 H         1 EMQ601      0.0000 
     43 H          29.9351   11.9693   15.9768 H         1 EMQ601      0.0000 
     44 H          30.5866   10.4100   16.5096 H         1 EMQ601      0.0000 
     45 H          28.8374   11.5164   18.0473 H         1 EMQ601      0.0000 
     46 H          28.5358    9.8241   17.6168 H         1 EMQ601      0.0000 
     47 H          27.2574   12.2761   16.3701 H         1 EMQ601      0.0000 
     48 H          30.1268    7.1152   16.8036 H         1 EMQ601      0.0000 
     49 H          32.3538    6.3387   17.3527 H         1 EMQ601      0.0000 
     50 H          34.2595    7.0371   16.0131 H         1 EMQ601      0.0000 
     51 H          33.9246    8.5156   14.1114 H         1 EMQ601      0.0000 
     52 H          31.6853    9.2956   13.5558 H         1 EMQ601      0.0000 
     53 H          25.8471   12.0588   18.1010 H         1 EMQ601      0.0000 
     54 H          25.1873   10.7019   17.1717 H         1 EMQ601      0.0000 
     55 H          27.2651    8.6286   20.6844 H         1 EMQ601      0.0000 
     56 H          27.6932   11.1022   22.3756 H         1 EMQ601      0.0000 
     57 H          28.7993    9.7178   22.3728 H         1 EMQ601      0.0000 
     58 H          26.5541    8.3874   22.9587 H         1 EMQ601      0.0000 
     59 H          26.0539    9.9819   23.5481 H         1 EMQ601      0.0000 
     60 H          28.5380    8.5261   24.3993 H         1 EMQ601      0.0000 
     61 H          28.6724   10.3843   25.8997 H         1 EMQ601      0.0000 
     62 H          28.6624   10.9593   24.3979 H         1 EMQ601      0.0000 
     63 H          27.3267   11.0208   25.2913 H         1 EMQ601      0.0000 
     64 H          27.3046    8.4197   26.4643 H         1 EMQ601      0.0000 
     65 H          26.0598    9.1911   25.7997 H         1 EMQ601      0.0000 
     66 H          26.4362    7.7046   25.3150 H         1 EMQ601      0.0000 
@<TRIPOS>BOND
     1   26    1 1    
     2   27    1 am   
     3   35    1 1    
     4    3    2 ar   
     5    5    2 ar   
     6   22    2 1    
     7    4    3 ar   
     8   36    3 1    
     9    7    4 ar   
    10   37    4 1    
    11    6    5 ar   
    12   38    5 1    
    13    7    6 ar   
    14   10    6 1    
    15    8    7 1    
    16    9    8 1    
    17   39    8 1    
    18   11    9 1    
    19   16    9 1    
    20   40    9 1    
    21   11   10 1    
    22   15   10 1    
    23   41   10 1    
    24   12   11 1    
    25   42   11 1    
    26   13   12 1    
    27   43   12 1    
    28   44   12 1    
    29   14   13 1    
    30   45   13 1    
    31   46   13 1    
    32   15   14 1    
    33   26   14 1    
    34   47   14 1    
    35   17   16 ar   
    36   21   16 ar   
    37   18   17 ar   
    38   48   17 1    
    39   19   18 ar   
    40   49   18 1    
    41   20   19 ar   
    42   50   19 1    
    43   21   20 ar   
    44   51   20 1    
    45   52   21 1    
    46   23   22 1    
    47   24   22 1    
    48   25   22 1    
    49   53   26 1    
    50   54   26 1    
    51   28   27 am   
    52   29   27 2    
    53   30   28 1    
    54   55   28 1    
    55   31   30 1    
    56   56   30 1    
    57   57   30 1    
    58   32   31 1    
    59   58   31 1    
    60   59   31 1    
    61   33   32 1    
    62   34   32 1    
    63   60   32 1    
    64   61   33 1    
    65   62   33 1    
    66   63   33 1    
    67   64   34 1    
    68   65   34 1    
    69   66   34 1    
@<TRIPOS>SUBSTRUCTURE
     1 EMQ601      1 GROUP   
@<TRIPOS>SET

