#    Name: 2w0d_CGS_3_INTS_M
#    Modification time : Tue Mar 25 03:26:57 2014

@<TRIPOS>MOLECULE
2w0d_CGS_3_INTS_M
   58     0    12     0     0
SMALL
NO_CHARGES


@<TRIPOS>ATOM
      1 Zn        -17.9190   35.3305  -29.5260 Zn        3 ZIC7        0.0000 
      2 Zn        -16.5630   33.3210  -29.2680 Zn       11 ZIL7        0.0000 
      3 Zn        -19.2750   37.3400  -29.7840 Zn        7 ZIP7        0.0000 
      4 CA        -19.2025   33.5400  -27.2745 C.3       4 GLC5        0.0000 
      5 CA        -17.3690   33.0730  -28.0430 C.3      12 GLL5        0.0000 
      6 CA        -21.0360   34.0070  -26.5060 C.3       8 GLP5        0.0000 
      7 CA        -16.5635   29.5490  -23.4865 C.3       4 GLC5        0.0000 
      8 CA        -15.9240   30.1640  -25.2110 C.3      12 GLL5        0.0000 
      9 CA        -17.2030   28.9340  -21.7620 C.3       8 GLP5        0.0000 
     10 CA        -20.5055   30.7870  -30.0195 C.3       4 GLC5        0.0000 
     11 CA        -19.1080   31.9420  -31.3000 C.3      12 GLL5        0.0000 
     12 CA        -21.9030   29.6320  -28.7390 C.3       8 GLP5        0.0000 
     13 CA        -19.6900   30.1890  -32.2590 C.3       4 GLC5        0.0000 
     14 CA        -20.2720   28.4360  -33.2180 C.3       8 GLP5        0.0000 
     15 CA        -20.8860   30.3780  -32.2600 C.3       4 GLC5        0.0000 
     16 CA        -20.2050   32.2010  -32.1310 C.3      12 GLL5        0.0000 
     17 CA        -21.5670   28.5550  -32.3890 C.3       8 GLP5        0.0000 
     18 CA        -16.4575   32.2725  -33.6805 C.3       4 GLC5        0.0000 
     19 CA        -17.7990   33.4990  -32.6110 C.3      12 GLL5        0.0000 
     20 CA        -15.1160   31.0460  -34.7500 C.3       8 GLP5        0.0000 
     21 CA        -21.3910   33.0825  -35.9780 C.3       4 GLC5        0.0000 
     22 CA        -22.2910   32.4980  -34.1800 C.3      12 GLL5        0.0000 
     23 CA        -20.4910   33.6670  -37.7760 C.3       8 GLP5        0.0000 
     24 CA        -22.2815   34.3195  -34.2445 C.3       4 GLC5        0.0000 
     25 CA        -22.2720   36.1410  -34.3090 C.3       8 GLP5        0.0000 
     26 CA        -21.5025   30.7090  -34.9235 C.3       4 GLC5        0.0000 
     27 CA        -20.7140   28.9200  -35.6670 C.3       8 GLP5        0.0000 
     28 N         -14.3530   32.1600  -32.2320 N.am      2 SEC2        0.0000 
     29 N         -15.3260   32.6860  -31.3400 N.am     10 SEL2        0.0000 
     30 N         -13.3800   31.6340  -33.1240 N.am      6 SEP2        0.0000 
     31 O         -15.6465   36.2230  -31.6835 O.2       1 ALC1        0.0000 
     32 O         -16.6030   36.5120  -30.7090 O.2       9 ALL1        0.0000 
     33 O         -14.6900   35.9340  -32.6580 O.2       5 ALP1        0.0000 
     34 CA        -12.2425   33.2680  -28.6790 C.3       4 GLC5        0.0000 
     35 CA        -13.8700   34.0750  -27.9820 C.3      12 GLL5        0.0000 
     36 CA        -10.6150   32.4610  -29.3760 C.3       8 GLP5        0.0000 
     37 CA        -13.8685   37.5940  -30.0260 C.3       4 GLC5        0.0000 
     38 CA        -14.6080   36.4720  -28.2260 C.3      12 GLL5        0.0000 
     39 CA        -13.1290   38.7160  -31.8260 C.3       8 GLP5        0.0000 
     40 Zn        -18.5805   36.6315  -29.3840 Zn        3 ZIC7        0.0000 
     41 Zn        -17.8860   35.9230  -28.9840 Zn       11 ZIL7        0.0000 
     42 Zn        -18.4410   37.3210  -30.5240 Zn        3 ZIC7        0.0000 
     43 Zn        -17.6070   37.3020  -31.2640 Zn       11 ZIL7        0.0000 
     44 CA        -17.8252   30.4155  -24.9700 C.3       4 GLC5        0.0000 
     45 CA        -16.6790   29.7420  -26.3050 C.3      12 GLL5        0.0000 
     46 CA        -19.3490   30.8780  -24.1820 C.3       8 GLP5        0.0000 
     47 CA        -17.9565   31.3905  -25.3582 C.3       4 GLC5        0.0000 
     48 CA        -16.8600   32.0420  -27.0490 C.3      12 GLL5        0.0000 
     49 CA        -17.7212   30.8805  -32.7780 C.3       4 GLC5        0.0000 
     50 CA        -16.9390   29.4910  -34.1340 C.3       8 GLP5        0.0000 
     51 CA        -20.9817   34.4457  -32.7762 C.3       4 GLC5        0.0000 
     52 CA        -21.8120   36.2450  -32.8850 C.3       8 GLP5        0.0000 
     53 CA        -18.7615   33.4727  -35.2447 C.3       4 GLC5        0.0000 
     54 CA        -20.0980   33.0920  -33.2040 C.3      12 GLL5        0.0000 
     55 CA        -18.0300   33.5250  -37.1650 C.3       8 GLP5        0.0000 
     56 CA        -19.4888   35.1365  -32.6910 C.3       4 GLC5        0.0000 
     57 CA        -18.8880   33.7490  -33.4450 C.3      12 GLL5        0.0000 
     58 CA        -20.6340   36.6490  -32.3540 C.3       8 GLP5        0.0000 
@<TRIPOS>BOND
@<TRIPOS>SUBSTRUCTURE
     1 ALC1       31 GROUP        1 X    ALC  0     ROOT ALC X 1
     2 SEC2       28 GROUP        1 X    SEC  0     **** SEC X 2
     3 ZIC7        1 GROUP        1 X    ZIC  0     **** ZIC X 5
     4 GLC5        4 GROUP        1 X    GLC  0     **** GLC X 6
     5 ALP1       33 GROUP        1 Y    ALP  0     ROOT ALP Y 8
     6 SEP2       30 GROUP        1 Y    SEP  0     **** SEP Y 9
     7 ZIP7        3 GROUP        1 Y    ZIP  0     **** ZIP Y 12
     8 GLP5        6 GROUP        1 Y    GLP  0     **** GLP Y 13
     9 ALL1       32 GROUP        1 Z    ALL  0     ROOT ALL Z 15
    10 SEL2       29 GROUP        1 Z    SEL  0     **** SEL Z 16
    11 ZIL7        2 GROUP        1 Z    ZIL  0     **** ZIL Z 19
    12 GLL5        5 GROUP        1 Z    GLL  0     **** GLL Z 20
@<TRIPOS>SET

