#    Name: 2w0d_CGS_3_ligand
#    Modification time : Tue Mar 25 03:26:57 2014

@<TRIPOS>MOLECULE
2w0d_CGS_3_ligand
   50    51     1     0     0
SMALL
NO_CHARGES


@<TRIPOS>ATOM
      1 N1        -16.5630   33.3210  -29.2680 N.pl3     1 CGS1273     0.0000 
      2 CC        -17.3690   33.0730  -28.0430 C.3       1 CGS1273     0.0000 
      3 CA        -15.9000   34.6350  -29.3910 C.3       1 CGS1273     0.0000 
      4 S4        -16.4740   32.3160  -30.5410 S.o2      1 CGS1273     0.0000 
      5 C5        -16.8600   32.0420  -27.0490 C.ar      1 CGS1273     0.0000 
      6 CD        -17.1560   30.6880  -27.2170 C.ar      1 CGS1273     0.0000 
      7 CE        -16.6790   29.7420  -26.3050 C.ar      1 CGS1273     0.0000 
      8 CZ        -15.9240   30.1640  -25.2110 C.ar      1 CGS1273     0.0000 
      9 N11       -15.6390   31.5070  -25.0310 N.ar      1 CGS1273     0.0000 
     10 CY        -16.1200   32.4410  -25.9360 C.ar      1 CGS1273     0.0000 
     11 C17       -17.8990   32.5980  -31.5440 C.ar      1 CGS1273     0.0000 
     12 CE2       -19.1080   31.9420  -31.3000 C.ar      1 CGS1273     0.0000 
     13 CD2       -20.2050   32.2010  -32.1310 C.ar      1 CGS1273     0.0000 
     14 C20       -20.0980   33.0920  -33.2040 C.ar      1 CGS1273     0.0000 
     15 CD1       -18.8880   33.7490  -33.4450 C.ar      1 CGS1273     0.0000 
     16 CE1       -17.7990   33.4990  -32.6110 C.ar      1 CGS1273     0.0000 
     17 O27       -21.1590   33.3570  -34.0330 O.3       1 CGS1273     0.0000 
     18 COM       -22.2910   32.4980  -34.1800 C.3       1 CGS1273     0.0000 
     19 O32       -16.4830   30.9630  -30.0580 O.2       1 CGS1273     0.0000 
     20 O33       -15.3260   32.6860  -31.3400 O.2       1 CGS1273     0.0000 
     21 C34       -16.8920   35.7400  -29.6800 C.2       1 CGS1273     0.0000 
     22 N35       -16.6030   36.5120  -30.7090 N.am      1 CGS1273     0.0000 
     23 CB        -15.0660   35.0090  -28.1580 C.3       1 CGS1273     0.0000 
     24 CG2       -13.8700   34.0750  -27.9820 C.3       1 CGS1273     0.0000 
     25 CG1       -14.6080   36.4720  -28.2260 C.3       1 CGS1273     0.0000 
     26 O47       -17.8860   35.9230  -28.9840 O.2       1 CGS1273     0.0000 
     27 O48       -17.6070   37.3020  -31.2640 O.3       1 CGS1273     0.0000 
     28 H         -18.4143   32.7789  -28.3417 H         1 CGS1273     0.0000 
     29 H         -17.5113   34.0445  -27.4914 H         1 CGS1273     0.0000 
     30 H         -15.1977   34.6034  -30.2481 H         1 CGS1273     0.0000 
     31 H         -17.7282   30.3840  -28.0160 H         1 CGS1273     0.0000 
     32 H         -16.8828   28.7491  -26.4402 H         1 CGS1273     0.0000 
     33 H         -15.5774   29.4672  -24.5335 H         1 CGS1273     0.0000 
     34 H         -15.9297   33.4463  -25.7871 H         1 CGS1273     0.0000 
     35 H         -19.1922   31.2825  -30.5268 H         1 CGS1273     0.0000 
     36 H         -21.1034   31.7282  -31.9489 H         1 CGS1273     0.0000 
     37 H         -18.8042   34.4045  -34.2236 H         1 CGS1273     0.0000 
     38 H         -16.9031   33.9850  -32.7809 H         1 CGS1273     0.0000 
     39 H         -15.6565   36.5548  -31.1225 H         1 CGS1273     0.0000 
     40 H         -15.7080   34.9046  -27.2756 H         1 CGS1273     0.0000 
     41 H         -22.0292   31.5924  -34.5136 H         1 CGS1273     0.0000 
     42 H         -22.7703   32.3636  -33.3127 H         1 CGS1273     0.0000 
     43 H         -22.9564   32.8681  -34.8283 H         1 CGS1273     0.0000 
     44 H         -13.2579   34.1025  -28.7723 H         1 CGS1273     0.0000 
     45 H         -13.3242   34.3175  -27.1799 H         1 CGS1273     0.0000 
     46 H         -14.1556   33.1238  -27.8654 H         1 CGS1273     0.0000 
     47 H         -14.0646   36.7286  -27.4267 H         1 CGS1273     0.0000 
     48 H         -14.0437   36.6474  -29.0327 H         1 CGS1273     0.0000 
     49 H         -15.3832   37.1023  -28.2679 H         1 CGS1273     0.0000 
     50 H         -17.3928   37.3448  -32.2398 H         1 CGS1273     0.0000 
@<TRIPOS>BOND
     1    2    1 1    
     2    3    1 1    
     3    4    1 1    
     4    5    2 1    
     5   28    2 1    
     6   29    2 1    
     7   21    3 1    
     8   23    3 1    
     9   30    3 1    
    10   11    4 1    
    11   19    4 2    
    12   20    4 2    
    13    6    5 ar   
    14   10    5 ar   
    15    7    6 ar   
    16   31    6 1    
    17    8    7 ar   
    18   32    7 1    
    19    9    8 ar   
    20   33    8 1    
    21   10    9 ar   
    22   34   10 1    
    23   12   11 ar   
    24   16   11 ar   
    25   13   12 ar   
    26   35   12 1    
    27   14   13 ar   
    28   36   13 1    
    29   15   14 ar   
    30   17   14 1    
    31   16   15 ar   
    32   37   15 1    
    33   38   16 1    
    34   18   17 1    
    35   41   18 1    
    36   42   18 1    
    37   43   18 1    
    38   22   21 am   
    39   26   21 2    
    40   27   22 1    
    41   39   22 1    
    42   24   23 1    
    43   25   23 1    
    44   40   23 1    
    45   44   24 1    
    46   45   24 1    
    47   46   24 1    
    48   47   25 1    
    49   48   25 1    
    50   49   25 1    
    51   50   27 1    
@<TRIPOS>SUBSTRUCTURE
     1 CGS1273     1 GROUP   
@<TRIPOS>SET

