#    Name: 1jcg_ANP_1_INTS_M
#    Modification time : Tue Mar 25 08:43:29 2014

@<TRIPOS>MOLECULE
1jcg_ANP_1_INTS_M
   61     0     9     0     0
SMALL
NO_CHARGES


@<TRIPOS>ATOM
      1 N          22.9690    5.4760  121.8920 N.am      2 SEC2        0.0000 
      2 N          22.6870    6.7240  122.5980 N.am      8 SEL2        0.0000 
      3 N          23.2510    4.2280  121.1860 N.am      5 SEP2        0.0000 
      4 N          21.7350    6.2585  121.6630 N.am      2 SEC2        0.0000 
      5 N          20.7830    5.7930  120.7280 N.am      5 SEP2        0.0000 
      6 N          21.0545    7.1895  122.4760 N.am      2 SEC2        0.0000 
      7 N          19.4220    7.6550  122.3540 N.am      5 SEP2        0.0000 
      8 N          26.6920    3.8170  124.9115 N.am      2 SEC2        0.0000 
      9 N          27.0950    5.2010  124.7080 N.am      8 SEL2        0.0000 
     10 N          26.2890    2.4330  125.1150 N.am      5 SEP2        0.0000 
     11 N          27.8900    4.4030  125.5195 N.am      2 SEC2        0.0000 
     12 N          28.6850    3.6050  126.3310 N.am      5 SEP2        0.0000 
     13 N          28.6925    9.9015  121.8140 N.am      2 SEC2        0.0000 
     14 N          28.2950    9.3770  122.8590 N.am      8 SEL2        0.0000 
     15 N          29.0900   10.4260  120.7690 N.am      5 SEP2        0.0000 
     16 N          26.2395    6.4860  122.2455 N.am      2 SEC2        0.0000 
     17 N          26.9750    7.2020  123.2960 N.am      8 SEL2        0.0000 
     18 N          25.5040    5.7700  121.1950 N.am      5 SEP2        0.0000 
     19 CA         29.5725    7.6895  120.9240 C.3       3 GLC5        0.0000 
     20 CA         29.0100    5.8050  121.6180 C.3       9 GLL5        0.0000 
     21 CA         30.1350    9.5740  120.2300 C.3       6 GLP5        0.0000 
     22 CA         27.6140    4.6845  118.5605 C.3       3 GLC5        0.0000 
     23 CA         29.0240    5.2010  120.2040 C.3       9 GLL5        0.0000 
     24 CA         26.2040    4.1680  116.9170 C.3       6 GLP5        0.0000 
     25 CA         28.6660    6.7595  118.6925 C.3       3 GLC5        0.0000 
     26 CA         28.3080    8.3180  117.1810 C.3       6 GLP5        0.0000 
     27 N          29.2085    3.2815  117.7050 N.am      2 SEC2        0.0000 
     28 N          28.8730    3.1440  119.0990 N.am      8 SEL2        0.0000 
     29 N          29.5440    3.4190  116.3110 N.am      5 SEP2        0.0000 
     30 N          30.5055    3.2910  117.3515 N.am      2 SEC2        0.0000 
     31 N          31.4670    3.1630  118.3920 N.am      8 SEL2        0.0000 
     32 O          32.0490    1.9680  119.1785 O.2       1 ALC1        0.0000 
     33 O          31.4670    3.1630  118.3920 O.2       7 ALL1        0.0000 
     34 O          32.6310    0.7730  119.9650 O.2       4 ALP1        0.0000 
     35 CA         29.6040    6.8505  117.8990 C.3       3 GLC5        0.0000 
     36 CA         30.9000    5.3830  118.6170 C.3       9 GLL5        0.0000 
     37 CA         33.6735    8.9440  117.9180 C.3       3 GLC5        0.0000 
     38 CA         33.8200    7.1850  117.1630 C.3       9 GLL5        0.0000 
     39 CA         33.5270   10.7030  118.6730 C.3       6 GLP5        0.0000 
     40 CA         33.7685    9.3835  116.1400 C.3       3 GLC5        0.0000 
     41 CA         34.5210    7.8080  116.0350 C.3       9 GLL5        0.0000 
     42 CA         33.0160   10.9590  116.2450 C.3       6 GLP5        0.0000 
     43 CA         31.9740    5.4825  113.8410 C.3       3 GLC5        0.0000 
     44 CA         32.5770    7.3620  114.7160 C.3       9 GLL5        0.0000 
     45 CA         31.3710    3.6030  112.9660 C.3       6 GLP5        0.0000 
     46 CA         33.8650    5.7200  115.4965 C.3       3 GLC5        0.0000 
     47 CA         35.1530    4.0780  116.2770 C.3       6 GLP5        0.0000 
     48 CA         32.7965    9.1605  115.4805 C.3       3 GLC5        0.0000 
     49 CA         31.6405    7.3935  113.1600 C.3       3 GLC5        0.0000 
     50 CA         30.7040    7.4250  111.6040 C.3       6 GLP5        0.0000 
     51 CA         31.6050    4.9770  116.1960 C.3       3 GLC5        0.0000 
     52 CA         32.5110    6.6570  117.0240 C.3       9 GLL5        0.0000 
     53 CA         30.6990    3.2970  115.3680 C.3       6 GLP5        0.0000 
     54 CA         32.7635    8.8080  116.6345 C.3       3 GLC5        0.0000 
     55 CA         28.6745    3.8387  121.9895 C.3       3 GLC5        0.0000 
     56 CA         28.0040    3.0080  123.4930 C.3       6 GLP5        0.0000 
     57 CA         27.4800    4.5482  120.5870 C.3       3 GLC5        0.0000 
     58 CA         25.6150    4.4270  120.6880 C.3       6 GLP5        0.0000 
     59 CA         30.8375    4.0225  117.1780 C.3       3 GLC5        0.0000 
     60 CA         31.0520    4.1130  119.3590 C.3       9 GLL5        0.0000 
     61 CA         34.2469    5.5774  116.5443 C.3       3 GLC5        0.0000 
@<TRIPOS>BOND
@<TRIPOS>SUBSTRUCTURE
     1 ALC1       32 GROUP        1 X    ALC  0     ROOT ALC X 1
     2 SEC2        1 GROUP        1 X    SEC  0     **** SEC X 2
     3 GLC5       19 GROUP        1 X    GLC  0     **** GLC X 6
     4 ALP1       34 GROUP        1 Y    ALP  0     ROOT ALP Y 8
     5 SEP2        3 GROUP        1 Y    SEP  0     **** SEP Y 9
     6 GLP5       21 GROUP        1 Y    GLP  0     **** GLP Y 13
     7 ALL1       33 GROUP        1 Z    ALL  0     ROOT ALL Z 15
     8 SEL2        2 GROUP        1 Z    SEL  0     **** SEL Z 16
     9 GLL5       20 GROUP        1 Z    GLL  0     **** GLL Z 20
@<TRIPOS>SET

