#    Name: 1jcg_ANP_1_ligand
#    Modification time : Tue Mar 25 08:43:30 2014

@<TRIPOS>MOLECULE
1jcg_ANP_1_ligand
   43    45     1     0     0
SMALL
NO_CHARGES


@<TRIPOS>ATOM
      1 PG         23.2430    6.8540  124.0490 P.3       1 ANP346      0.0000 
      2 O1G        22.6870    6.7240  122.5980 O.co2     1 ANP346      0.0000 
      3 O2G        23.7250    8.2810  124.4330 O.co2     1 ANP346      0.0000 
      4 O3G        22.3750    6.2010  125.1280 O.co2     1 ANP346      0.0000 
      5 PB         26.1400    6.2730  124.4000 P.3       1 ANP346      0.0000 
      6 O1B        26.0040    7.2280  125.5920 O.co2     1 ANP346      0.0000 
      7 O2B        27.0950    5.2010  124.7080 O.co2     1 ANP346      0.0000 
      8 N3B        24.6510    5.9070  124.0410 N.4       1 ANP346      0.0000 
      9 PA         28.4240    7.8560  122.9740 P.3       1 ANP346      0.0000 
     10 O1A        28.2950    9.3770  122.8590 O.co2     1 ANP346      0.0000 
     11 O2A        29.4670    7.3890  124.0030 O.co2     1 ANP346      0.0000 
     12 O3A        26.9750    7.2020  123.2960 O.3       1 ANP346      0.0000 
     13 O5'        28.6860    7.1910  121.5000 O.3       1 ANP346      0.0000 
     14 C5'        29.0100    5.8050  121.6180 C.3       1 ANP346      0.0000 
     15 C4'        29.0240    5.2010  120.2040 C.3       1 ANP346      0.0000 
     16 O4'        29.9110    6.0190  119.4150 O.3       1 ANP346      0.0000 
     17 C3'        29.6730    3.8360  120.0610 C.3       1 ANP346      0.0000 
     18 O3'        28.8730    3.1440  119.0990 O.3       1 ANP346      0.0000 
     19 C2'        31.0520    4.1130  119.3590 C.3       1 ANP346      0.0000 
     20 O2'        31.4670    3.1630  118.3920 O.3       1 ANP346      0.0000 
     21 C1'        30.9000    5.3830  118.6170 C.3       1 ANP346      0.0000 
     22 N9         32.1940    6.1450  118.2500 N.pl3     1 ANP346      0.0000 
     23 C8         33.2590    6.3740  119.0790 C.2       1 ANP346      0.0000 
     24 N7         34.2570    7.0120  118.4300 N.2       1 ANP346      0.0000 
     25 C5         33.8200    7.1850  117.1630 C.ar      1 ANP346      0.0000 
     26 C6         34.5210    7.8080  116.0350 C.ar      1 ANP346      0.0000 
     27 N6         35.8000    8.3120  116.2240 N.pl3     1 ANP346      0.0000 
     28 N1         33.8640    7.8820  114.7750 N.ar      1 ANP346      0.0000 
     29 C2         32.5770    7.3620  114.7160 C.ar      1 ANP346      0.0000 
     30 N3         31.9220    6.7720  115.7690 N.ar      1 ANP346      0.0000 
     31 C4         32.5110    6.6570  117.0240 C.ar      1 ANP346      0.0000 
     32 H          28.2724    5.2601  122.2029 H         1 ANP346      0.0000 
     33 H          29.9946    5.6500  122.0534 H         1 ANP346      0.0000 
     34 H          28.0638    5.1962  119.7820 H         1 ANP346      0.0000 
     35 H          29.8052    3.3789  120.9406 H         1 ANP346      0.0000 
     36 H          31.7870    4.2670  120.1287 H         1 ANP346      0.0000 
     37 H          30.3931    5.0866  117.6460 H         1 ANP346      0.0000 
     38 H          33.2843    6.1055  120.0214 H         1 ANP346      0.0000 
     39 H          36.1940    8.1824  117.1339 H         1 ANP346      0.0000 
     40 H          36.2171    8.7612  115.4339 H         1 ANP346      0.0000 
     41 H          32.0668    7.4289  113.7837 H         1 ANP346      0.0000 
     42 H          28.3041    2.5210  119.6358 H         1 ANP346      0.0000 
     43 H          31.8521    2.4068  118.9210 H         1 ANP346      0.0000 
@<TRIPOS>BOND
     1    2    1 ar   
     2    3    1 ar   
     3    4    1 ar   
     4    8    1 1    
     5    6    5 ar   
     6    7    5 ar   
     7    8    5 1    
     8   12    5 1    
     9   10    9 ar   
    10   11    9 ar   
    11   12    9 1    
    12   13    9 1    
    13   14   13 1    
    14   15   14 1    
    15   32   14 1    
    16   33   14 1    
    17   16   15 1    
    18   17   15 1    
    19   34   15 1    
    20   21   16 1    
    21   18   17 1    
    22   19   17 1    
    23   35   17 1    
    24   42   18 1    
    25   20   19 1    
    26   21   19 1    
    27   36   19 1    
    28   43   20 1    
    29   22   21 1    
    30   37   21 1    
    31   23   22 1    
    32   31   22 1    
    33   24   23 2    
    34   38   23 1    
    35   25   24 1    
    36   26   25 ar   
    37   31   25 ar   
    38   27   26 1    
    39   28   26 ar   
    40   39   27 1    
    41   40   27 1    
    42   29   28 ar   
    43   30   29 ar   
    44   41   29 1    
    45   31   30 ar   
@<TRIPOS>SUBSTRUCTURE
     1 ANP346      1 GROUP   
@<TRIPOS>SET

