#    Name: 3bqd_DAY_1_INTS_M
#    Modification time : Mon Mar 24 19:56:59 2014

@<TRIPOS>MOLECULE
3bqd_DAY_1_INTS_M
   99     0     9     0     0
SMALL
NO_CHARGES


@<TRIPOS>ATOM
      1 CA         38.9165   31.9630   11.8415 C.3       3 GLC5        0.0000 
      2 CA         38.1420   31.6110    9.9440 C.3       9 GLL5        0.0000 
      3 CA         39.6910   32.3150   13.7390 C.3       6 GLP5        0.0000 
      4 O          38.1055   27.7045   12.3710 O.2       1 ALC1        0.0000 
      5 O          38.3530   28.4230   11.2960 O.2       7 ALL1        0.0000 
      6 O          37.8580   26.9860   13.4460 O.2       4 ALP1        0.0000 
      7 CA         40.8550   33.3335    6.7675 C.3       3 GLC5        0.0000 
      8 CA         39.0030   32.2150    7.2770 C.3       9 GLL5        0.0000 
      9 CA         42.7070   34.4520    6.2580 C.3       6 GLP5        0.0000 
     10 CA         42.9845   29.5640    8.2215 C.3       3 GLC5        0.0000 
     11 CA         41.1150   29.0380    7.6490 C.3       9 GLL5        0.0000 
     12 CA         44.8540   30.0900    8.7940 C.3       6 GLP5        0.0000 
     13 CA         40.2460   26.8120    7.7580 C.3       3 GLC5        0.0000 
     14 CA         40.6080   28.5240    9.0420 C.3       9 GLL5        0.0000 
     15 CA         39.8840   25.1000    6.4740 C.3       6 GLP5        0.0000 
     16 CA         37.9130   29.2895   12.7300 C.3       3 GLC5        0.0000 
     17 CA         39.5070   29.2590   11.3730 C.3       9 GLL5        0.0000 
     18 CA         36.3190   29.3200   14.0870 C.3       6 GLP5        0.0000 
     19 CA         41.2080   25.8550    7.9045 C.3       3 GLC5        0.0000 
     20 CA         42.5320   26.6100    9.3350 C.3       9 GLL5        0.0000 
     21 CA         43.9505   27.0055    7.8285 C.3       3 GLC5        0.0000 
     22 CA         45.3690   27.4010    6.3220 C.3       6 GLP5        0.0000 
     23 CA         42.1580   23.8915   10.6625 C.3       3 GLC5        0.0000 
     24 CA         43.0420   25.9020   10.5710 C.3       9 GLL5        0.0000 
     25 CA         41.2740   21.8810   10.7540 C.3       6 GLP5        0.0000 
     26 CA         39.4355   24.3045   10.3735 C.3       3 GLC5        0.0000 
     27 CA         40.0960   26.1200   10.9890 C.3       9 GLL5        0.0000 
     28 CA         38.7750   22.4890    9.7580 C.3       6 GLP5        0.0000 
     29 CA         38.6765   24.9160   12.1000 C.3       3 GLC5        0.0000 
     30 CA         37.2570   23.7120   13.2110 C.3       6 GLP5        0.0000 
     31 CA         35.9925   30.4525    9.4505 C.3       3 GLC5        0.0000 
     32 CA         37.5760   29.6320    8.7720 C.3       9 GLL5        0.0000 
     33 CA         34.4090   31.2730   10.1290 C.3       6 GLP5        0.0000 
     34 CA         36.8640   27.8720    7.6955 C.3       3 GLC5        0.0000 
     35 CA         36.1520   26.1120    6.6190 C.3       6 GLP5        0.0000 
     36 CA         37.2135   30.1705    6.8680 C.3       3 GLC5        0.0000 
     37 CA         36.8510   30.7090    4.9640 C.3       6 GLP5        0.0000 
     38 CA         41.9240   27.3840   15.9085 C.3       3 GLC5        0.0000 
     39 CA         41.7310   26.2440   14.4560 C.3       9 GLL5        0.0000 
     40 CA         42.1170   28.5240   17.3610 C.3       6 GLP5        0.0000 
     41 CA         41.4390   24.3700   15.3390 C.3       3 GLC5        0.0000 
     42 CA         41.1470   22.4960   16.2220 C.3       6 GLP5        0.0000 
     43 O          44.4795   27.3420   12.9170 O.2       1 ALC1        0.0000 
     44 O          43.4710   27.7710   12.1700 O.2       7 ALL1        0.0000 
     45 O          45.4880   26.9130   13.6640 O.2       4 ALP1        0.0000 
     46 N          39.7440   25.8945   15.4535 N.am      2 SEC2        0.0000 
     47 N          41.2720   25.1960   15.2950 N.am      8 SEL2        0.0000 
     48 N          38.2160   26.5930   15.6120 N.am      5 SEP2        0.0000 
     49 N          35.8655   35.7040    8.3750 N.am      2 SEC2        0.0000 
     50 N          37.2200   34.9760    8.9150 N.am      8 SEL2        0.0000 
     51 N          34.5110   36.4320    7.8350 N.am      5 SEP2        0.0000 
     52 CA         37.2800   32.6460    5.2195 C.3       3 GLC5        0.0000 
     53 CA         37.7090   34.5830    5.4750 C.3       9 GLL5        0.0000 
     54 CA         37.7085   33.0980    3.4190 C.3       3 GLC5        0.0000 
     55 CA         37.6920   35.1850    4.2520 C.3       9 GLL5        0.0000 
     56 CA         37.7250   31.0110    2.5860 C.3       6 GLP5        0.0000 
     57 CA         35.7610   35.6195    6.4450 C.3       3 GLC5        0.0000 
     58 CA         37.4310   36.6720    6.5250 C.3       9 GLL5        0.0000 
     59 CA         34.0910   34.5670    6.3650 C.3       6 GLP5        0.0000 
     60 CA         39.6205   36.7095    6.2680 C.3       3 GLC5        0.0000 
     61 CA         41.8100   36.7470    6.0110 C.3       6 GLP5        0.0000 
     62 CA         38.6020   37.5915    7.7665 C.3       3 GLC5        0.0000 
     63 CA         39.7730   38.5110    9.0080 C.3       6 GLP5        0.0000 
     64 CA         37.7925   39.4490    4.6385 C.3       3 GLC5        0.0000 
     65 CA         37.4230   37.4170    5.1480 C.3       9 GLL5        0.0000 
     66 CA         38.1620   41.4810    4.1290 C.3       6 GLP5        0.0000 
     67 CA         39.2340   30.3645    4.7390 C.3       3 GLC5        0.0000 
     68 CA         40.9330   30.6630    5.7050 C.3       9 GLL5        0.0000 
     69 CA         37.5350   30.0660    3.7730 C.3       6 GLP5        0.0000 
     70 CA         41.2210   30.8820    3.9080 C.3       3 GLC5        0.0000 
     71 CA         41.5090   31.1010    2.1110 C.3       6 GLP5        0.0000 
     72 CA         41.8200   32.5575    5.9815 C.3       3 GLC5        0.0000 
     73 CA         42.8235   31.1485    6.8170 C.3       3 GLC5        0.0000 
     74 CA         44.7140   31.6340    7.9290 C.3       6 GLP5        0.0000 
     75 CA         46.1100   26.9105   11.0595 C.3       3 GLC5        0.0000 
     76 CA         44.5620   25.9160   10.4890 C.3       9 GLL5        0.0000 
     77 CA         47.6580   27.9050   11.6300 C.3       6 GLP5        0.0000 
     78 CA         44.9655   26.6585    8.4055 C.3       3 GLC5        0.0000 
     79 CA         36.2013   31.7512    9.9292 C.3       3 GLC5        0.0000 
     80 CA         37.7322   31.7233    6.3327 C.3       3 GLC5        0.0000 
     81 CA         38.2240   33.2600    8.1260 C.3       9 GLL5        0.0000 
     82 CA         38.3690   30.6535    6.1715 C.3       3 GLC5        0.0000 
     83 CA         39.3060   30.9660    7.7730 C.3       9 GLL5        0.0000 
     84 CA         39.8600   30.5917   12.7498 C.3       3 GLC5        0.0000 
     85 CA         43.4900   28.6615    9.2065 C.3       3 GLC5        0.0000 
     86 CA         41.7200   27.8560    9.9030 C.3       9 GLL5        0.0000 
     87 CA         44.6785   24.4725   10.7740 C.3       3 GLC5        0.0000 
     88 CA         45.5550   23.0360   11.0180 C.3       6 GLP5        0.0000 
     89 CA         39.4580   34.9880    5.1892 C.3       3 GLC5        0.0000 
     90 CA         37.5950   35.2410    6.7120 C.3       9 GLL5        0.0000 
     91 CA         41.2640   35.0640    4.2850 C.3       6 GLP5        0.0000 
     92 CA         35.8815   34.8077    5.7689 C.3       3 GLC5        0.0000 
     93 CA         37.5143   35.6460    2.2955 C.3       3 GLC5        0.0000 
     94 CA         37.4000   35.3830    0.5000 C.3       6 GLP5        0.0000 
     95 CA         39.2269   36.3835    3.9232 C.3       3 GLC5        0.0000 
     96 CA         37.5650   36.6330    3.9300 C.3       9 GLL5        0.0000 
     97 CA         40.9280   36.1040    3.2270 C.3       6 GLP5        0.0000 
     98 CA         40.5346   28.2563    5.8870 C.3       3 GLC5        0.0000 
     99 CA         40.2070   26.3640    5.2630 C.3       6 GLP5        0.0000 
@<TRIPOS>BOND
@<TRIPOS>SUBSTRUCTURE
     1 ALC1        4 GROUP        1 X    ALC  0     ROOT ALC X 1
     2 SEC2       46 GROUP        1 X    SEC  0     **** SEC X 2
     3 GLC5        1 GROUP        1 X    GLC  0     **** GLC X 6
     4 ALP1        6 GROUP        1 Y    ALP  0     ROOT ALP Y 8
     5 SEP2       48 GROUP        1 Y    SEP  0     **** SEP Y 9
     6 GLP5        3 GROUP        1 Y    GLP  0     **** GLP Y 13
     7 ALL1        5 GROUP        1 Z    ALL  0     ROOT ALL Z 15
     8 SEL2       47 GROUP        1 Z    SEL  0     **** SEL Z 16
     9 GLL5        2 GROUP        1 Z    GLL  0     **** GLL Z 20
@<TRIPOS>SET

