#    Name: 3bqd_DAY_1_ligand
#    Modification time : Mon Mar 24 19:56:59 2014

@<TRIPOS>MOLECULE
3bqd_DAY_1_ligand
   72    77     1     0     0
SMALL
NO_CHARGES


@<TRIPOS>ATOM
      1 C1         38.1420   31.6110    9.9440 C.3       1 DAY301      0.0000 
      2 O1         38.3530   28.4230   11.2960 O.3       1 DAY301      0.0000 
      3 C2         37.8450   32.8480    9.5150 C.2       1 DAY301      0.0000 
      4 C3         38.2240   33.2600    8.1260 C.2       1 DAY301      0.0000 
      5 C4         39.0030   32.2150    7.2770 C.2       1 DAY301      0.0000 
      6 C5         39.3060   30.9660    7.7730 C.2       1 DAY301      0.0000 
      7 C6         40.4680   30.2300    6.9850 C.2       1 DAY301      0.0000 
      8 C7         41.1150   29.0380    7.6490 C.2       1 DAY301      0.0000 
      9 C8         40.6080   28.5240    9.0420 C.3       1 DAY301      0.0000 
     10 C9         40.0170   29.7340    9.9410 C.3       1 DAY301      0.0000 
     11 C10        38.8500   30.4950    9.1820 C.3       1 DAY301      0.0000 
     12 C11        39.5070   29.2590   11.3730 C.3       1 DAY301      0.0000 
     13 C12        40.5510   28.4780   12.1480 C.3       1 DAY301      0.0000 
     14 C13        41.1880   27.2840   11.3080 C.3       1 DAY301      0.0000 
     15 C14        41.7200   27.8560    9.9030 C.3       1 DAY301      0.0000 
     16 C15        42.5320   26.6100    9.3350 C.3       1 DAY301      0.0000 
     17 C16        43.0420   25.9020   10.5710 C.3       1 DAY301      0.0000 
     18 C17        42.5010   26.7130   11.8330 C.3       1 DAY301      0.0000 
     19 C18        40.0960   26.1200   10.9890 C.3       1 DAY301      0.0000 
     20 C19        37.5760   29.6320    8.7720 C.3       1 DAY301      0.0000 
     21 C20        42.2520   25.7520   13.0780 C.2       1 DAY301      0.0000 
     22 C21        41.7310   26.2440   14.4560 C.3       1 DAY301      0.0000 
     23 N1         37.5740   34.5120    7.7400 N.pl3     1 DAY301      0.0000 
     24 O2         43.4710   27.7710   12.1700 O.3       1 DAY301      0.0000 
     25 O3         42.4750   24.5520   12.9800 O.2       1 DAY301      0.0000 
     26 O4         41.2720   25.1960   15.2950 O.3       1 DAY301      0.0000 
     27 C22        37.1130   34.0970   10.2160 C.2       1 DAY301      0.0000 
     28 N2         37.2200   34.9760    8.9150 N.2       1 DAY301      0.0000 
     29 C23        37.7090   34.5830    5.4750 C.ar      1 DAY301      0.0000 
     30 C24        37.5950   35.2410    6.7120 C.ar      1 DAY301      0.0000 
     31 C25        37.6920   35.1850    4.2520 C.ar      1 DAY301      0.0000 
     32 C26        37.5650   36.6330    3.9300 C.ar      1 DAY301      0.0000 
     33 C27        37.4310   36.6720    6.5250 C.ar      1 DAY301      0.0000 
     34 C29        37.4230   37.4170    5.1480 C.ar      1 DAY301      0.0000 
     35 C28        40.9330   30.6630    5.7050 C.3       1 DAY301      0.0000 
     36 C30        44.5620   25.9160   10.4890 C.3       1 DAY301      0.0000 
     37 H          37.1687   31.0802   10.3791 H         1 DAY301      0.0000 
     38 H          38.7314   31.6630   10.9776 H         1 DAY301      0.0000 
     39 H          39.2607   32.5326    6.3457 H         1 DAY301      0.0000 
     40 H          41.8641   28.5616    7.2238 H         1 DAY301      0.0000 
     41 H          39.8074   27.8271    8.9096 H         1 DAY301      0.0000 
     42 H          40.8215   30.4463   10.0955 H         1 DAY301      0.0000 
     43 H          39.2798   30.1629   11.9448 H         1 DAY301      0.0000 
     44 H          40.1090   28.0430   13.0481 H         1 DAY301      0.0000 
     45 H          41.3697   29.1357   12.4510 H         1 DAY301      0.0000 
     46 H          42.4799   28.6010   10.1956 H         1 DAY301      0.0000 
     47 H          43.3313   26.9814    8.7512 H         1 DAY301      0.0000 
     48 H          41.8569   25.9996    8.7972 H         1 DAY301      0.0000 
     49 H          42.6701   24.9250   10.6071 H         1 DAY301      0.0000 
     50 H          40.9324   26.9873   14.2463 H         1 DAY301      0.0000 
     51 H          42.5610   26.8160   14.9232 H         1 DAY301      0.0000 
     52 H          36.8316   34.1989   10.9125 H         1 DAY301      0.0000 
     53 H          37.8177   33.5194    5.5143 H         1 DAY301      0.0000 
     54 H          37.7798   34.5665    3.3695 H         1 DAY301      0.0000 
     55 H          37.5769   36.9731    3.0613 H         1 DAY301      0.0000 
     56 H          37.3059   37.2884    7.3448 H         1 DAY301      0.0000 
     57 H          37.3219   38.3908    5.1582 H         1 DAY301      0.0000 
     58 H          40.4957   25.3702   10.4617 H         1 DAY301      0.0000 
     59 H          39.7217   25.7223   11.8267 H         1 DAY301      0.0000 
     60 H          39.3231   26.4707   10.4602 H         1 DAY301      0.0000 
     61 H          37.8057   28.9256    8.1025 H         1 DAY301      0.0000 
     62 H          37.1721   29.1682    9.5606 H         1 DAY301      0.0000 
     63 H          36.8588   30.1984    8.3661 H         1 DAY301      0.0000 
     64 H          41.2880   31.5974    5.7354 H         1 DAY301      0.0000 
     65 H          41.6695   30.0806    5.3609 H         1 DAY301      0.0000 
     66 H          40.2040   30.6486    5.0207 H         1 DAY301      0.0000 
     67 H          44.9805   25.4597   11.2742 H         1 DAY301      0.0000 
     68 H          44.8940   25.4507    9.6684 H         1 DAY301      0.0000 
     69 H          44.9240   26.8478   10.4643 H         1 DAY301      0.0000 
     70 H          38.5764   27.6219   11.8513 H         1 DAY301      0.0000 
     71 H          44.1630   27.3180   12.7320 H         1 DAY301      0.0000 
     72 H          41.6075   24.3566   14.8675 H         1 DAY301      0.0000 
@<TRIPOS>BOND
     1    3    1 1    
     2   11    1 1    
     3   37    1 1    
     4   38    1 1    
     5   12    2 1    
     6   70    2 1    
     7    4    3 2    
     8   27    3 1    
     9    5    4 1    
    10   23    4 1    
    11    6    5 2    
    12   39    5 1    
    13    7    6 1    
    14   11    6 1    
    15    8    7 2    
    16   35    7 1    
    17    9    8 1    
    18   40    8 1    
    19   10    9 1    
    20   15    9 1    
    21   41    9 1    
    22   11   10 1    
    23   12   10 1    
    24   42   10 1    
    25   20   11 1    
    26   13   12 1    
    27   43   12 1    
    28   14   13 1    
    29   44   13 1    
    30   45   13 1    
    31   15   14 1    
    32   18   14 1    
    33   19   14 1    
    34   16   15 1    
    35   46   15 1    
    36   17   16 1    
    37   47   16 1    
    38   48   16 1    
    39   18   17 1    
    40   36   17 1    
    41   49   17 1    
    42   21   18 1    
    43   24   18 1    
    44   58   19 1    
    45   59   19 1    
    46   60   19 1    
    47   61   20 1    
    48   62   20 1    
    49   63   20 1    
    50   22   21 1    
    51   25   21 2    
    52   26   22 1    
    53   50   22 1    
    54   51   22 1    
    55   28   23 1    
    56   30   23 1    
    57   71   24 1    
    58   72   26 1    
    59   28   27 2    
    60   52   27 1    
    61   30   29 ar   
    62   31   29 ar   
    63   53   29 1    
    64   33   30 ar   
    65   32   31 ar   
    66   54   31 1    
    67   34   32 ar   
    68   55   32 1    
    69   34   33 ar   
    70   56   33 1    
    71   57   34 1    
    72   64   35 1    
    73   65   35 1    
    74   66   35 1    
    75   67   36 1    
    76   68   36 1    
    77   69   36 1    
@<TRIPOS>SUBSTRUCTURE
     1 DAY301      1 GROUP   
@<TRIPOS>SET

