#    Name: 3ESZ_1_CAVITY_N1_6.mol2
#    Modification time : Mon Mar 10 14:08:27 2014

@<TRIPOS>MOLECULE
3ESZ_1_CAVITY_N1_6.mol2
   72     0     7     0     0
SMALL
NO_CHARGES


@<TRIPOS>ATOM
      1 CZ         20.2266    0.4613   21.9230 C.ar      5 PHE5        0.0000 
      2 CZ         16.7427    2.6618   23.7314 C.ar      5 PHE5        0.0000 
      3 CZ         19.2778   -0.4711   21.2299 C.ar      5 PHE5        0.0000 
      4 CZ         18.1165    0.2624   21.8327 C.ar      5 PHE5        0.0000 
      5 CZ         16.9552    0.9959   22.4355 C.ar      5 PHE5        0.0000 
      6 CZ         15.7939    1.7294   23.0383 C.ar      5 PHE5        0.0000 
      7 N          14.6326    2.4629   23.6411 N.2       2 ALA2        0.0000 
      8 OG         20.6517   -2.8706   19.3312 O.2       1 SER1        0.0000 
      9 OG         19.4904   -2.1371   19.9340 O.2       1 SER1        0.0000 
     10 CZ         18.3291   -1.4036   20.5368 C.ar      5 PHE5        0.0000 
     11 CZ         17.1678   -0.6701   21.1396 C.ar      5 PHE5        0.0000 
     12 CZ         16.0065    0.0634   21.7424 C.ar      5 PHE5        0.0000 
     13 N          14.8452    0.7969   22.3452 N.2       2 ALA2        0.0000 
     14 DU         19.7029   -3.8030   18.6380 H         7 CUB7        0.0000 
     15 DU         18.5416   -3.0695   19.2408 H         7 CUB7        0.0000 
     16 OG         17.3803   -2.3360   19.8437 O.2       1 SER1        0.0000 
     17 CZ         16.2190   -1.6025   20.4465 C.ar      5 PHE5        0.0000 
     18 CZ         15.0578   -0.8690   21.0493 C.ar      5 PHE5        0.0000 
     19 N          13.8965   -0.1356   21.6521 N.2       2 ALA2        0.0000 
     20 OG         17.5929   -4.0020   18.5477 O.2       1 SER1        0.0000 
     21 CZ         12.9477   -1.0680   20.9589 C.ar      5 PHE5        0.0000 
     22 N          11.7864   -0.3345   21.5617 N.2       2 ALA2        0.0000 
     23 CA         20.6875   -3.7885   20.5170 C.3       6 GLY6        0.0000 
     24 CA         19.5262   -3.0550   21.1198 C.3       6 GLY6        0.0000 
     25 CZ         18.3649   -2.3215   21.7226 C.ar      5 PHE5        0.0000 
     26 CZ         16.0423   -0.8545   22.9282 C.ar      5 PHE5        0.0000 
     27 CA         19.7387   -4.7209   19.8239 C.3       6 GLY6        0.0000 
     28 CA         18.5774   -3.9874   20.4267 C.3       6 GLY6        0.0000 
     29 CZ         17.4161   -3.2539   21.0295 C.ar      5 PHE5        0.0000 
     30 CZ         16.2548   -2.5204   21.6323 C.ar      5 PHE5        0.0000 
     31 CZ         15.0935   -1.7869   22.2351 C.ar      5 PHE5        0.0000 
     32 CA         18.7900   -5.6534   19.1307 C.3       6 GLY6        0.0000 
     33 OG         17.6287   -4.9199   19.7336 O.2       1 SER1        0.0000 
     34 OG         15.3061   -3.4529   20.9392 O.2       1 SER1        0.0000 
     35 CZ         14.1448   -2.7194   21.5420 C.ar      5 PHE5        0.0000 
     36 N          12.9835   -1.9859   22.1448 N.2       2 ALA2        0.0000 
     37 CA         17.4519   -4.1718   22.2153 C.3       6 GLY6        0.0000 
     38 CZ         16.2906   -3.4383   22.8181 C.ar      5 PHE5        0.0000 
     39 CZ         15.1293   -2.7048   23.4209 C.ar      5 PHE5        0.0000 
     40 OG         16.5032   -5.1043   21.5222 O.2       1 SER1        0.0000 
     41 OG         15.3419   -4.3708   22.1250 O.2       1 SER1        0.0000 
     42 O          14.1806   -3.6373   22.7278 O.2       2 ALA2        0.0000 
     43 NZ         16.6711    4.4976   21.3598 N.2       4 LYS4        0.0000 
     44 NZ         19.2062    1.3647   18.8582 N.2       4 LYS4        0.0000 
     45 NZ         15.7224    3.5651   20.6667 N.2       4 LYS4        0.0000 
     46 NZ         18.2575    0.4322   18.1651 N.2       4 LYS4        0.0000 
     47 O          14.7736    2.6327   19.9735 O.2       2 ALA2        0.0000 
     48 NZ         18.4701   -1.2338   16.8692 N.2       4 LYS4        0.0000 
     49 NZ         17.3088   -0.5003   17.4720 N.2       4 LYS4        0.0000 
     50 OD1        20.1908    1.3792   20.7372 O.3       3 ASP3        0.0000 
     51 OD1        19.0295    2.1127   21.3400 O.3       3 ASP3        0.0000 
     52 OD1        17.8682    2.8462   21.9428 O.3       3 ASP3        0.0000 
     53 OG         16.7069    3.5797   22.5456 O.2       1 SER1        0.0000 
     54 OG         15.5456    4.3132   23.1484 O.2       1 SER1        0.0000 
     55 OG         20.4033   -0.2867   19.4413 O.2       1 SER1        0.0000 
     56 OD1        19.2420    0.4468   20.0441 O.3       3 ASP3        0.0000 
     57 NZ         18.0807    1.1803   20.6469 N.2       4 LYS4        0.0000 
     58 NZ         16.9194    1.9138   21.2497 N.2       4 LYS4        0.0000 
     59 NZ         15.7581    2.6472   21.8525 N.2       4 LYS4        0.0000 
     60 CA         14.5968    3.3807   22.4553 C.3       6 GLY6        0.0000 
     61 DU         19.4546   -1.2192   18.7481 H         7 CUB7        0.0000 
     62 DU         18.2933   -0.4857   19.3509 H         7 CUB7        0.0000 
     63 NZ         17.1320    0.2478   19.9537 N.2       4 LYS4        0.0000 
     64 NZ         15.9707    0.9813   20.5566 N.2       4 LYS4        0.0000 
     65 O          14.8094    1.7148   21.1594 O.2       2 ALA2        0.0000 
     66 CA         13.6481    2.4483   21.7622 C.3       6 GLY6        0.0000 
     67 DU         18.5059   -2.1516   18.0550 H         7 CUB7        0.0000 
     68 CZ         17.3446   -1.4181   18.6578 C.ar      5 PHE5        0.0000 
     69 CZ         16.1833   -0.6847   19.2606 C.ar      5 PHE5        0.0000 
     70 CA         15.0220    0.0488   19.8634 C.3       6 GLY6        0.0000 
     71 CA         13.8607    0.7823   20.4662 C.3       6 GLY6        0.0000 
     72 O          12.6994    1.5158   21.0690 O.2       2 ALA2        0.0000 
@<TRIPOS>BOND
@<TRIPOS>SUBSTRUCTURE
     1 SER1        8 GROUP   
     2 ALA2        7 GROUP   
     3 ASP3       50 GROUP   
     4 LYS4       43 GROUP   
     5 PHE5        1 GROUP   
     6 GLY6       23 GROUP   
     7 CUB7       14 GROUP   
@<TRIPOS>SET

