#    Name: 3esz_FMN_1_INTS_M
#    Modification time : Tue Mar 25 02:25:09 2014

@<TRIPOS>MOLECULE
3esz_FMN_1_INTS_M
   84     0     9     0     0
SMALL
NO_CHARGES


@<TRIPOS>ATOM
      1 N          12.2350    2.2950   19.9205 N.am      2 SEC2        0.0000 
      2 N          11.9640    1.1920   21.0350 N.am      8 SEL2        0.0000 
      3 N          12.5060    3.3980   18.8060 N.am      5 SEP2        0.0000 
      4 N          11.2725    2.8690   19.8855 N.am      2 SEC2        0.0000 
      5 N          10.0390    2.3400   20.9650 N.am      8 SEL2        0.0000 
      6 N           8.7090    3.0315   21.3590 N.am      2 SEC2        0.0000 
      7 N           7.3790    3.7230   21.7530 N.am      5 SEP2        0.0000 
      8 O           8.4770    0.3455   21.6385 O.2       1 ALC1        0.0000 
      9 O           9.8970    0.1690   21.5880 O.2       7 ALL1        0.0000 
     10 O           7.0570    0.5220   21.6890 O.2       4 ALP1        0.0000 
     11 N           9.0935   -2.7110   23.3150 N.am      2 SEC2        0.0000 
     12 N           9.8550   -1.9790   22.1610 N.am      8 SEL2        0.0000 
     13 N           8.3320   -3.4430   24.4690 N.am      5 SEP2        0.0000 
     14 CA         13.3415   -3.8455   23.3060 C.3       3 GLC5        0.0000 
     15 CA         13.9310   -2.3490   21.7680 C.3       9 GLL5        0.0000 
     16 CA         12.7520   -5.3420   24.8440 C.3       6 GLP5        0.0000 
     17 CA         17.2800   -3.4380   22.9270 C.3       3 GLC5        0.0000 
     18 CA         16.4730   -5.0610   21.5940 C.3       9 GLL5        0.0000 
     19 CA         18.0870   -1.8150   24.2600 C.3       6 GLP5        0.0000 
     20 CA         15.1410   -4.5700   20.1970 C.3       3 GLC5        0.0000 
     21 CA         13.8090   -4.0790   18.8000 C.3       6 GLP5        0.0000 
     22 CA         17.8830   -6.3620   21.2605 C.3       3 GLC5        0.0000 
     23 CA         19.2930   -7.6630   20.9270 C.3       6 GLP5        0.0000 
     24 CA         18.0915   -2.2570   22.6235 C.3       3 GLC5        0.0000 
     25 CA         18.0960   -2.6990   20.9870 C.3       9 GLL5        0.0000 
     26 CA         19.9325   -2.5585   21.7345 C.3       3 GLC5        0.0000 
     27 CA         21.7690   -2.4180   22.4820 C.3       6 GLP5        0.0000 
     28 CA         14.3195    1.5830   19.1495 C.3       3 GLC5        0.0000 
     29 CA         14.7230    1.2620   20.7780 C.3       9 GLL5        0.0000 
     30 CA         13.9160    1.9040   17.5210 C.3       6 GLP5        0.0000 
     31 CA         16.7665    1.2455   23.4740 C.3       3 GLC5        0.0000 
     32 CA         15.2760    1.9950   21.9990 C.3       9 GLL5        0.0000 
     33 CA         18.2570    0.4960   24.9490 C.3       6 GLP5        0.0000 
     34 O          13.5475    1.4575   23.5795 O.2       1 ALC1        0.0000 
     35 O          14.2410    2.3790   22.8880 O.2       7 ALL1        0.0000 
     36 O          12.8540    0.5360   24.2710 O.2       4 ALP1        0.0000 
     37 O          17.2045    3.0510   19.6975 O.2       1 ALC1        0.0000 
     38 O          17.2680    2.7990   20.9540 O.2       7 ALL1        0.0000 
     39 O          17.1410    3.3030   18.4410 O.2       4 ALP1        0.0000 
     40 CA         15.6340    6.0565   22.7605 C.3       3 GLC5        0.0000 
     41 CA         16.3200    4.2580   22.6040 C.3       9 GLL5        0.0000 
     42 CA         14.9480    7.8550   22.9170 C.3       6 GLP5        0.0000 
     43 O          16.2080    6.2390   23.0090 O.2       1 ALC1        0.0000 
     44 O          16.9210    5.4210   22.0460 O.2       7 ALL1        0.0000 
     45 O          15.4950    7.0570   23.9720 O.2       4 ALP1        0.0000 
     46 CA         17.7370    2.1080   24.3275 C.3       3 GLC5        0.0000 
     47 CA         17.2170    3.7200   23.7060 C.3       9 GLL5        0.0000 
     48 N          20.5035    3.8630   26.0485 N.am      2 SEC2        0.0000 
     49 N          19.6950    4.8740   25.1800 N.am      8 SEL2        0.0000 
     50 N          21.3120    2.8520   26.9170 N.am      5 SEP2        0.0000 
     51 N          20.2940    3.8790   24.6320 N.am      2 SEC2        0.0000 
     52 N          20.8930    2.8840   24.0840 N.am      5 SEP2        0.0000 
     53 N          20.2860    6.1595   25.2475 N.am      2 SEC2        0.0000 
     54 N          20.8770    7.4450   25.3150 N.am      5 SEP2        0.0000 
     55 N          18.9370    3.2985   27.8550 N.am      2 SEC2        0.0000 
     56 N          18.3680    3.3870   26.5940 N.am      8 SEL2        0.0000 
     57 N          19.5060    3.2100   29.1160 N.am      5 SEP2        0.0000 
     58 N          19.8400    3.1195   26.7555 N.am      2 SEC2        0.0000 
     59 N          17.3865    2.2705   26.5495 N.am      2 SEC2        0.0000 
     60 N          16.4050    1.1540   26.5050 N.am      5 SEP2        0.0000 
     61 N          19.0280    6.1335   27.6695 N.am      2 SEC2        0.0000 
     62 N          18.1050    5.8720   26.8140 N.am      8 SEL2        0.0000 
     63 N          19.9510    6.3950   28.5250 N.am      5 SEP2        0.0000 
     64 N          18.2405    7.2615   26.3815 N.am      2 SEC2        0.0000 
     65 N          18.3760    8.6510   25.9490 N.am      5 SEP2        0.0000 
     66 N          16.9575    6.7070   26.7000 N.am      2 SEC2        0.0000 
     67 N          15.8100    7.5420   26.5860 N.am      5 SEP2        0.0000 
     68 CA         13.7198   -2.3472   23.8690 C.3       3 GLC5        0.0000 
     69 CA         13.1940   -1.7400   25.8430 C.3       6 GLP5        0.0000 
     70 CA         12.4337   -4.1372   21.8330 C.3       3 GLC5        0.0000 
     71 CA         10.6220   -5.3200   21.7710 C.3       6 GLP5        0.0000 
     72 CA         17.4217   -5.0263   23.2170 C.3       3 GLC5        0.0000 
     73 CA         15.9360   -3.6760   21.8520 C.3       9 GLL5        0.0000 
     74 CA         18.6390   -5.6840   24.7110 C.3       6 GLP5        0.0000 
     75 CA         14.9153   -5.2908   23.1902 C.3       3 GLC5        0.0000 
     76 CA         13.9700   -6.2420   24.6150 C.3       6 GLP5        0.0000 
     77 CA         13.7318    3.1893   21.0968 C.3       3 GLC5        0.0000 
     78 CA         12.4640    4.7500   20.8050 C.3       6 GLP5        0.0000 
     79 CA         14.3235    4.2460   21.4318 C.3       3 GLC5        0.0000 
     80 CA         16.0460    3.2260   21.5130 C.3       9 GLL5        0.0000 
     81 CA         18.4462    4.8370   22.3560 C.3       3 GLC5        0.0000 
     82 CA         20.1240    5.6850   21.5570 C.3       6 GLP5        0.0000 
     83 CA         15.5597    4.2310   24.6875 C.3       3 GLC5        0.0000 
     84 CA         14.3510    4.4730   26.2200 C.3       6 GLP5        0.0000 
@<TRIPOS>BOND
@<TRIPOS>SUBSTRUCTURE
     1 ALC1        8 GROUP        1 X    ALC  0     ROOT ALC X 1
     2 SEC2        1 GROUP        1 X    SEC  0     **** SEC X 2
     3 GLC5       14 GROUP        1 X    GLC  0     **** GLC X 6
     4 ALP1       10 GROUP        1 Y    ALP  0     ROOT ALP Y 8
     5 SEP2        3 GROUP        1 Y    SEP  0     **** SEP Y 9
     6 GLP5       16 GROUP        1 Y    GLP  0     **** GLP Y 13
     7 ALL1        9 GROUP        1 Z    ALL  0     ROOT ALL Z 15
     8 SEL2        2 GROUP        1 Z    SEL  0     **** SEL Z 16
     9 GLL5       15 GROUP        1 Z    GLL  0     **** GLL Z 20
@<TRIPOS>SET

