#    Name: 3esz_FMN_1_ligand
#    Modification time : Tue Mar 25 02:25:09 2014

@<TRIPOS>MOLECULE
3esz_FMN_1_ligand
   50    52     1     0     0
SMALL
NO_CHARGES


@<TRIPOS>ATOM
      1 N1         11.9640    1.1920   21.0350 N.2       1 FMN170      0.0000 
      2 C2         10.6110    1.2750   21.1820 C.2       1 FMN170      0.0000 
      3 O2         10.0390    2.3400   20.9650 O.2       1 FMN170      0.0000 
      4 N3          9.8970    0.1690   21.5880 N.am      1 FMN170      0.0000 
      5 C4         10.5370   -1.0150   21.8340 C.2       1 FMN170      0.0000 
      6 O4          9.8550   -1.9790   22.1610 O.2       1 FMN170      0.0000 
      7 C4A        11.9180   -1.1040   21.6850 C.2       1 FMN170      0.0000 
      8 N5         12.5760   -2.2850   21.9330 N.2       1 FMN170      0.0000 
      9 C5A        13.9310   -2.3490   21.7680 C.ar      1 FMN170      0.0000 
     10 C6         14.5600   -3.5600   22.0220 C.ar      1 FMN170      0.0000 
     11 C7         15.9360   -3.6760   21.8520 C.ar      1 FMN170      0.0000 
     12 C7M        16.4730   -5.0610   21.5940 C.3       1 FMN170      0.0000 
     13 C8         16.6710   -2.5610   21.4490 C.ar      1 FMN170      0.0000 
     14 C8M        18.0960   -2.6990   20.9870 C.3       1 FMN170      0.0000 
     15 C9         16.0430   -1.3410   21.2190 C.ar      1 FMN170      0.0000 
     16 C9A        14.6660   -1.2200   21.3620 C.ar      1 FMN170      0.0000 
     17 N10        14.0090   -0.0210   21.1240 N.pl3     1 FMN170      0.0000 
     18 C10        12.6340    0.0170   21.2740 C.2       1 FMN170      0.0000 
     19 C1'        14.7230    1.2620   20.7780 C.3       1 FMN170      0.0000 
     20 C2'        15.2760    1.9950   21.9990 C.3       1 FMN170      0.0000 
     21 O2'        14.2410    2.3790   22.8880 O.3       1 FMN170      0.0000 
     22 C3'        16.0460    3.2260   21.5130 C.3       1 FMN170      0.0000 
     23 O3'        17.2680    2.7990   20.9540 O.3       1 FMN170      0.0000 
     24 C4'        16.3200    4.2580   22.6040 C.3       1 FMN170      0.0000 
     25 O4'        16.9210    5.4210   22.0460 O.3       1 FMN170      0.0000 
     26 C5'        17.2170    3.7200   23.7060 C.3       1 FMN170      0.0000 
     27 O5'        17.2230    4.6810   24.7430 O.3       1 FMN170      0.0000 
     28 P          18.3820    4.7080   25.8480 P.3       1 FMN170      0.0000 
     29 O1P        19.6950    4.8740   25.1800 O.co2     1 FMN170      0.0000 
     30 O2P        18.3680    3.3870   26.5940 O.co2     1 FMN170      0.0000 
     31 O3P        18.1050    5.8720   26.8140 O.co2     1 FMN170      0.0000 
     32 H           8.8695    0.2385   21.7065 H         1 FMN170      0.0000 
     33 H          14.0113   -4.3708   22.3353 H         1 FMN170      0.0000 
     34 H          16.6037   -0.5214   20.9406 H         1 FMN170      0.0000 
     35 H          14.0314    1.9346   20.2459 H         1 FMN170      0.0000 
     36 H          15.5556    1.0443   20.0901 H         1 FMN170      0.0000 
     37 H          15.9940    1.3366   22.4790 H         1 FMN170      0.0000 
     38 H          15.4340    3.7106   20.7421 H         1 FMN170      0.0000 
     39 H          15.3584    4.5200   23.0614 H         1 FMN170      0.0000 
     40 H          18.2077    3.5610   23.2851 H         1 FMN170      0.0000 
     41 H          16.8123    2.7640   24.0318 H         1 FMN170      0.0000 
     42 H          17.4665   -5.0589   21.4806 H         1 FMN170      0.0000 
     43 H          16.2652   -5.6860   22.3464 H         1 FMN170      0.0000 
     44 H          16.0841   -5.4615   20.7643 H         1 FMN170      0.0000 
     45 H          18.4893   -1.8170   20.7274 H         1 FMN170      0.0000 
     46 H          18.6822   -3.0827   21.7005 H         1 FMN170      0.0000 
     47 H          18.1718   -3.2994   20.1909 H         1 FMN170      0.0000 
     48 H          13.8677    1.5195   23.2371 H         1 FMN170      0.0000 
     49 H          17.4156    3.3978   20.1668 H         1 FMN170      0.0000 
     50 H          16.7809    6.1377   22.7292 H         1 FMN170      0.0000 
@<TRIPOS>BOND
     1    2    1 1    
     2   18    1 2    
     3    3    2 2    
     4    4    2 am   
     5    5    4 am   
     6   32    4 1    
     7    6    5 2    
     8    7    5 1    
     9    8    7 2    
    10   18    7 1    
    11    9    8 1    
    12   10    9 ar   
    13   16    9 ar   
    14   11   10 ar   
    15   33   10 1    
    16   12   11 1    
    17   13   11 ar   
    18   42   12 1    
    19   43   12 1    
    20   44   12 1    
    21   14   13 1    
    22   15   13 ar   
    23   45   14 1    
    24   46   14 1    
    25   47   14 1    
    26   16   15 ar   
    27   34   15 1    
    28   17   16 1    
    29   18   17 1    
    30   19   17 1    
    31   20   19 1    
    32   35   19 1    
    33   36   19 1    
    34   21   20 1    
    35   22   20 1    
    36   37   20 1    
    37   48   21 1    
    38   23   22 1    
    39   24   22 1    
    40   38   22 1    
    41   49   23 1    
    42   25   24 1    
    43   26   24 1    
    44   39   24 1    
    45   50   25 1    
    46   27   26 1    
    47   40   26 1    
    48   41   26 1    
    49   28   27 1    
    50   29   28 ar   
    51   30   28 ar   
    52   31   28 ar   
@<TRIPOS>SUBSTRUCTURE
     1 FMN170      1 GROUP   
@<TRIPOS>SET

