#    Name: 4I53_2_CAVITY_N1_ALL.mol2
#    Modification time : Tue Mar 11 04:27:52 2014

@<TRIPOS>MOLECULE
4I53_2_CAVITY_N1_ALL.mol2
   63     0     6     0     0
SMALL
NO_CHARGES


@<TRIPOS>ATOM
      1 CA        -11.8991  -60.2911   19.2109 C.3       5 GLY6        0.0000 
      2 NZ        -13.9454  -61.3974   21.6273 N.2       3 LYS4        0.0000 
      3 NZ        -13.6003  -61.0803   20.2024 N.2       3 LYS4        0.0000 
      4 NZ        -13.2553  -60.7632   18.7774 N.2       3 LYS4        0.0000 
      5 N         -12.9103  -60.4461   17.3525 N.2       2 ALA2        0.0000 
      6 DU        -14.9565  -61.5524   19.7689 H         6 CUB7        0.0000 
      7 DU        -14.6115  -61.2353   18.3440 H         6 CUB7        0.0000 
      8 N         -14.2665  -60.9182   16.9191 N.2       2 ALA2        0.0000 
      9 DU        -15.9677  -61.7074   17.9106 H         6 CUB7        0.0000 
     10 N         -15.6227  -61.3903   16.4856 N.2       2 ALA2        0.0000 
     11 N         -15.2777  -61.0732   15.0607 N.2       2 ALA2        0.0000 
     12 O         -16.6339  -61.5453   14.6273 O.2       2 ALA2        0.0000 
     13 CA        -12.7842  -59.2202   20.8139 C.3       5 GLY6        0.0000 
     14 NZ        -12.4392  -58.9031   19.3890 N.2       3 LYS4        0.0000 
     15 CA        -14.4855  -60.0094   21.8054 C.3       5 GLY6        0.0000 
     16 CA        -14.1404  -59.6923   20.3805 C.3       5 GLY6        0.0000 
     17 DU        -13.7954  -59.3752   18.9555 H         6 CUB7        0.0000 
     18 N         -13.4504  -59.0581   17.5306 N.2       2 ALA2        0.0000 
     19 DU        -15.4966  -60.1644   19.9470 H         6 CUB7        0.0000 
     20 DU        -15.1516  -59.8473   18.5221 H         6 CUB7        0.0000 
     21 N         -14.8066  -59.5302   17.0972 N.2       2 ALA2        0.0000 
     22 DU        -16.5078  -60.3194   18.0887 H         6 CUB7        0.0000 
     23 N         -16.1628  -60.0023   16.6637 N.2       2 ALA2        0.0000 
     24 N         -15.8178  -59.6852   15.2388 N.2       2 ALA2        0.0000 
     25 N         -17.1740  -60.1573   14.8054 N.2       2 ALA2        0.0000 
     26 CA        -12.9793  -57.5151   19.5671 C.3       5 GLY6        0.0000 
     27 N         -12.6343  -57.1980   18.1421 N.2       2 ALA2        0.0000 
     28 CA        -14.6805  -58.3043   20.5586 C.3       5 GLY6        0.0000 
     29 CA        -14.3355  -57.9872   19.1336 C.3       5 GLY6        0.0000 
     30 CA        -13.9905  -57.6701   17.7087 C.3       5 GLY6        0.0000 
     31 CA        -16.0367  -58.7764   20.1251 C.3       5 GLY6        0.0000 
     32 N         -15.6917  -58.4593   18.7002 N.2       2 ALA2        0.0000 
     33 N         -15.3467  -58.1422   17.2753 N.2       2 ALA2        0.0000 
     34 N         -17.3929  -59.2484   19.6917 N.2       2 ALA2        0.0000 
     35 N         -17.0479  -58.9314   18.2668 N.2       2 ALA2        0.0000 
     36 N         -16.7029  -58.6143   16.8419 N.2       2 ALA2        0.0000 
     37 CA         -9.7720  -54.2316   16.3373 C.3       5 GLY6        0.0000 
     38 CA        -11.4732  -55.0208   17.3288 C.3       5 GLY6        0.0000 
     39 CA        -11.1282  -54.7037   15.9038 C.3       5 GLY6        0.0000 
     40 CA        -13.5194  -56.1271   19.7452 C.3       5 GLY6        0.0000 
     41 CA        -13.1744  -55.8100   18.3202 C.3       5 GLY6        0.0000 
     42 CA        -12.8294  -55.4929   16.8953 C.3       5 GLY6        0.0000 
     43 N         -14.5306  -56.2821   17.8868 N.2       2 ALA2        0.0000 
     44 CZ         -8.9559  -52.3715   16.9488 C.ar      4 PHE5        0.0000 
     45 OG        -10.6571  -53.1607   17.9403 O.2       1 SER1        0.0000 
     46 DU        -10.3121  -52.8436   16.5154 H         6 CUB7        0.0000 
     47 CZ         -9.9671  -52.5265   15.0904 C.ar      4 PHE5        0.0000 
     48 CA        -12.3583  -53.9499   18.9318 C.3       5 GLY6        0.0000 
     49 CA        -12.0133  -53.6328   17.5069 C.3       5 GLY6        0.0000 
     50 CA        -11.6683  -53.3157   16.0819 C.3       5 GLY6        0.0000 
     51 O          -9.4960  -50.9835   17.1269 O.2       2 ALA2        0.0000 
     52 CZ         -9.1510  -50.6664   15.7020 C.ar      4 PHE5        0.0000 
     53 OG        -11.1972  -51.7727   18.1184 O.2       1 SER1        0.0000 
     54 CA        -10.8522  -51.4556   16.6935 C.3       5 GLY6        0.0000 
     55 CA        -10.5072  -51.1385   15.2685 C.3       5 GLY6        0.0000 
     56 NZ        -12.7152  -62.1512   18.5993 N.2       3 LYS4        0.0000 
     57 CA        -12.3702  -61.8341   17.1744 C.3       5 GLY6        0.0000 
     58 DU        -14.0714  -62.6233   18.1659 H         6 CUB7        0.0000 
     59 N         -13.7264  -62.3062   16.7410 N.2       2 ALA2        0.0000 
     60 N         -13.3814  -61.9891   15.3160 N.2       2 ALA2        0.0000 
     61 CA        -15.0826  -62.7783   16.3075 C.3       5 GLY6        0.0000 
     62 NZ        -12.1751  -63.5392   18.4212 N.2       3 LYS4        0.0000 
     63 CA        -13.1863  -63.6942   16.5629 C.3       5 GLY6        0.0000 
@<TRIPOS>BOND
@<TRIPOS>SUBSTRUCTURE
     1 SER1       45 GROUP   
     2 ALA2        5 GROUP   
     3 LYS4        2 GROUP   
     4 PHE5       44 GROUP   
     5 GLY6        1 GROUP   
     6 CUB7        6 GROUP   
@<TRIPOS>SET

