#    Name: 4i53_1C1_2_INTS_M
#    Modification time : Tue Mar 25 02:24:00 2014

@<TRIPOS>MOLECULE
4i53_1C1_2_INTS_M
   56     0     6     0     0
SMALL
NO_CHARGES


@<TRIPOS>ATOM
      1 O         -13.7795  -60.5530   15.3575 O.2       1 ALC1        0.0000 
      2 O         -14.4940  -61.6690   16.0730 O.2       5 ALL1        0.0000 
      3 O         -13.0650  -59.4370   14.6420 O.2       3 ALP1        0.0000 
      4 CA        -15.9185  -63.2850   15.5730 C.3       2 GLC5        0.0000 
      5 CA        -15.7880  -61.5000   16.7190 C.3       6 GLL5        0.0000 
      6 CA        -16.0490  -65.0700   14.4270 C.3       4 GLP5        0.0000 
      7 CA        -15.2665  -58.5495   15.5950 C.3       2 GLC5        0.0000 
      8 CA        -16.1070  -60.0380   16.9700 C.3       6 GLL5        0.0000 
      9 CA        -14.4260  -57.0610   14.2200 C.3       4 GLP5        0.0000 
     10 CA        -20.0745  -57.9235   19.0890 C.3       2 GLC5        0.0000 
     11 CA        -18.8940  -59.5630   19.5430 C.3       6 GLL5        0.0000 
     12 CA        -21.2550  -56.2840   18.6350 C.3       4 GLP5        0.0000 
     13 CA        -15.0930  -57.9965   21.7900 C.3       2 GLC5        0.0000 
     14 CA        -16.3150  -59.2470   20.7210 C.3       6 GLL5        0.0000 
     15 CA        -13.8710  -56.7460   22.8590 C.3       4 GLP5        0.0000 
     16 O         -16.0190  -57.1430   17.9950 O.2       1 ALC1        0.0000 
     17 O         -14.8810  -58.2960   17.9950 O.2       5 ALL1        0.0000 
     18 O         -17.1570  -55.9900   17.9950 O.2       3 ALP1        0.0000 
     19 O         -11.1285  -57.1405   16.5830 O.2       1 ALC1        0.0000 
     20 O         -11.9500  -56.1970   17.1330 O.2       5 ALL1        0.0000 
     21 O         -10.3070  -58.0840   16.0330 O.2       3 ALP1        0.0000 
     22 CA        -12.8275  -50.1155   18.2750 C.3       2 GLC5        0.0000 
     23 CA        -11.9710  -51.5360   17.8740 C.3       6 GLL5        0.0000 
     24 CA        -13.6840  -48.6950   18.6760 C.3       4 GLP5        0.0000 
     25 CA        -10.7045  -49.7670   17.9965 C.3       2 GLC5        0.0000 
     26 CA         -9.4380  -47.9980   18.1190 C.3       4 GLP5        0.0000 
     27 CA        -10.1615  -50.7705   13.9260 C.3       2 GLC5        0.0000 
     28 CA         -9.8100  -50.9060   16.0160 C.3       6 GLL5        0.0000 
     29 CA        -10.5130  -50.6350   11.8360 C.3       4 GLP5        0.0000 
     30 CA         -9.6240  -49.4520   17.0675 C.3       2 GLC5        0.0000 
     31 CA         -8.9700  -49.2250   14.7895 C.3       2 GLC5        0.0000 
     32 CA         -8.1300  -47.5440   13.5630 C.3       4 GLP5        0.0000 
     33 CA         -8.2100  -51.4260   15.1540 C.3       2 GLC5        0.0000 
     34 CA         -6.6100  -51.9460   14.2920 C.3       4 GLP5        0.0000 
     35 CA        -13.4310  -53.4582   17.1827 C.3       2 GLC5        0.0000 
     36 CA        -11.5460  -54.8760   16.7480 C.3       6 GLL5        0.0000 
     37 CA        -15.1000  -52.5610   17.3010 C.3       4 GLP5        0.0000 
     38 CA        -10.3837  -51.8582   19.1405 C.3       2 GLC5        0.0000 
     39 CA         -9.0350  -51.6670   20.7270 C.3       4 GLP5        0.0000 
     40 CA        -13.4162  -52.3053   17.4275 C.3       2 GLC5        0.0000 
     41 CA        -12.6932  -51.5282   16.1524 C.3       2 GLC5        0.0000 
     42 CA        -13.5330  -50.6890   14.7140 C.3       4 GLP5        0.0000 
     43 CA        -12.8003  -52.4827   19.2864 C.3       2 GLC5        0.0000 
     44 CA        -13.7470  -52.5980   20.9820 C.3       4 GLP5        0.0000 
     45 CA        -11.8293  -51.1860   15.4277 C.3       2 GLC5        0.0000 
     46 CA        -10.4410  -52.4600   16.2670 C.3       6 GLL5        0.0000 
     47 CA         -8.9370  -55.3665   15.2617 C.3       2 GLC5        0.0000 
     48 CA         -9.9850  -53.6020   15.5840 C.3       6 GLL5        0.0000 
     49 CA         -7.5950  -56.5350   14.8030 C.3       4 GLP5        0.0000 
     50 CA        -10.3288  -55.3939   17.9199 C.3       2 GLC5        0.0000 
     51 CA        -10.5730  -54.7940   15.8570 C.3       6 GLL5        0.0000 
     52 CA         -9.4900  -56.2130   19.3790 C.3       4 GLP5        0.0000 
     53 CA        -12.8823  -55.0844   15.5414 C.3       2 GLC5        0.0000 
     54 CA        -14.5970  -55.5940   14.6220 C.3       4 GLP5        0.0000 
     55 CA        -17.0943  -57.4907   20.4322 C.3       2 GLC5        0.0000 
     56 CA        -16.7880  -55.6610   20.3360 C.3       4 GLP5        0.0000 
@<TRIPOS>BOND
@<TRIPOS>SUBSTRUCTURE
     1 ALC1        1 GROUP        1 X    ALC  0     ROOT ALC X 1
     2 GLC5        4 GROUP        1 X    GLC  0     **** GLC X 6
     3 ALP1        3 GROUP        1 Y    ALP  0     ROOT ALP Y 8
     4 GLP5        6 GROUP        1 Y    GLP  0     **** GLP Y 13
     5 ALL1        2 GROUP        1 Z    ALL  0     ROOT ALL Z 15
     6 GLL5        5 GROUP        1 Z    GLL  0     **** GLL Z 20
@<TRIPOS>SET

