#    Name: 4i53_1C1_2_ligand
#    Modification time : Tue Mar 25 02:24:00 2014

@<TRIPOS>MOLECULE
4i53_1C1_2_ligand
   48    50     1     0     0
SMALL
NO_CHARGES


@<TRIPOS>ATOM
      1 N01       -13.2030  -62.7170   17.8990 N.pl3     1 1C1501      0.0000 
      2 C02       -13.3120  -62.3000   16.6490 C.cat     1 1C1501      0.0000 
      3 N03       -14.4940  -61.6690   16.0730 N.pl3     1 1C1501      0.0000 
      4 C04       -15.7880  -61.5000   16.7190 C.3       1 1C1501      0.0000 
      5 C05       -16.1070  -60.0380   16.9700 C.3       1 1C1501      0.0000 
      6 C06       -17.5780  -59.8550   17.2110 C.3       1 1C1501      0.0000 
      7 C07       -17.6800  -59.6350   18.6980 C.ar      1 1C1501      0.0000 
      8 C08       -18.8940  -59.5630   19.5430 C.ar      1 1C1501      0.0000 
      9 C09       -18.7340  -59.3050   20.9130 C.ar      1 1C1501      0.0000 
     10 C10       -17.4800  -59.1640   21.5030 C.ar      1 1C1501      0.0000 
     11 C11       -16.3150  -59.2470   20.7210 C.ar      1 1C1501      0.0000 
     12 C12       -16.4670  -59.4970   19.2560 C.ar      1 1C1501      0.0000 
     13 C13       -15.4350  -59.6100   18.1760 C.3       1 1C1501      0.0000 
     14 N14       -14.8810  -58.2960   17.9950 N.am      1 1C1501      0.0000 
     15 C15       -13.4870  -57.9900   17.7690 C.2       1 1C1501      0.0000 
     16 O16       -12.6130  -58.7820   17.8820 O.2       1 1C1501      0.0000 
     17 C17       -13.1760  -56.5580   17.7780 C.2       1 1C1501      0.0000 
     18 O18       -14.0550  -55.7910   18.0990 O.2       1 1C1501      0.0000 
     19 N19       -11.9500  -56.1970   17.1330 N.am      1 1C1501      0.0000 
     20 C20       -11.5460  -54.8760   16.7480 C.ar      1 1C1501      0.0000 
     21 C21       -11.9780  -53.8350   17.3810 C.ar      1 1C1501      0.0000 
     22 C22       -11.4940  -52.5630   17.2340 C.ar      1 1C1501      0.0000 
     23 F23       -11.9710  -51.5360   17.8740 F         1 1C1501      0.0000 
     24 C24       -10.4410  -52.4600   16.2670 C.ar      1 1C1501      0.0000 
     25 CL1        -9.8100  -50.9060   16.0160 Cl        1 1C1501      0.0000 
     26 C26        -9.9850  -53.6020   15.5840 C.ar      1 1C1501      0.0000 
     27 C27       -10.5730  -54.7940   15.8570 C.ar      1 1C1501      0.0000 
     28 N28       -12.2870  -62.4760   15.8960 N.pl3     1 1C1501      0.0000 
     29 H         -12.3174  -63.1021   18.1587 H         1 1C1501      0.0000 
     30 H         -14.0160  -62.6094   18.4712 H         1 1C1501      0.0000 
     31 H         -14.4014  -61.2982   15.0900 H         1 1C1501      0.0000 
     32 H         -15.8129  -62.0296   17.6856 H         1 1C1501      0.0000 
     33 H         -16.5923  -61.9270   16.0975 H         1 1C1501      0.0000 
     34 H         -15.8060  -59.4554   16.1366 H         1 1C1501      0.0000 
     35 H         -18.1077  -60.7392   16.9370 H         1 1C1501      0.0000 
     36 H         -17.9309  -58.9933   16.6908 H         1 1C1501      0.0000 
     37 H         -19.7863  -59.6994   19.1156 H         1 1C1501      0.0000 
     38 H         -19.5862  -59.2165   21.5065 H         1 1C1501      0.0000 
     39 H         -17.4004  -58.9984   22.5139 H         1 1C1501      0.0000 
     40 H         -15.3972  -59.1478   21.0938 H         1 1C1501      0.0000 
     41 H         -14.6964  -60.3063   18.4789 H         1 1C1501      0.0000 
     42 H         -15.5488  -57.4811   18.0297 H         1 1C1501      0.0000 
     43 H         -11.2718  -56.9850   16.9179 H         1 1C1501      0.0000 
     44 H         -12.7887  -53.9467   18.0927 H         1 1C1501      0.0000 
     45 H          -9.2295  -53.5121   14.9044 H         1 1C1501      0.0000 
     46 H         -10.2411  -55.6496   15.3478 H         1 1C1501      0.0000 
     47 H         -11.5149  -62.9587   16.3095 H         1 1C1501      0.0000 
     48 H         -12.3565  -62.1140   14.9664 H         1 1C1501      0.0000 
@<TRIPOS>BOND
     1    2    1 ar   
     2   29    1 1    
     3   30    1 1    
     4    3    2 ar   
     5   28    2 ar   
     6    4    3 1    
     7   31    3 1    
     8    5    4 1    
     9   32    4 1    
    10   33    4 1    
    11    6    5 1    
    12   13    5 1    
    13   34    5 1    
    14    7    6 1    
    15   35    6 1    
    16   36    6 1    
    17    8    7 ar   
    18   12    7 ar   
    19    9    8 ar   
    20   37    8 1    
    21   10    9 ar   
    22   38    9 1    
    23   11   10 ar   
    24   39   10 1    
    25   12   11 ar   
    26   40   11 1    
    27   13   12 1    
    28   14   13 1    
    29   41   13 1    
    30   15   14 am   
    31   42   14 1    
    32   16   15 2    
    33   17   15 1    
    34   18   17 2    
    35   19   17 am   
    36   20   19 1    
    37   43   19 1    
    38   21   20 ar   
    39   27   20 ar   
    40   22   21 ar   
    41   44   21 1    
    42   23   22 1    
    43   24   22 ar   
    44   25   24 1    
    45   26   24 ar   
    46   27   26 ar   
    47   45   26 1    
    48   46   27 1    
    49   47   28 1    
    50   48   28 1    
@<TRIPOS>SUBSTRUCTURE
     1 1C1501      1 GROUP   
@<TRIPOS>SET

