#    Name: 3l08_ZIG_1_INTS_M
#    Modification time : Mon Mar 24 20:43:21 2014

@<TRIPOS>MOLECULE
3l08_ZIG_1_INTS_M
   74     0     6     0     0
SMALL
NO_CHARGES


@<TRIPOS>ATOM
      1 CA         29.2895   12.2350   18.4655 C.3       2 GLC5        0.0000 
      2 CA         29.8560   12.0530   20.5470 C.3       6 GLL5        0.0000 
      3 CA         28.7230   12.4170   16.3840 C.3       4 GLP5        0.0000 
      4 CA         30.4710   10.5875   19.5805 C.3       2 GLC5        0.0000 
      5 CA         31.0860    9.1220   18.6140 C.3       4 GLP5        0.0000 
      6 CA         28.2985   11.0140   20.0775 C.3       2 GLC5        0.0000 
      7 CA         26.7410    9.9750   19.6080 C.3       4 GLP5        0.0000 
      8 CA         30.2405   13.3735   22.1425 C.3       2 GLC5        0.0000 
      9 CA         30.6250   14.6940   23.7380 C.3       4 GLP5        0.0000 
     10 CA         24.9140   14.0740   25.0235 C.3       2 GLC5        0.0000 
     11 CA         24.1620   12.6620   23.4470 C.3       6 GLL5        0.0000 
     12 CA         25.6660   15.4860   26.6000 C.3       4 GLP5        0.0000 
     13 CA         19.1065   12.9115   25.4950 C.3       2 GLC5        0.0000 
     14 CA         19.8870   14.3340   24.2220 C.3       6 GLL5        0.0000 
     15 CA         18.3260   11.4890   26.7680 C.3       4 GLP5        0.0000 
     16 CA         18.9080   15.2795   25.9290 C.3       2 GLC5        0.0000 
     17 CA         17.9290   16.2250   27.6360 C.3       4 GLP5        0.0000 
     18 CA         24.7515   16.1775   23.4375 C.3       2 GLC5        0.0000 
     19 CA         23.5420   14.7150   22.4620 C.3       6 GLL5        0.0000 
     20 CA         25.9610   17.6400   24.4130 C.3       4 GLP5        0.0000 
     21 CA         22.5995   19.3660   23.4190 C.3       2 GLC5        0.0000 
     22 CA         22.5740   17.6600   22.2640 C.3       6 GLL5        0.0000 
     23 CA         22.6250   21.0720   24.5740 C.3       4 GLP5        0.0000 
     24 CA         24.2675   17.6500   23.3385 C.3       2 GLC5        0.0000 
     25 CA         28.7460   13.9800   23.2630 C.3       2 GLC5        0.0000 
     26 CA         26.8670   13.2660   22.7880 C.3       6 GLL5        0.0000 
     27 CA         28.0095   13.2070   18.3245 C.3       2 GLC5        0.0000 
     28 CA         27.2960   13.9970   20.2650 C.3       6 GLL5        0.0000 
     29 N          19.8525   12.3790   24.9310 N.am      1 SEC2        0.0000 
     30 N          20.7810   13.3730   24.4260 N.am      5 SEL2        0.0000 
     31 N          18.9240   11.3850   25.4360 N.am      3 SEP2        0.0000 
     32 N          29.8605   13.8120   18.9715 N.am      1 SEC2        0.0000 
     33 N          29.5590   13.4380   20.5480 N.am      5 SEL2        0.0000 
     34 N          30.1620   14.1860   17.3950 N.am      3 SEP2        0.0000 
     35 CA         28.1530   20.3405   23.8585 C.3       2 GLC5        0.0000 
     36 CA         27.7720   20.0500   21.7960 C.3       6 GLL5        0.0000 
     37 CA         28.5340   20.6310   25.9210 C.3       4 GLP5        0.0000 
     38 CA         23.3385   16.9730   18.5665 C.3       2 GLC5        0.0000 
     39 CA         24.7820   17.5030   19.2150 C.3       6 GLL5        0.0000 
     40 CA         21.8950   16.4430   17.9180 C.3       4 GLP5        0.0000 
     41 CA         23.4205   13.1330   21.2435 C.3       2 GLC5        0.0000 
     42 CA         24.4880   13.7340   22.6570 C.3       6 GLL5        0.0000 
     43 CA         22.5160   13.0680   19.4350 C.3       4 GLP5        0.0000 
     44 CA         29.4288   16.7923   21.4915 C.3       2 GLC5        0.0000 
     45 CA         28.3430   17.1540   19.7310 C.3       6 GLL5        0.0000 
     46 CA         30.3990   15.9010   22.8270 C.3       4 GLP5        0.0000 
     47 CA         20.7632   11.8193   23.5365 C.3       2 GLC5        0.0000 
     48 CA         22.9230   12.5640   24.0210 C.3       6 GLL5        0.0000 
     49 CA         19.0810   10.5910   23.1440 C.3       4 GLP5        0.0000 
     50 CA         18.7030   13.6173   23.1375 C.3       2 GLC5        0.0000 
     51 CA         20.1210   15.4450   23.4580 C.3       6 GLL5        0.0000 
     52 CA         17.4020   12.3450   22.4350 C.3       4 GLP5        0.0000 
     53 CA         20.3515   16.4148   24.7780 C.3       2 GLC5        0.0000 
     54 CA         20.6990   17.9400   25.7160 C.3       4 GLP5        0.0000 
     55 CA         24.2097   13.4868   20.4190 C.3       2 GLC5        0.0000 
     56 CA         26.0130   14.0920   20.7490 C.3       6 GLL5        0.0000 
     57 CA         22.2152   17.2718   23.9793 C.3       2 GLC5        0.0000 
     58 CA         21.5430   16.7830   22.0630 C.3       6 GLL5        0.0000 
     59 CA         22.3720   17.3220   25.7950 C.3       4 GLP5        0.0000 
     60 CA         25.4688   11.5467   22.3407 C.3       2 GLC5        0.0000 
     61 CA         25.7940   13.7190   22.0570 C.3       6 GLL5        0.0000 
     62 CA         24.6070    9.6010   22.2590 C.3       4 GLP5        0.0000 
     63 CA         24.3111   11.3872   22.7272 C.3       2 GLC5        0.0000 
     64 CA         26.1631   14.6451   24.1534 C.3       2 GLC5        0.0000 
     65 CA         26.9170   15.6770   25.7670 C.3       4 GLP5        0.0000 
     66 CA         21.5390   16.8456   19.6599 C.3       2 GLC5        0.0000 
     67 CA         22.2831   13.7000   21.3781 C.3       2 GLC5        0.0000 
     68 CA         21.3450   15.5990   22.8540 C.3       6 GLL5        0.0000 
     69 CA         22.2111   15.8270   24.5581 C.3       2 GLC5        0.0000 
     70 CA         29.0958   14.8300   21.7500 C.3       2 GLC5        0.0000 
     71 CA         27.1064   11.8789   20.2010 C.3       2 GLC5        0.0000 
     72 CA         28.2890   13.5210   21.0810 C.3       6 GLL5        0.0000 
     73 CA         26.6456   18.5615   22.8419 C.3       2 GLC5        0.0000 
     74 CA         26.2460   18.8080   20.5240 C.3       6 GLL5        0.0000 
@<TRIPOS>BOND
@<TRIPOS>SUBSTRUCTURE
     1 SEC2       29 GROUP        1 X    SEC  0     ROOT SEC X 2
     2 GLC5        1 GROUP        1 X    GLC  0     **** GLC X 6
     3 SEP2       31 GROUP        1 Y    SEP  0     ROOT SEP Y 9
     4 GLP5        3 GROUP        1 Y    GLP  0     **** GLP Y 13
     5 SEL2       30 GROUP        1 Z    SEL  0     ROOT SEL Z 16
     6 GLL5        2 GROUP        1 Z    GLL  0     **** GLL Z 20
@<TRIPOS>SET

