#    Name: 3l08_ZIG_1_ligand
#    Modification time : Mon Mar 24 20:43:21 2014

@<TRIPOS>MOLECULE
3l08_ZIG_1_ligand
   53    57     1     0     0
SMALL
NO_CHARGES


@<TRIPOS>ATOM
      1 C1         29.8560   12.0530   20.5470 C.3       1 ZIG1109     0.0000 
      2 C2         24.1620   12.6620   23.4470 C.ar      1 ZIG1109     0.0000 
      3 C3         28.5740   18.2130   20.5810 C.ar      1 ZIG1109     0.0000 
      4 C4         22.9230   12.5640   24.0210 C.ar      1 ZIG1109     0.0000 
      5 C5         28.3430   17.1540   19.7310 C.ar      1 ZIG1109     0.0000 
      6 C6         20.6740   17.1290   21.0650 C.ar      1 ZIG1109     0.0000 
      7 C7         20.1210   15.4450   23.4580 C.ar      1 ZIG1109     0.0000 
      8 C8         20.9720   18.2980   20.4160 C.ar      1 ZIG1109     0.0000 
      9 C9         19.8870   14.3340   24.2220 C.ar      1 ZIG1109     0.0000 
     10 C10        23.5420   14.7150   22.4620 C.ar      1 ZIG1109     0.0000 
     11 C11        26.2460   18.8080   20.5240 C.ar      1 ZIG1109     0.0000 
     12 C12        26.0130   14.0920   20.7490 C.ar      1 ZIG1109     0.0000 
     13 C13        22.5740   17.6600   22.2640 C.ar      1 ZIG1109     0.0000 
     14 C14        26.8670   13.2660   22.7880 C.ar      1 ZIG1109     0.0000 
     15 C15        24.4880   13.7340   22.6570 C.ar      1 ZIG1109     0.0000 
     16 C16        27.5310   19.0240   20.9670 C.ar      1 ZIG1109     0.0000 
     17 C17        21.5430   16.7830   22.0630 C.ar      1 ZIG1109     0.0000 
     18 C18        21.3450   15.5990   22.8540 C.ar      1 ZIG1109     0.0000 
     19 C19        21.9680   13.5310   23.8370 C.ar      1 ZIG1109     0.0000 
     20 C20        27.0570   16.9460   19.2950 C.ar      1 ZIG1109     0.0000 
     21 C21        25.7940   13.7190   22.0570 C.ar      1 ZIG1109     0.0000 
     22 C22        22.2970   14.6190   23.0510 C.ar      1 ZIG1109     0.0000 
     23 C23        27.2960   13.9970   20.2650 C.ar      1 ZIG1109     0.0000 
     24 C24        26.0160   17.7530   19.6750 C.ar      1 ZIG1109     0.0000 
     25 C25        28.2890   13.5210   21.0810 C.ar      1 ZIG1109     0.0000 
     26 N26        20.7810   13.3730   24.4260 N.ar      1 ZIG1109     0.0000 
     27 N27        22.0030   19.1080   20.6720 N.ar      1 ZIG1109     0.0000 
     28 N28        28.1190   13.1500   22.3490 N.ar      1 ZIG1109     0.0000 
     29 N29        22.7970   18.7910   21.5890 N.ar      1 ZIG1109     0.0000 
     30 N30        27.6410   14.3510   18.9250 N.pl3     1 ZIG1109     0.0000 
     31 O31        27.3530   15.9770   16.9490 O.2       1 ZIG1109     0.0000 
     32 O32        25.3160   15.2910   18.2890 O.2       1 ZIG1109     0.0000 
     33 O33        29.5590   13.4380   20.5480 O.3       1 ZIG1109     0.0000 
     34 F34        27.7720   20.0500   21.7960 F         1 ZIG1109     0.0000 
     35 F35        24.7820   17.5030   19.2150 F         1 ZIG1109     0.0000 
     36 S36        26.7260   15.6020   18.2020 S.o2      1 ZIG1109     0.0000 
     37 H          24.8663   11.9134   23.6120 H         1 ZIG1109     0.0000 
     38 H          29.5286   18.3979   20.9279 H         1 ZIG1109     0.0000 
     39 H          22.6983   11.7324   24.6141 H         1 ZIG1109     0.0000 
     40 H          29.1044   16.5441   19.4354 H         1 ZIG1109     0.0000 
     41 H          19.8782   16.5696   20.8256 H         1 ZIG1109     0.0000 
     42 H          19.3891   16.1590   23.3358 H         1 ZIG1109     0.0000 
     43 H          20.2953   18.5832   19.6162 H         1 ZIG1109     0.0000 
     44 H          18.9219   14.2498   24.6747 H         1 ZIG1109     0.0000 
     45 H          23.7649   15.5345   21.8674 H         1 ZIG1109     0.0000 
     46 H          25.4816   19.4190   20.8205 H         1 ZIG1109     0.0000 
     47 H          25.2515   14.4256   20.1635 H         1 ZIG1109     0.0000 
     48 H          23.2732   17.3997   23.0529 H         1 ZIG1109     0.0000 
     49 H          26.6578   12.9822   23.8109 H         1 ZIG1109     0.0000 
     50 H          28.3148   13.9926   18.3581 H         1 ZIG1109     0.0000 
     51 H          30.7662   11.8686   20.1761 H         1 ZIG1109     0.0000 
     52 H          29.8317   11.6673   21.4693 H         1 ZIG1109     0.0000 
     53 H          29.2038   11.5337   19.9948 H         1 ZIG1109     0.0000 
@<TRIPOS>BOND
     1   33    1 1    
     2   51    1 1    
     3   52    1 1    
     4   53    1 1    
     5    4    2 ar   
     6   15    2 ar   
     7   37    2 1    
     8    5    3 ar   
     9   16    3 ar   
    10   38    3 1    
    11   19    4 ar   
    12   39    4 1    
    13   20    5 ar   
    14   40    5 1    
    15    8    6 ar   
    16   17    6 ar   
    17   41    6 1    
    18    9    7 ar   
    19   18    7 ar   
    20   42    7 1    
    21   27    8 ar   
    22   43    8 1    
    23   26    9 ar   
    24   44    9 1    
    25   15   10 ar   
    26   22   10 ar   
    27   45   10 1    
    28   16   11 ar   
    29   24   11 ar   
    30   46   11 1    
    31   21   12 ar   
    32   23   12 ar   
    33   47   12 1    
    34   17   13 ar   
    35   29   13 ar   
    36   48   13 1    
    37   21   14 ar   
    38   28   14 ar   
    39   49   14 1    
    40   21   15 1    
    41   34   16 1    
    42   18   17 1    
    43   22   18 ar   
    44   22   19 ar   
    45   26   19 ar   
    46   24   20 ar   
    47   36   20 1    
    48   25   23 ar   
    49   30   23 1    
    50   35   24 1    
    51   28   25 ar   
    52   33   25 1    
    53   29   27 ar   
    54   36   30 1    
    55   50   30 1    
    56   36   31 2    
    57   36   32 2    
@<TRIPOS>SUBSTRUCTURE
     1 ZIG1109     1 GROUP   
@<TRIPOS>SET

