#    Name: 2cls_GTP_2_INTS_M
#    Modification time : Tue Mar 25 01:05:27 2014

@<TRIPOS>MOLECULE
2cls_GTP_2_INTS_M
   80     0    15     0     0
SMALL
NO_CHARGES


@<TRIPOS>ATOM
      1 N          13.5515   -5.9540   33.6115 N.am      2 SEC2        0.0000 
      2 N          14.4580   -6.8420   33.4960 N.am     12 SEL2        0.0000 
      3 N          12.6450   -5.0660   33.7270 N.am      7 SEP2        0.0000 
      4 Zn         17.7390   -6.4885   32.3675 Zn        4 ZIC7        0.0000 
      5 Zn         16.7740   -6.8530   32.6010 Zn       14 ZIL7        0.0000 
      6 Zn         18.7040   -6.1240   32.1340 Zn        9 ZIP7        0.0000 
      7 N          16.2825   -6.6630   31.1700 N.am      2 SEC2        0.0000 
      8 N          16.7740   -6.8530   32.6010 N.am     12 SEL2        0.0000 
      9 N          15.7910   -6.4730   29.7390 N.am      7 SEP2        0.0000 
     10 NZ         17.0775   -8.7705   35.4205 N.4       3 LYC4        0.0000 
     11 NZ         16.1620   -8.5040   34.3850 N.4      13 LYL4        0.0000 
     12 NZ         17.9930   -9.0370   36.4560 N.4       8 LYP4        0.0000 
     13 N          17.0775   -8.7705   35.4205 N.am      2 SEC2        0.0000 
     14 N          16.1620   -8.5040   34.3850 N.am     12 SEL2        0.0000 
     15 N          17.9930   -9.0370   36.4560 N.am      7 SEP2        0.0000 
     16 N          15.7515   -9.8675   34.3795 N.am      2 SEC2        0.0000 
     17 N          15.3410  -11.2310   34.3740 N.am      7 SEP2        0.0000 
     18 N          15.4825   -5.7100   36.0640 N.am      2 SEC2        0.0000 
     19 N          16.3370   -5.9120   34.9250 N.am     12 SEL2        0.0000 
     20 N          14.6280   -5.5080   37.2030 N.am      7 SEP2        0.0000 
     21 Zn         18.7860   -5.8910   33.1825 Zn        4 ZIC7        0.0000 
     22 Zn         18.8680   -5.6580   34.2310 Zn       14 ZIL7        0.0000 
     23 N          20.3400   -5.4140   34.2505 N.am      2 SEC2        0.0000 
     24 N          18.8680   -5.6580   34.2310 N.am     12 SEL2        0.0000 
     25 N          21.8120   -5.1700   34.2700 N.am      7 SEP2        0.0000 
     26 NZ         18.1945   -7.6725   36.4820 N.4       3 LYC4        0.0000 
     27 NZ         18.3960   -6.3080   36.5080 N.4      13 LYL4        0.0000 
     28 N          18.8295   -5.3685   37.6880 N.am      2 SEC2        0.0000 
     29 N          18.3960   -6.3080   36.5080 N.am     12 SEL2        0.0000 
     30 N          19.2630   -4.4290   38.8680 N.am      7 SEP2        0.0000 
     31 N          19.8040   -5.9310   36.8135 N.am      2 SEC2        0.0000 
     32 N          21.2120   -5.5540   37.1190 N.am      7 SEP2        0.0000 
     33 N          18.1945   -7.6725   36.4820 N.am      2 SEC2        0.0000 
     34 N          21.2795   -2.6580   34.7735 N.am      2 SEC2        0.0000 
     35 N          20.0280   -2.8960   35.2460 N.am     12 SEL2        0.0000 
     36 N          22.5310   -2.4200   34.3010 N.am      7 SEP2        0.0000 
     37 CA         15.8885   -2.6315   37.0180 C.3       5 GLC5        0.0000 
     38 CA         16.7950   -1.0760   36.2790 C.3      15 GLL5        0.0000 
     39 CA         14.9820   -4.1870   37.7570 C.3      10 GLP5        0.0000 
     40 CA         15.6700   -1.5405   34.9315 C.3       5 GLC5        0.0000 
     41 CA         14.5450   -2.0050   33.5840 C.3      10 GLP5        0.0000 
     42 CA         15.4000    0.4250   35.2085 C.3       5 GLC5        0.0000 
     43 CA         16.9280    0.4040   36.7040 C.3      15 GLL5        0.0000 
     44 CA         13.8720    0.4460   33.7130 C.3      10 GLP5        0.0000 
     45 N          17.1080   -0.2415   39.4980 N.am      2 SEC2        0.0000 
     46 N          17.3670    0.4390   38.1270 N.am     12 SEL2        0.0000 
     47 N          16.8490   -0.9220   40.8690 N.am      7 SEP2        0.0000 
     48 O          18.5800    2.3640   34.1500 O.2       1 ALC1        0.0000 
     49 O          17.5910    1.6390   34.7630 O.2      11 ALL1        0.0000 
     50 O          19.5690    3.0890   33.5370 O.2       6 ALP1        0.0000 
     51 CA         20.0160    3.3240   36.9895 C.3       5 GLC5        0.0000 
     52 CA         18.3040    2.2800   36.9860 C.3      15 GLL5        0.0000 
     53 CA         21.7280    4.3680   36.9930 C.3      10 GLP5        0.0000 
     54 O          17.0230    4.2615   35.7100 O.2       1 ALC1        0.0000 
     55 O          17.3350    3.3430   36.8140 O.2      11 ALL1        0.0000 
     56 O          16.7110    5.1800   34.6060 O.2       6 ALP1        0.0000 
     57 CA         18.2225    0.2835   39.7530 C.3       5 GLC5        0.0000 
     58 CA         18.1220    1.6140   38.3650 C.3      15 GLL5        0.0000 
     59 CA         18.3230   -1.0470   41.1410 C.3      10 GLP5        0.0000 
     60 CA         20.7805    0.3700   41.3720 C.3       5 GLC5        0.0000 
     61 CA         21.3590    1.4420   40.0170 C.3      15 GLL5        0.0000 
     62 CA         20.2020   -0.7020   42.7270 C.3      10 GLP5        0.0000 
     63 CA         22.3445    3.2175   40.1485 C.3       5 GLC5        0.0000 
     64 CA         23.3300    4.9930   40.2800 C.3      10 GLP5        0.0000 
     65 N          24.2185    2.4715   40.4890 N.am      2 SEC2        0.0000 
     66 N          23.3040    1.5350   41.2580 N.am     12 SEL2        0.0000 
     67 N          25.1330    3.4080   39.7200 N.am      7 SEP2        0.0000 
     68 O          22.3935    3.2310   42.9630 O.2       1 ALC1        0.0000 
     69 O          21.5590    2.8230   41.9370 O.2      11 ALL1        0.0000 
     70 O          23.2280    3.6390   43.9890 O.2       6 ALP1        0.0000 
     71 O          21.6300    3.9660   43.1930 O.2       1 ALC1        0.0000 
     72 O          21.7010    5.1090   44.4490 O.2       6 ALP1        0.0000 
     73 O          20.7200    4.6345   43.5420 O.2       1 ALC1        0.0000 
     74 O          19.7390    4.1600   42.6350 O.2      11 ALL1        0.0000 
     75 N          20.1110    3.5360   39.3225 N.am      2 SEC2        0.0000 
     76 N          19.5350    2.8260   40.7600 N.am     12 SEL2        0.0000 
     77 N          20.6870    4.2460   37.8850 N.am      7 SEP2        0.0000 
     78 CA         19.4065    0.7730   41.1545 C.3       5 GLC5        0.0000 
     79 CA         20.0540    1.9120   39.9050 C.3      15 GLL5        0.0000 
     80 CA         18.7590   -0.3660   42.4040 C.3      10 GLP5        0.0000 
@<TRIPOS>BOND
@<TRIPOS>SUBSTRUCTURE
     1 ALC1       48 GROUP        1 X    ALC  0     ROOT ALC X 1
     2 SEC2        1 GROUP        1 X    SEC  0     **** SEC X 2
     3 LYC4       10 GROUP        1 X    LYC  0     **** LYC X 4
     4 ZIC7        4 GROUP        1 X    ZIC  0     **** ZIC X 5
     5 GLC5       37 GROUP        1 X    GLC  0     **** GLC X 6
     6 ALP1       50 GROUP        1 Y    ALP  0     ROOT ALP Y 8
     7 SEP2        3 GROUP        1 Y    SEP  0     **** SEP Y 9
     8 LYP4       12 GROUP        1 Y    LYP  0     **** LYP Y 11
     9 ZIP7        6 GROUP        1 Y    ZIP  0     **** ZIP Y 12
    10 GLP5       39 GROUP        1 Y    GLP  0     **** GLP Y 13
    11 ALL1       49 GROUP        1 Z    ALL  0     ROOT ALL Z 15
    12 SEL2        2 GROUP        1 Z    SEL  0     **** SEL Z 16
    13 LYL4       11 GROUP        1 Z    LYL  0     **** LYL Z 18
    14 ZIL7        5 GROUP        1 Z    ZIL  0     **** ZIL Z 19
    15 GLL5       38 GROUP        1 Z    GLL  0     **** GLL Z 20
@<TRIPOS>SET

