#    Name: 2cls_GTP_2_ligand
#    Modification time : Tue Mar 25 01:05:27 2014

@<TRIPOS>MOLECULE
2cls_GTP_2_ligand
   44    46     1     0     0
SMALL
NO_CHARGES


@<TRIPOS>ATOM
      1 PG         15.9210   -7.1280   33.8550 P.3       1 GTP500      0.0000 
      2 O1G        14.4580   -6.8420   33.4960 O.co2     1 GTP500      0.0000 
      3 O2G        16.7740   -6.8530   32.6010 O.co2     1 GTP500      0.0000 
      4 O3G        16.1620   -8.5040   34.3850 O.co2     1 GTP500      0.0000 
      5 O3B        16.3370   -5.9120   34.9250 O.3       1 GTP500      0.0000 
      6 PB         17.8420   -5.4960   35.3940 P.3       1 GTP500      0.0000 
      7 O1B        18.8680   -5.6580   34.2310 O.co2     1 GTP500      0.0000 
      8 O2B        18.3960   -6.3080   36.5080 O.co2     1 GTP500      0.0000 
      9 O3A        17.6390   -3.9310   35.7480 O.3       1 GTP500      0.0000 
     10 PA         18.5740   -2.6620   35.2480 P.3       1 GTP500      0.0000 
     11 O1A        18.1370   -2.2330   33.7210 O.co2     1 GTP500      0.0000 
     12 O2A        20.0280   -2.8960   35.2460 O.co2     1 GTP500      0.0000 
     13 O5'        18.0810   -1.6060   36.2420 O.3       1 GTP500      0.0000 
     14 C5'        16.7950   -1.0760   36.2790 C.3       1 GTP500      0.0000 
     15 C4'        16.9280    0.4040   36.7040 C.3       1 GTP500      0.0000 
     16 O4'        17.3670    0.4390   38.1270 O.3       1 GTP500      0.0000 
     17 C3'        18.0480    1.1220   36.0000 C.3       1 GTP500      0.0000 
     18 O3'        17.5910    1.6390   34.7630 O.3       1 GTP500      0.0000 
     19 C2'        18.3040    2.2800   36.9860 C.3       1 GTP500      0.0000 
     20 O2'        17.3350    3.3430   36.8140 O.3       1 GTP500      0.0000 
     21 C1'        18.1220    1.6140   38.3650 C.3       1 GTP500      0.0000 
     22 N9         19.5110    1.3190   38.8430 N.pl3     1 GTP500      0.0000 
     23 C8         20.4490    0.5220   38.2950 C.2       1 GTP500      0.0000 
     24 N7         21.5710    0.5800   39.0220 N.2       1 GTP500      0.0000 
     25 C5         21.3590    1.4420   40.0170 C.2       1 GTP500      0.0000 
     26 C6         22.1390    1.9050   41.0750 C.2       1 GTP500      0.0000 
     27 O6         23.3040    1.5350   41.2580 O.2       1 GTP500      0.0000 
     28 N1         21.5590    2.8230   41.9370 N.am      1 GTP500      0.0000 
     29 C2         20.2600    3.2830   41.7750 C.2       1 GTP500      0.0000 
     30 N2         19.7390    4.1600   42.6350 N.pl3     1 GTP500      0.0000 
     31 N3         19.5350    2.8260   40.7600 N.2       1 GTP500      0.0000 
     32 C4         20.0540    1.9120   39.9050 C.2       1 GTP500      0.0000 
     33 H          16.1516   -1.5602   37.0112 H         1 GTP500      0.0000 
     34 H          16.2985   -1.0850   35.3105 H         1 GTP500      0.0000 
     35 H          16.0273    0.9133   36.5930 H         1 GTP500      0.0000 
     36 H          18.8871    0.5231   35.9643 H         1 GTP500      0.0000 
     37 H          19.3020    2.5884   36.8943 H         1 GTP500      0.0000 
     38 H          17.6485    2.3070   38.9934 H         1 GTP500      0.0000 
     39 H          20.3239   -0.0148   37.4890 H         1 GTP500      0.0000 
     40 H          22.1233    3.1839   42.7425 H         1 GTP500      0.0000 
     41 H          20.3517    4.4886   43.3538 H         1 GTP500      0.0000 
     42 H          18.7827    4.4099   42.4835 H         1 GTP500      0.0000 
     43 H          18.3597    2.1684   34.4041 H         1 GTP500      0.0000 
     44 H          17.1031    3.3268   35.8414 H         1 GTP500      0.0000 
@<TRIPOS>BOND
     1    2    1 ar   
     2    3    1 ar   
     3    4    1 ar   
     4    5    1 1    
     5    6    5 1    
     6    7    6 ar   
     7    8    6 ar   
     8    9    6 1    
     9   10    9 1    
    10   11   10 ar   
    11   12   10 ar   
    12   13   10 1    
    13   14   13 1    
    14   15   14 1    
    15   33   14 1    
    16   34   14 1    
    17   16   15 1    
    18   17   15 1    
    19   35   15 1    
    20   21   16 1    
    21   18   17 1    
    22   19   17 1    
    23   36   17 1    
    24   43   18 1    
    25   20   19 1    
    26   21   19 1    
    27   37   19 1    
    28   44   20 1    
    29   22   21 1    
    30   38   21 1    
    31   23   22 1    
    32   32   22 1    
    33   24   23 2    
    34   39   23 1    
    35   25   24 1    
    36   26   25 1    
    37   32   25 2    
    38   27   26 2    
    39   28   26 am   
    40   29   28 1    
    41   40   28 1    
    42   30   29 1    
    43   31   29 2    
    44   41   30 1    
    45   42   30 1    
    46   32   31 1    
@<TRIPOS>SUBSTRUCTURE
     1 GTP500      1 GROUP   
@<TRIPOS>SET

