#    Name: 1m21_PHE_LEU_CSI_PHA_1_INTS_M
#    Modification time : Tue Mar 25 11:21:08 2014

@<TRIPOS>MOLECULE
1m21_PHE_LEU_CSI_PHA_1_INTS_M
   63     0     6     0     0
SMALL
NO_CHARGES


@<TRIPOS>ATOM
      1 CA          4.3425  -12.9975   56.5430 C.3       2 GLC5        0.0000 
      2 CA          4.8360  -11.0710   56.5080 C.3       6 GLL5        0.0000 
      3 CA          3.8490  -14.9240   56.5780 C.3       4 GLP5        0.0000 
      4 CA          4.0015  -12.8500   55.2945 C.3       2 GLC5        0.0000 
      5 CA          3.8750  -10.7100   55.5050 C.3       6 GLL5        0.0000 
      6 CA          4.1280  -14.9900   55.0840 C.3       4 GLP5        0.0000 
      7 CA          4.7005  -13.2340   58.3095 C.3       2 GLC5        0.0000 
      8 CA          4.3690  -11.5450   57.7730 C.3       6 GLL5        0.0000 
      9 CA          5.0320  -14.9230   58.8460 C.3       4 GLP5        0.0000 
     10 CA          4.7880  -11.1920   59.7600 C.3       2 GLC5        0.0000 
     11 CA          5.2070  -10.8390   61.7470 C.3       4 GLP5        0.0000 
     12 CA          3.0895  -11.9225   60.2090 C.3       2 GLC5        0.0000 
     13 CA          2.9730  -11.6560   58.0370 C.3       6 GLL5        0.0000 
     14 CA          3.2060  -12.1890   62.3810 C.3       4 GLP5        0.0000 
     15 CA          1.3170  -12.9810   58.4885 C.3       2 GLC5        0.0000 
     16 CA         -0.3390  -14.3060   58.9400 C.3       4 GLP5        0.0000 
     17 CA          0.3515  -12.2430   57.8210 C.3       2 GLC5        0.0000 
     18 CA          2.0310  -11.2960   57.0370 C.3       6 GLL5        0.0000 
     19 CA         -1.3280  -13.1900   58.6050 C.3       4 GLP5        0.0000 
     20 N           4.6235   -1.8380   58.3400 N.am      1 SEC2        0.0000 
     21 N           5.4740   -1.5650   59.6400 N.am      5 SEL2        0.0000 
     22 N           3.7730   -2.1110   57.0400 N.am      3 SEP2        0.0000 
     23 CA          6.9390    1.7965   55.9610 C.3       2 GLC5        0.0000 
     24 CA          8.5640    0.2870   56.1310 C.3       6 GLL5        0.0000 
     25 CA          5.3140    3.3060   55.7910 C.3       4 GLP5        0.0000 
     26 CA          9.4115    1.6475   55.0065 C.3       2 GLC5        0.0000 
     27 CA         10.2590    3.0080   53.8820 C.3       4 GLP5        0.0000 
     28 CA         10.1420   -0.7835   55.0725 C.3       2 GLC5        0.0000 
     29 CA         11.7200   -1.8540   54.0140 C.3       4 GLP5        0.0000 
     30 CA         11.4205    0.3420   58.0850 C.3       2 GLC5        0.0000 
     31 CA         10.0160   -0.6960   57.8150 C.3       6 GLL5        0.0000 
     32 CA         12.8250    1.3800   58.3550 C.3       4 GLP5        0.0000 
     33 CA          9.4565   -2.8115   52.3580 C.3       2 GLC5        0.0000 
     34 CA          7.8400   -3.3930   53.1030 C.3       6 GLL5        0.0000 
     35 CA         11.0730   -2.2300   51.6130 C.3       4 GLP5        0.0000 
     36 N           4.8255   -3.1230   57.1080 N.am      1 SEC2        0.0000 
     37 N           5.8780   -4.1350   57.1760 N.am      5 SEL2        0.0000 
     38 CA          3.4890   -2.6920   60.0040 C.3       2 GLC5        0.0000 
     39 CA          4.6590   -3.7930   61.0960 C.3       6 GLL5        0.0000 
     40 CA          2.3190   -1.5910   58.9120 C.3       4 GLP5        0.0000 
     41 N           4.2620   -1.3560   63.5710 N.am      1 SEC2        0.0000 
     42 N           4.2160   -2.8030   63.7410 N.am      5 SEL2        0.0000 
     43 N           4.3080    0.0910   63.4010 N.am      3 SEP2        0.0000 
     44 N           5.3375   -1.9785   63.3390 N.am      1 SEC2        0.0000 
     45 N           6.4590   -1.1540   62.9370 N.am      3 SEP2        0.0000 
     46 CA          5.1065   -5.6985   63.5320 C.3       2 GLC5        0.0000 
     47 CA          4.5830   -5.1770   61.7020 C.3       6 GLL5        0.0000 
     48 CA          5.6300   -6.2200   65.3620 C.3       4 GLP5        0.0000 
     49 CA          5.6380   -7.4185   63.0330 C.3       2 GLC5        0.0000 
     50 CA          5.9090   -7.1230   60.8490 C.3       6 GLL5        0.0000 
     51 CA          5.3670   -7.7140   65.2170 C.3       4 GLP5        0.0000 
     52 CA          0.8368  -10.3143   55.7417 C.3       2 GLC5        0.0000 
     53 CA         -0.5830   -9.5690   55.0800 C.3       4 GLP5        0.0000 
     54 CA          3.2319  -13.1409   56.8991 C.3       2 GLC5        0.0000 
     55 CA         10.8412   -1.5452   56.3125 C.3       2 GLC5        0.0000 
     56 CA         12.3110   -2.2710   55.2060 C.3       4 GLP5        0.0000 
     57 CA          9.8064    1.1520   57.5260 C.3       2 GLC5        0.0000 
     58 CA         10.2820    2.8160   57.8560 C.3       4 GLP5        0.0000 
     59 CA          3.1370   -4.8990   62.7300 C.3       2 GLC5        0.0000 
     60 CA          1.6530   -5.3130   64.0610 C.3       4 GLP5        0.0000 
     61 CA          7.6408   -7.3450   61.2983 C.3       2 GLC5        0.0000 
     62 CA          9.2360   -7.0540   62.2180 C.3       4 GLP5        0.0000 
     63 CA          5.4516   -9.4043   60.6604 C.3       2 GLC5        0.0000 
@<TRIPOS>BOND
@<TRIPOS>SUBSTRUCTURE
     1 SEC2       20 GROUP        1 X    SEC  0     ROOT SEC X 2
     2 GLC5        1 GROUP        1 X    GLC  0     **** GLC X 6
     3 SEP2       22 GROUP        1 Y    SEP  0     ROOT SEP Y 9
     4 GLP5        3 GROUP        1 Y    GLP  0     **** GLP Y 13
     5 SEL2       21 GROUP        1 Z    SEL  0     ROOT SEL Z 16
     6 GLL5        2 GROUP        1 Z    GLL  0     **** GLL Z 20
@<TRIPOS>SET

