#    Name: 1m21_PHE_LEU_CSI_PHA_1_ligand
#    Modification time : Tue Mar 25 11:21:08 2014

@<TRIPOS>MOLECULE
1m21_PHE_LEU_CSI_PHA_1_ligand
   85    87     4     0     0
SMALL
NO_CHARGES


@<TRIPOS>ATOM
      1 N           6.3440   -8.6730   55.5330 N.am      1 PHE1        0.0000
      2 CA          7.0100   -9.9850   55.2560 C.3       1 PHE1        0.0000
      3 C           6.6860  -10.2180   53.7560 C.2       1 PHE1        0.0000
      4 O           6.3120  -11.1840   53.3980 O.2       1 PHE1        0.0000
      5 CB          6.3800  -10.9810   56.2860 C.3       1 PHE1        0.0000
      6 CG          4.8360  -11.0710   56.5080 C.ar      1 PHE1        0.0000
      7 CD1         3.8750  -10.7100   55.5050 C.ar      1 PHE1        0.0000
      8 CD2         4.3690  -11.5450   57.7730 C.ar      1 PHE1        0.0000
      9 CE1         2.4820  -10.8230   55.7700 C.ar      1 PHE1        0.0000
     10 CE2         2.9730  -11.6560   58.0370 C.ar      1 PHE1        0.0000
     11 CZ          2.0310  -11.2960   57.0370 C.ar      1 PHE1        0.0000
     12 OXT         6.8600   -9.2900   52.9190 O.3       1 PHE1        0.0000
     13 HNCA        5.3845   -8.6092   55.4784 H         1 PHE1        0.0000
     14 HA          8.0357   -9.8866   55.4052 H         1 PHE1        0.0000
     15 HB2         6.8602  -10.7814   57.2913 H         1 PHE1        0.0000
     16 HB3         6.7506  -12.0188   56.0277 H         1 PHE1        0.0000
     17 HD1         4.1977  -10.3717   54.6005 H         1 PHE1        0.0000
     18 HD2         5.0436  -11.8061   58.4932 H         1 PHE1        0.0000
     19 HE1         1.8049  -10.5660   55.0547 H         1 PHE1        0.0000
     20 HE2         2.6535  -11.9932   58.9421 H         1 PHE1        0.0000
     21 HZ          1.0336  -11.3748   57.2225 H         1 PHE1        0.0000
     22 H           7.3544   -8.5794   53.4197 H         1 PHE1        0.0000
     23 N           7.9530   -3.6080   57.9530 N.am      2 LEU3        0.0000
     24 CA          7.6230   -2.4520   58.8180 C.3       2 LEU3        0.0000
     25 C           6.2770   -2.5190   59.6240 C.2       2 LEU3        0.0000
     26 O           5.4740   -1.5650   59.6400 O.2       2 LEU3        0.0000
     27 CB          7.5020   -1.1980   57.9180 C.3       2 LEU3        0.0000
     28 CG          8.7270   -0.9430   57.0230 C.3       2 LEU3        0.0000
     29 CD1         8.5640    0.2870   56.1310 C.3       2 LEU3        0.0000
     30 CD2        10.0160   -0.6960   57.8150 C.3       2 LEU3        0.0000
     31 HNCA        9.0017   -3.8412   57.9519 H         2 LEU3        0.0000
     32 HA          8.4184   -2.2417   59.5193 H         2 LEU3        0.0000
     33 HB2         7.3393   -0.3198   58.5603 H         2 LEU3        0.0000
     34 HB3         6.6110   -1.3075   57.2821 H         2 LEU3        0.0000
     35 HG          8.8940   -1.7976   56.3795 H         2 LEU3        0.0000
     36 HD11        9.3676    0.4373   55.5552 H         2 LEU3        0.0000
     37 HD12        7.7773    0.2008   55.5197 H         2 LEU3        0.0000
     38 HD13        8.4282    1.1197   56.6678 H         2 LEU3        0.0000
     39 HD21       10.7969   -0.5331   57.2120 H         2 LEU3        0.0000
     40 HD22        9.9369    0.1008   58.4140 H         2 LEU3        0.0000
     41 HD23       10.2510   -1.4762   58.3946 H         2 LEU3        0.0000
     42 NE          8.5230   -4.4420   52.3320 N.pl3     3 CSI2        0.0000
     43 CD2         9.1670   -5.4790   52.9450 C.cat     3 CSI2        0.0000
     44 CD1         7.8400   -3.3930   53.1030 C.3       3 CSI2        0.0000
     45 NH         10.0080   -6.2990   52.2900 N.pl3     3 CSI2        0.0000
     46 CB          8.3200   -4.7420   55.1160 C.3       3 CSI2        0.0000
     47 CG1         7.2210   -3.9720   54.3500 C.3       3 CSI2        0.0000
     48 NG2         9.0110   -5.7990   54.2830 N.pl3     3 CSI2        0.0000
     49 N           6.8460   -6.5000   56.0920 N.am      3 CSI2        0.0000
     50 CA          7.7860   -5.4150   56.4160 C.3       3 CSI2        0.0000
     51 C           7.1060   -4.3160   57.2380 C.2       3 CSI2        0.0000
     52 O           5.8780   -4.1350   57.1760 O.co2     3 CSI2        0.0000
     53 O3          8.4570   -7.9720   55.8720 O.co2     3 CSI2        0.0000
     54 C7          7.2360   -7.7290   55.8330 C.2       3 CSI2        0.0000
     55 H           8.4898   -4.3529   51.3041 H         3 CSI2        0.0000
     56 H           7.0518   -2.9282   52.4995 H         3 CSI2        0.0000
     57 H           8.5493   -2.6086   53.3912 H         3 CSI2        0.0000
     58 H          10.3820   -7.0602   52.8198 H         3 CSI2        0.0000
     59 H          10.1843   -6.0744   51.3316 H         3 CSI2        0.0000
     60 H           9.0842   -4.0148   55.4378 H         3 CSI2        0.0000
     61 H           6.4324   -4.6591   54.0912 H         3 CSI2        0.0000
     62 H           6.8457   -3.1837   54.9814 H         3 CSI2        0.0000
     63 H           9.3012   -6.6228   54.7150 H         3 CSI2        0.0000
     64 H           5.8355   -6.2149   56.0838 H         3 CSI2        0.0000
     65 H           8.6319   -5.7758   56.9638 H         3 CSI2        0.0000
     66 N           5.9530   -3.6430   60.3090 N.4       4 PHA4        0.0000
     67 CA          4.6590   -3.7930   61.0960 C.3       4 PHA4        0.0000
     68 C           4.6010   -2.6460   62.1610 C.2       4 PHA4        0.0000
     69 O           4.2160   -2.8030   63.7410 O.2       4 PHA4        0.0000
     70 CB          4.5830   -5.1770   61.7020 C.3       4 PHA4        0.0000
     71 CG          4.8180   -6.2600   60.6580 C.ar      4 PHA4        0.0000
     72 CD1         5.9090   -7.1230   60.8490 C.ar      4 PHA4        0.0000
     73 CD2         3.9610   -6.4060   59.5020 C.ar      4 PHA4        0.0000
     74 CE1         6.1820   -8.1490   59.9080 C.ar      4 PHA4        0.0000
     75 CE2         4.2340   -7.4380   58.5560 C.ar      4 PHA4        0.0000
     76 CZ          5.3470   -8.3030   58.7690 C.ar      4 PHA4        0.0000
     77 H           3.8329   -3.6468   60.4124 H         4 PHA4        0.0000
     78 H           4.8202   -1.7028   61.8645 H         4 PHA4        0.0000
     79 H           3.5969   -5.3236   62.1534 H         4 PHA4        0.0000
     80 H           5.3358   -5.2714   62.4907 H         4 PHA4        0.0000
     81 H           6.5132   -7.0168   61.6678 H         4 PHA4        0.0000
     82 H           3.1810   -5.7802   59.3743 H         4 PHA4        0.0000
     83 H           6.9731   -8.7730   60.0476 H         4 PHA4        0.0000
     84 H           3.6440   -7.5546   57.7428 H         4 PHA4        0.0000
     85 H           5.5453   -9.0440   58.0912 H         4 PHA4        0.0000
@<TRIPOS>BOND
     1    2    1 1
     2   13    1 1
     3    3    2 1
     4    5    2 1
     5   14    2 1
     6    4    3 2
     7   12    3 1
     8    6    5 1
     9   15    5 1
    10   16    5 1
    11    7    6 ar
    12    8    6 ar
    13    9    7 ar
    14   17    7 1
    15   10    8 ar
    16   18    8 1
    17   11    9 ar
    18   19    9 1
    19   11   10 ar
    20   20   10 1
    21   21   11 1
    22   22   12 1
    23   24   23 1
    24   31   23 1
    25   25   24 1
    26   27   24 1
    27   32   24 1
    28   26   25 2
    29   28   27 1
    30   33   27 1
    31   34   27 1
    32   29   28 1
    33   30   28 1
    34   35   28 1
    35   36   29 1
    36   37   29 1
    37   38   29 1
    38   39   30 1
    39   40   30 1
    40   41   30 1
    41   43   42 ar
    42   44   42 1
    43   55   42 1
    44   45   43 ar
    45   48   43 ar
    46   47   44 1
    47   56   44 1
    48   57   44 1
    49   58   45 1
    50   59   45 1
    51   47   46 1
    52   48   46 1
    53   50   46 1
    54   60   46 1
    55   61   47 1
    56   62   47 1
    57   63   48 1
    58   50   49 1
    59   54   49 am
    60   64   49 1
    61   51   50 1
    62   65   50 1
    63   52   51 ar
    64   54   53 ar
    65   67   66 1
    66   68   67 1
    67   70   67 1
    68   77   67 1
    69   69   68 2
    70   78   68 1
    71   71   70 1
    72   79   70 1
    73   80   70 1
    74   72   71 ar
    75   73   71 ar
    76   74   72 ar
    77   81   72 1
    78   75   73 ar
    79   82   73 1
    80   76   74 ar
    81   83   74 1
    82   76   75 ar
    83   84   75 1
    84   85   76 1
    85   54    1 1 
    86   51   23 1 
    87   66   25 1 
@<TRIPOS>SUBSTRUCTURE
     1 PHE1        1 RESIDUE
     2 LEU3       23 RESIDUE
     3 CSI2       42 GROUP
     4 PHA4       66 GROUP
@<TRIPOS>SET

