#    Name: 3gwz_SAH_4_INTS_M
#    Modification time : Tue Mar 25 13:12:13 2014

@<TRIPOS>MOLECULE
3gwz_SAH_4_INTS_M
   80     0    12     0     0
SMALL
NO_CHARGES


@<TRIPOS>ATOM
      1 O          10.1025  105.2365   50.1405 O.2       1 ALC1        0.0000 
      2 O           9.0320  104.4820   49.6040 O.2       9 ALL1        0.0000 
      3 O          11.1730  105.9910   50.6770 O.2       5 ALP1        0.0000 
      4 O           8.4980  103.6105   50.6210 O.2       1 ALC1        0.0000 
      5 O           7.9640  102.7390   51.6380 O.2       5 ALP1        0.0000 
      6 CA          9.8450  105.9530   48.7690 C.3       4 GLC5        0.0000 
      7 CA          9.6230  103.8550   48.3770 C.3      12 GLL5        0.0000 
      8 CA         10.0670  108.0510   49.1610 C.3       8 GLP5        0.0000 
      9 CA          9.3280  100.8200   50.3640 C.3       4 GLC5        0.0000 
     10 CA         10.9060  101.9830   49.6830 C.3      12 GLL5        0.0000 
     11 CA          7.7500   99.6570   51.0450 C.3       8 GLP5        0.0000 
     12 CA         10.8020  102.9510   51.6590 C.3       4 GLC5        0.0000 
     13 CA         10.6980  103.9190   53.6350 C.3       8 GLP5        0.0000 
     14 CA         13.8115  100.0985   48.6030 C.3       4 GLC5        0.0000 
     15 CA         12.4490  101.0810   49.7190 C.3      12 GLL5        0.0000 
     16 CA         15.1740   99.1160   47.4870 C.3       8 GLP5        0.0000 
     17 CA         11.4025  100.2210   48.5985 C.3       4 GLC5        0.0000 
     18 CA         10.3560   99.3610   47.4780 C.3       8 GLP5        0.0000 
     19 NZ          6.9200  102.5135   46.9785 N.4       3 LYC4        0.0000 
     20 NZ          8.8330  102.3600   46.6990 N.4      11 LYL4        0.0000 
     21 NZ          5.0070  102.6670   47.2580 N.4       7 LYP4        0.0000 
     22 N           8.1255  101.7110   45.9120 N.am      2 SEC2        0.0000 
     23 N           8.8330  102.3600   46.6990 N.am     10 SEL2        0.0000 
     24 N           7.4180  101.0620   45.1250 N.am      6 SEP2        0.0000 
     25 NZ          6.3025  102.6225   47.8240 N.4       3 LYC4        0.0000 
     26 NZ          7.5980  102.5780   48.3900 N.4      11 LYL4        0.0000 
     27 N           6.3025  102.6225   47.8240 N.am      2 SEC2        0.0000 
     28 N           7.5980  102.5780   48.3900 N.am     10 SEL2        0.0000 
     29 N           5.0070  102.6670   47.2580 N.am      6 SEP2        0.0000 
     30 CA         15.5040  101.6225   48.3845 C.3       4 GLC5        0.0000 
     31 CA         14.9300  103.2440   49.8220 C.3      12 GLL5        0.0000 
     32 CA         16.0780  100.0010   46.9470 C.3       8 GLP5        0.0000 
     33 O          14.2850  105.3715   49.1210 O.2       1 ALC1        0.0000 
     34 O          14.4940  104.0960   48.7680 O.2       9 ALL1        0.0000 
     35 O          14.0760  106.6470   49.4740 O.2       5 ALP1        0.0000 
     36 CA         18.1380  104.6740   50.9550 C.3       4 GLC5        0.0000 
     37 CA         16.1530  103.8600   50.4880 C.3      12 GLL5        0.0000 
     38 CA         20.1230  105.4880   51.4220 C.3       8 GLP5        0.0000 
     39 N          18.2665  104.7530   49.9635 N.am      2 SEC2        0.0000 
     40 N          16.8200  104.8190   49.6630 N.am     10 SEL2        0.0000 
     41 N          19.7130  104.6870   50.2640 N.am      6 SEP2        0.0000 
     42 O          16.4745  106.1025   49.6785 O.2       1 ALC1        0.0000 
     43 O          16.8200  104.8190   49.6630 O.2       9 ALL1        0.0000 
     44 O          16.1290  107.3860   49.6940 O.2       5 ALP1        0.0000 
     45 O          15.4480  105.7330   49.5685 O.2       1 ALC1        0.0000 
     46 CA         13.9170  106.0335   51.9270 C.3       4 GLC5        0.0000 
     47 CA         15.5440  104.5790   51.6650 C.3      12 GLL5        0.0000 
     48 CA         12.2900  107.4880   52.1890 C.3       8 GLP5        0.0000 
     49 CA         17.4575  105.6980   51.5960 C.3       4 GLC5        0.0000 
     50 CA         19.3710  106.8170   51.5270 C.3       8 GLP5        0.0000 
     51 CA         14.9510  105.2785   53.6230 C.3       4 GLC5        0.0000 
     52 CA         14.3580  105.9780   55.5810 C.3       8 GLP5        0.0000 
     53 CA         18.5360  108.6595   55.9645 C.3       4 GLC5        0.0000 
     54 CA         18.0320  106.6770   55.3940 C.3      12 GLL5        0.0000 
     55 CA         19.0400  110.6420   56.5350 C.3       8 GLP5        0.0000 
     56 O          19.2010  107.5055   57.3540 O.2       1 ALC1        0.0000 
     57 O          18.8970  106.4460   56.4100 O.2       9 ALL1        0.0000 
     58 O          19.5050  108.5650   58.2980 O.2       5 ALP1        0.0000 
     59 N          17.2305  108.8335   56.2845 N.am      2 SEC2        0.0000 
     60 N          17.5160  107.9010   55.1420 N.am     10 SEL2        0.0000 
     61 N          16.9450  109.7660   57.4270 N.am      6 SEP2        0.0000 
     62 CA         16.2345  109.2570   52.3355 C.3       4 GLC5        0.0000 
     63 CA         16.6500  108.1240   54.1300 C.3      12 GLL5        0.0000 
     64 CA         15.8190  110.3900   50.5410 C.3       8 GLP5        0.0000 
     65 CA         18.0105  107.4705   52.8285 C.3       4 GLC5        0.0000 
     66 CA         17.8450  109.3830   55.3325 C.3       4 GLC5        0.0000 
     67 CA         15.5845  108.6260   55.9205 C.3       4 GLC5        0.0000 
     68 CA         14.5190  109.1280   57.7110 C.3       8 GLP5        0.0000 
     69 CA         11.2943  104.8847   47.5838 C.3       4 GLC5        0.0000 
     70 CA         10.9600  103.1520   48.6860 C.3      12 GLL5        0.0000 
     71 CA         12.2970  106.2660   46.6360 C.3       8 GLP5        0.0000 
     72 CA         10.6445  100.9642   48.3312 C.3       4 GLC5        0.0000 
     73 CA         15.1290  101.2827   51.2675 C.3       4 GLC5        0.0000 
     74 CA         13.2320  101.7950   51.1420 C.3      12 GLL5        0.0000 
     75 CA         16.7230  100.0710   51.5190 C.3       8 GLP5        0.0000 
     76 CA         12.1165  103.2067   52.3255 C.3       4 GLC5        0.0000 
     77 CA         16.6528  102.0635   50.4385 C.3       4 GLC5        0.0000 
     78 CA         17.7640  100.5750   50.7220 C.3       8 GLP5        0.0000 
     79 CA         18.3101  106.4111   52.8605 C.3       4 GLC5        0.0000 
     80 CA         17.6130  105.5700   54.5140 C.3      12 GLL5        0.0000 
@<TRIPOS>BOND
@<TRIPOS>SUBSTRUCTURE
     1 ALC1        1 GROUP        1 X    ALC  0     ROOT ALC X 1
     2 SEC2       22 GROUP        1 X    SEC  0     **** SEC X 2
     3 LYC4       19 GROUP        1 X    LYC  0     **** LYC X 4
     4 GLC5        6 GROUP        1 X    GLC  0     **** GLC X 6
     5 ALP1        3 GROUP        1 Y    ALP  0     ROOT ALP Y 8
     6 SEP2       24 GROUP        1 Y    SEP  0     **** SEP Y 9
     7 LYP4       21 GROUP        1 Y    LYP  0     **** LYP Y 11
     8 GLP5        8 GROUP        1 Y    GLP  0     **** GLP Y 13
     9 ALL1        2 GROUP        1 Z    ALL  0     ROOT ALL Z 15
    10 SEL2       23 GROUP        1 Z    SEL  0     **** SEL Z 16
    11 LYL4       20 GROUP        1 Z    LYL  0     **** LYL Z 18
    12 GLL5        7 GROUP        1 Z    GLL  0     **** GLL Z 20
@<TRIPOS>SET

