#    Name: 3gwz_SAH_4_ligand
#    Modification time : Tue Mar 25 13:12:13 2014

@<TRIPOS>MOLECULE
3gwz_SAH_4_ligand
   46    48     1     0     0
SMALL
NO_CHARGES


@<TRIPOS>ATOM
      1 N           9.0320  104.4820   49.6040 N.4       1 SAH354      0.0000 
      2 CA          9.6230  103.8550   48.3770 C.3       1 SAH354      0.0000 
      3 CB         10.9600  103.1520   48.6860 C.3       1 SAH354      0.0000 
      4 CG         10.9060  101.9830   49.6830 C.3       1 SAH354      0.0000 
      5 SD         12.4490  101.0810   49.7190 S.3       1 SAH354      0.0000 
      6 C           8.6310  102.8850   47.7910 C.2       1 SAH354      0.0000 
      7 O           8.8330  102.3600   46.6990 O.co2     1 SAH354      0.0000 
      8 OXT         7.5980  102.5780   48.3900 O.co2     1 SAH354      0.0000 
      9 C5'        13.2320  101.7950   51.1420 C.3       1 SAH354      0.0000 
     10 C4'        13.8380  103.1940   50.8900 C.3       1 SAH354      0.0000 
     11 O4'        14.4520  103.7350   52.0710 O.3       1 SAH354      0.0000 
     12 C3'        14.9300  103.2440   49.8220 C.3       1 SAH354      0.0000 
     13 O3'        14.4940  104.0960   48.7680 O.3       1 SAH354      0.0000 
     14 C2'        16.1530  103.8600   50.4880 C.3       1 SAH354      0.0000 
     15 O2'        16.8200  104.8190   49.6630 O.3       1 SAH354      0.0000 
     16 C1'        15.5440  104.5790   51.6650 C.3       1 SAH354      0.0000 
     17 N9         16.4650  104.7410   52.8000 N.pl3     1 SAH354      0.0000 
     18 C8         17.1790  103.7640   53.3980 C.2       1 SAH354      0.0000 
     19 N7         17.8820  104.2590   54.4400 N.2       1 SAH354      0.0000 
     20 C5         17.6130  105.5700   54.5140 C.ar      1 SAH354      0.0000 
     21 C6         18.0320  106.6770   55.3940 C.ar      1 SAH354      0.0000 
     22 N6         18.8970  106.4460   56.4100 N.pl3     1 SAH354      0.0000 
     23 N1         17.5160  107.9010   55.1420 N.ar      1 SAH354      0.0000 
     24 C2         16.6500  108.1240   54.1300 C.ar      1 SAH354      0.0000 
     25 N3         16.2210  107.1570   53.2880 N.ar      1 SAH354      0.0000 
     26 C4         16.6760  105.8870   53.4340 C.ar      1 SAH354      0.0000 
     27 H           9.8156  104.6343   47.6428 H         1 SAH354      0.0000 
     28 H          11.6761  103.9111   49.0681 H         1 SAH354      0.0000 
     29 H          11.3923  102.7837   47.7308 H         1 SAH354      0.0000 
     30 H          10.1937  101.2354   49.4112 H         1 SAH354      0.0000 
     31 H          10.7878  102.3027   50.6949 H         1 SAH354      0.0000 
     32 H          13.9799  101.0653   51.4098 H         1 SAH354      0.0000 
     33 H          12.4443  101.8150   51.8786 H         1 SAH354      0.0000 
     34 H          13.0378  103.8650   50.5644 H         1 SAH354      0.0000 
     35 H          15.1536  102.2681   49.5102 H         1 SAH354      0.0000 
     36 H          16.7727  103.0922   50.8506 H         1 SAH354      0.0000 
     37 H          15.1660  105.5235   51.3339 H         1 SAH354      0.0000 
     38 H          17.1868  102.8262   53.1161 H         1 SAH354      0.0000 
     39 H          18.8326  107.0657   57.1922 H         1 SAH354      0.0000 
     40 H          19.5235  105.6762   56.2881 H         1 SAH354      0.0000 
     41 H          16.2849  109.1147   53.9869 H         1 SAH354      0.0000 
     42 H           9.6428  105.1663   50.0023 H         1 SAH354      0.0000 
     43 H           8.1663  104.9417   49.4059 H         1 SAH354      0.0000 
     44 H           8.8477  103.8040   50.3155 H         1 SAH354      0.0000 
     45 H          14.4148  105.0020   49.1837 H         1 SAH354      0.0000 
     46 H          16.4013  105.6966   49.8962 H         1 SAH354      0.0000 
@<TRIPOS>BOND
     1    2    1 1    
     2   42    1 1    
     3   43    1 1    
     4   44    1 1    
     5    3    2 1    
     6    6    2 1    
     7   27    2 1    
     8    4    3 1    
     9   28    3 1    
    10   29    3 1    
    11    5    4 1    
    12   30    4 1    
    13   31    4 1    
    14    9    5 1    
    15    7    6 ar   
    16    8    6 ar   
    17   10    9 1    
    18   32    9 1    
    19   33    9 1    
    20   11   10 1    
    21   12   10 1    
    22   34   10 1    
    23   16   11 1    
    24   13   12 1    
    25   14   12 1    
    26   35   12 1    
    27   45   13 1    
    28   15   14 1    
    29   16   14 1    
    30   36   14 1    
    31   46   15 1    
    32   17   16 1    
    33   37   16 1    
    34   18   17 1    
    35   26   17 1    
    36   19   18 2    
    37   38   18 1    
    38   20   19 1    
    39   21   20 ar   
    40   26   20 ar   
    41   22   21 1    
    42   23   21 ar   
    43   39   22 1    
    44   40   22 1    
    45   24   23 ar   
    46   25   24 ar   
    47   41   24 1    
    48   26   25 ar   
@<TRIPOS>SUBSTRUCTURE
     1 SAH354      1 GROUP   
@<TRIPOS>SET

