#    Name: 3umw_596_1_INTS_M
#    Modification time : Mon Mar 24 23:01:49 2014

@<TRIPOS>MOLECULE
3umw_596_1_INTS_M
   71     0     9     0     0
SMALL
NO_CHARGES


@<TRIPOS>ATOM
      1 CA         16.6240  -40.3180   -2.5245 C.3       3 GLC5        0.0000 
      2 CA         17.0800  -38.5710   -1.8670 C.3       9 GLL5        0.0000 
      3 CA         16.1680  -42.0650   -3.1820 C.3       6 GLP5        0.0000 
      4 CA         17.3545  -40.1965   -0.8030 C.3       3 GLC5        0.0000 
      5 CA         17.6290  -41.8220    0.2610 C.3       6 GLP5        0.0000 
      6 CA         20.9785  -35.4515   -1.4210 C.3       3 GLC5        0.0000 
      7 CA         18.8530  -35.2840   -1.1810 C.3       9 GLL5        0.0000 
      8 CA         23.1040  -35.6190   -1.6610 C.3       6 GLP5        0.0000 
      9 CA         19.7315  -33.8455   -2.4415 C.3       3 GLC5        0.0000 
     10 CA         20.6100  -32.4070   -3.7020 C.3       6 GLP5        0.0000 
     11 CA         20.0035  -33.9745    0.0785 C.3       3 GLC5        0.0000 
     12 CA         21.1540  -32.6650    1.3380 C.3       6 GLP5        0.0000 
     13 CA         16.5850  -36.5595    1.2580 C.3       3 GLC5        0.0000 
     14 CA         17.5310  -34.6960    0.9240 C.3       9 GLL5        0.0000 
     15 CA         15.6390  -38.4230    1.5920 C.3       6 GLP5        0.0000 
     16 CA         18.5320  -32.3105   -3.4135 C.3       3 GLC5        0.0000 
     17 CA         16.4540  -32.2140   -3.1250 C.3       9 GLL5        0.0000 
     18 CA         17.8565  -30.5685   -3.1685 C.3       3 GLC5        0.0000 
     19 CA         19.2590  -28.9230   -3.2120 C.3       6 GLP5        0.0000 
     20 CA         16.2270  -30.6825   -1.7915 C.3       3 GLC5        0.0000 
     21 CA         16.0000  -29.1510   -0.4580 C.3       6 GLP5        0.0000 
     22 CA         18.7235  -33.8755    2.4075 C.3       3 GLC5        0.0000 
     23 CA         17.6410  -35.6160    2.9770 C.3       9 GLL5        0.0000 
     24 CA         19.8060  -32.1350    1.8380 C.3       6 GLP5        0.0000 
     25 CA         16.6400  -37.0195    2.2845 C.3       3 GLC5        0.0000 
     26 N          15.5715  -33.0040    4.4540 N.am      2 SEC2        0.0000 
     27 N          15.9320  -34.2480    4.0220 N.am      8 SEL2        0.0000 
     28 N          15.2110  -31.7600    4.8860 N.am      5 SEP2        0.0000 
     29 CA         18.7195  -35.6560    5.7095 C.3       3 GLC5        0.0000 
     30 CA         18.0430  -36.4710    4.1090 C.3       9 GLL5        0.0000 
     31 CA         19.3960  -34.8410    7.3100 C.3       6 GLP5        0.0000 
     32 CA         16.5145  -37.6470    4.0980 C.3       3 GLC5        0.0000 
     33 CA         14.9860  -38.8230    4.0870 C.3       6 GLP5        0.0000 
     34 O          20.9545  -39.7600    6.0765 O.2       1 ALC1        0.0000 
     35 O          20.2620  -39.0990    5.1430 O.2       7 ALL1        0.0000 
     36 O          21.6470  -40.4210    7.0100 O.2       4 ALP1        0.0000 
     37 CA         17.9100  -39.0550    3.8040 C.3       3 GLC5        0.0000 
     38 CA         19.8620  -38.1920    3.1390 C.3       9 GLL5        0.0000 
     39 CA         15.9580  -39.9180    4.4690 C.3       6 GLP5        0.0000 
     40 CA         20.7815  -35.9405    1.9550 C.3       3 GLC5        0.0000 
     41 CA         19.9610  -38.0200    1.7660 C.3       9 GLL5        0.0000 
     42 CA         21.6020  -33.8610    2.1440 C.3       6 GLP5        0.0000 
     43 CA         17.8000  -38.2215    1.6790 C.3       3 GLC5        0.0000 
     44 CA         22.2325  -38.3425    3.9625 C.3       3 GLC5        0.0000 
     45 CA         21.4730  -39.9620    3.1330 C.3       9 GLL5        0.0000 
     46 CA         22.9920  -36.7230    4.7920 C.3       6 GLP5        0.0000 
     47 CA         21.5660  -42.0010    4.0120 C.3       3 GLC5        0.0000 
     48 CA         21.6590  -44.0400    4.8910 C.3       6 GLP5        0.0000 
     49 CA         16.4692  -38.1898    0.0603 C.3       3 GLC5        0.0000 
     50 CA         17.5190  -37.3420   -1.0760 C.3       9 GLL5        0.0000 
     51 CA         18.7370  -33.3552    1.0435 C.3       3 GLC5        0.0000 
     52 CA         18.0033  -32.8015    1.5762 C.3       3 GLC5        0.0000 
     53 CA         16.5620  -33.9710    1.6140 C.3       9 GLL5        0.0000 
     54 CA         16.3238  -32.1825    3.0422 C.3       3 GLC5        0.0000 
     55 CA         16.4470  -30.8970    4.7700 C.3       6 GLP5        0.0000 
     56 CA         14.4988  -34.1980    2.3072 C.3       3 GLC5        0.0000 
     57 CA         15.8390  -32.9650    1.0150 C.3       9 GLL5        0.0000 
     58 CA         12.7970  -34.9280    3.3000 C.3       6 GLP5        0.0000 
     59 CA         18.1940  -32.6058    0.5765 C.3       3 GLC5        0.0000 
     60 CA         16.0990  -32.7190   -0.3260 C.3       9 GLL5        0.0000 
     61 CA         19.3150  -40.2632    3.0845 C.3       3 GLC5        0.0000 
     62 CA         20.5900  -39.1470    3.8310 C.3       9 GLL5        0.0000 
     63 CA         18.4040  -41.8570    2.6840 C.3       6 GLP5        0.0000 
     64 CA         21.5428  -37.5339    3.7087 C.3       3 GLC5        0.0000 
     65 CA         19.4032  -40.1418    2.0515 C.3       3 GLC5        0.0000 
     66 CA         22.4536  -38.0201    0.9637 C.3       3 GLC5        0.0000 
     67 CA         23.9090  -36.9270    0.3420 C.3       6 GLP5        0.0000 
     68 CA         23.2533  -40.6615    3.1082 C.3       3 GLC5        0.0000 
     69 CA         21.5940  -39.8000    1.7520 C.3       9 GLL5        0.0000 
     70 CA         24.9730  -41.4420    3.7740 C.3       6 GLP5        0.0000 
     71 CA         19.9688  -40.8690    2.5633 C.3       3 GLC5        0.0000 
@<TRIPOS>BOND
@<TRIPOS>SUBSTRUCTURE
     1 ALC1       34 GROUP        1 X    ALC  0     ROOT ALC X 1
     2 SEC2       26 GROUP        1 X    SEC  0     **** SEC X 2
     3 GLC5        1 GROUP        1 X    GLC  0     **** GLC X 6
     4 ALP1       36 GROUP        1 Y    ALP  0     ROOT ALP Y 8
     5 SEP2       28 GROUP        1 Y    SEP  0     **** SEP Y 9
     6 GLP5        3 GROUP        1 Y    GLP  0     **** GLP Y 13
     7 ALL1       35 GROUP        1 Z    ALL  0     ROOT ALL Z 15
     8 SEL2       27 GROUP        1 Z    SEL  0     **** SEL Z 16
     9 GLL5        2 GROUP        1 Z    GLL  0     **** GLL Z 20
@<TRIPOS>SET

