#    Name: 3umw_596_1_ligand
#    Modification time : Mon Mar 24 23:01:49 2014

@<TRIPOS>MOLECULE
3umw_596_1_ligand
   51    55     1     0     0
SMALL
NO_CHARGES


@<TRIPOS>ATOM
      1 C1         16.8620  -37.1290   -3.8790 C.3       1 596400      0.0000 
      2 C2         17.4120  -35.9520   -3.0510 C.3       1 596400      0.0000 
      3 N3         18.2650  -36.4210   -1.9460 N.4       1 596400      0.0000 
      4 C4         17.5190  -37.3420   -1.0760 C.3       1 596400      0.0000 
      5 C5         17.0800  -38.5710   -1.8670 C.3       1 596400      0.0000 
      6 N6         16.2990  -38.1780   -3.0220 N.3       1 596400      0.0000 
      7 C7         18.8530  -35.2840   -1.1810 C.3       1 596400      0.0000 
      8 C8         17.8050  -34.4550   -0.4260 C.ar      1 596400      0.0000 
      9 C9         17.5310  -34.6960    0.9240 C.ar      1 596400      0.0000 
     10 C10        16.5620  -33.9710    1.6140 C.ar      1 596400      0.0000 
     11 C11        15.8390  -32.9650    1.0150 C.ar      1 596400      0.0000 
     12 C12        16.0990  -32.7190   -0.3260 C.ar      1 596400      0.0000 
     13 C13        17.0650  -33.4340   -1.0440 C.ar      1 596400      0.0000 
     14 O14        17.2790  -33.1320   -2.3700 O.3       1 596400      0.0000 
     15 C15        16.4540  -32.2140   -3.1250 C.3       1 596400      0.0000 
     16 O16        18.1650  -35.6830    1.7200 O.3       1 596400      0.0000 
     17 C17        17.6410  -35.6160    2.9770 C.2       1 596400      0.0000 
     18 C18        16.6240  -34.5600    2.9750 C.2       1 596400      0.0000 
     19 O19        15.9320  -34.2480    4.0220 O.2       1 596400      0.0000 
     20 C20        18.0430  -36.4710    4.1090 C.2       1 596400      0.0000 
     21 C21        19.0460  -37.5590    4.1840 C.2       1 596400      0.0000 
     22 N22        19.3090  -38.1030    5.3850 N.2       1 596400      0.0000 
     23 N23        20.2620  -39.0990    5.1430 N.pl3     1 596400      0.0000 
     24 C24        20.5900  -39.1470    3.8310 C.ar      1 596400      0.0000 
     25 C25        19.8620  -38.1920    3.1390 C.ar      1 596400      0.0000 
     26 C26        19.9610  -38.0200    1.7660 C.ar      1 596400      0.0000 
     27 C27        20.8440  -38.8330    1.0720 C.ar      1 596400      0.0000 
     28 C28        21.5940  -39.8000    1.7520 C.ar      1 596400      0.0000 
     29 C29        21.4730  -39.9620    3.1330 C.ar      1 596400      0.0000 
     30 H          17.6838  -37.5240   -4.4909 H         1 596400      0.0000 
     31 H          16.0998  -36.7330   -4.5632 H         1 596400      0.0000 
     32 H          16.5587  -35.3803   -2.6665 H         1 596400      0.0000 
     33 H          17.9767  -35.2975   -3.7260 H         1 596400      0.0000 
     34 H          19.1100  -36.9911   -2.3944 H         1 596400      0.0000 
     35 H          16.6286  -36.8550   -0.6715 H         1 596400      0.0000 
     36 H          18.1405  -37.6725   -0.2405 H         1 596400      0.0000 
     37 H          16.4992  -39.2168   -1.1973 H         1 596400      0.0000 
     38 H          17.9798  -39.1220   -2.1662 H         1 596400      0.0000 
     39 H          19.3977  -34.6118   -1.8646 H         1 596400      0.0000 
     40 H          19.5867  -35.6616   -0.4496 H         1 596400      0.0000 
     41 H          15.1508  -32.4280    1.5220 H         1 596400      0.0000 
     42 H          15.5584  -31.9763   -0.8208 H         1 596400      0.0000 
     43 H          17.5237  -36.2743    5.0343 H         1 596400      0.0000 
     44 H          20.6248  -39.6682    5.8426 H         1 596400      0.0000 
     45 H          19.4043  -37.3208    1.2849 H         1 596400      0.0000 
     46 H          20.9527  -38.7301    0.0541 H         1 596400      0.0000 
     47 H          22.2456  -40.4011    1.2226 H         1 596400      0.0000 
     48 H          22.0253  -40.6683    3.6197 H         1 596400      0.0000 
     49 H          16.4603  -31.2963   -2.7278 H         1 596400      0.0000 
     50 H          16.7662  -32.1261   -4.0710 H         1 596400      0.0000 
     51 H          15.5002  -32.5127   -3.1576 H         1 596400      0.0000 
@<TRIPOS>BOND
     1    2    1 1    
     2    6    1 1    
     3   30    1 1    
     4   31    1 1    
     5    3    2 1    
     6   32    2 1    
     7   33    2 1    
     8    4    3 1    
     9    7    3 1    
    10   34    3 1    
    11    5    4 1    
    12   35    4 1    
    13   36    4 1    
    14    6    5 1    
    15   37    5 1    
    16   38    5 1    
    17    8    7 1    
    18   39    7 1    
    19   40    7 1    
    20    9    8 ar   
    21   13    8 ar   
    22   10    9 ar   
    23   16    9 1    
    24   11   10 ar   
    25   18   10 1    
    26   12   11 ar   
    27   41   11 1    
    28   13   12 ar   
    29   42   12 1    
    30   14   13 1    
    31   15   14 1    
    32   49   15 1    
    33   50   15 1    
    34   51   15 1    
    35   17   16 1    
    36   18   17 1    
    37   20   17 2    
    38   19   18 2    
    39   21   20 1    
    40   43   20 1    
    41   22   21 2    
    42   25   21 1    
    43   23   22 1    
    44   24   23 1    
    45   44   23 1    
    46   25   24 ar   
    47   29   24 ar   
    48   26   25 ar   
    49   27   26 ar   
    50   45   26 1    
    51   28   27 ar   
    52   46   27 1    
    53   29   28 ar   
    54   47   28 1    
    55   48   29 1    
@<TRIPOS>SUBSTRUCTURE
     1 596400      1 GROUP   
@<TRIPOS>SET

