#    Name: 4FYR_1_CAVITY_N1_ALL.mol2
#    Modification time : Mon Mar 10 22:03:15 2014

@<TRIPOS>MOLECULE
4FYR_1_CAVITY_N1_ALL.mol2
  180     0     7     0     0
SMALL
NO_CHARGES


@<TRIPOS>ATOM
      1 CA        109.6326   12.5423   32.2878 C.3       6 GLY6        0.0000 
      2 OD1       108.7262   10.6267   32.1925 O.3       3 ASP3        0.0000 
      3 NZ        109.6566   11.4050   31.3100 N.2       4 LYS4        0.0000 
      4 CA        108.4562   13.1346   31.5700 C.3       6 GLY6        0.0000 
      5 O         109.3865   13.9129   30.6875 O.2       2 ALA2        0.0000 
      6 N         107.5498   11.2191   31.4747 N.2       2 ALA2        0.0000 
      7 N         108.4802   11.9974   30.5922 N.2       2 ALA2        0.0000 
      8 O         109.4105   12.7757   29.7097 O.2       2 ALA2        0.0000 
      9 N         107.2798   13.7270   30.8522 N.2       2 ALA2        0.0000 
     10 O         108.2101   14.5053   29.9697 O.2       2 ALA2        0.0000 
     11 N         107.3038   12.5897   29.8744 N.2       2 ALA2        0.0000 
     12 N         108.2341   13.3680   28.9919 N.2       2 ALA2        0.0000 
     13 CA        107.0337   15.0976   29.2519 C.3       6 GLY6        0.0000 
     14 O         107.9640   15.8759   28.3694 O.2       2 ALA2        0.0000 
     15 CA        107.0577   13.9603   28.2742 C.3       6 GLY6        0.0000 
     16 O         107.9880   14.7386   27.3917 O.2       2 ALA2        0.0000 
     17 N         108.9183   15.5169   26.5092 N.2       2 ALA2        0.0000 
     18 N         107.0816   12.8230   27.2964 N.2       2 ALA2        0.0000 
     19 N         108.0119   13.6013   26.4139 N.2       2 ALA2        0.0000 
     20 CA        108.0359   12.4640   25.4362 C.3       6 GLY6        0.0000 
     21 N         108.9662   13.2423   24.5537 N.2       2 ALA2        0.0000 
     22 OG        108.9902   12.1051   23.5759 O.2       1 SER1        0.0000 
     23 CZ        106.7876   16.4682   27.6517 C.ar      5 PHE5        0.0000 
     24 CZ        107.7179   17.2465   26.7692 C.ar      5 PHE5        0.0000 
     25 OG        106.8116   15.3309   26.6739 O.2       1 SER1        0.0000 
     26 N         107.7419   16.1092   25.7914 N.2       2 ALA2        0.0000 
     27 OG        105.9052   13.4154   26.5786 O.2       1 SER1        0.0000 
     28 DU        106.8355   14.1936   25.6961 H         7 CUB7        0.0000 
     29 N         107.7659   14.9719   24.8137 N.2       2 ALA2        0.0000 
     30 N         108.6962   15.7502   23.9312 N.2       2 ALA2        0.0000 
     31 N         105.9292   12.2781   25.6009 N.2       2 ALA2        0.0000 
     32 N         106.8595   13.0564   24.7184 N.2       2 ALA2        0.0000 
     33 N         107.7898   13.8347   23.8359 N.2       2 ALA2        0.0000 
     34 O         108.7201   14.6130   22.9534 O.2       2 ALA2        0.0000 
     35 N         107.8138   12.6974   22.8581 N.2       2 ALA2        0.0000 
     36 O         108.7441   13.4757   21.9757 O.2       2 ALA2        0.0000 
     37 CZ        105.6352   15.9233   25.9561 C.ar      5 PHE5        0.0000 
     38 CZ        106.5655   16.7015   25.0736 C.ar      5 PHE5        0.0000 
     39 CZ        107.4958   17.4798   24.1912 C.ar      5 PHE5        0.0000 
     40 OG        104.7288   14.0077   25.8608 O.2       1 SER1        0.0000 
     41 DU        105.6591   14.7860   24.9784 H         7 CUB7        0.0000 
     42 DU        106.5894   15.5643   24.0959 H         7 CUB7        0.0000 
     43 N         107.5198   16.3426   23.2134 N.2       2 ALA2        0.0000 
     44 N         108.4501   17.1209   22.3309 N.2       2 ALA2        0.0000 
     45 N         104.7528   12.8704   24.8831 N.2       2 ALA2        0.0000 
     46 N         105.6831   13.6487   24.0006 N.2       2 ALA2        0.0000 
     47 DU        106.6134   14.4270   23.1181 H         7 CUB7        0.0000 
     48 CA        107.5437   15.2053   22.2356 C.3       6 GLY6        0.0000 
     49 CA        108.4740   15.9836   21.3532 C.3       6 GLY6        0.0000 
     50 N         106.6374   13.2897   22.1404 N.2       2 ALA2        0.0000 
     51 CA        104.4588   16.5156   25.2383 C.3       6 GLY6        0.0000 
     52 CA        105.3891   17.2939   24.3559 C.3       6 GLY6        0.0000 
     53 OG        107.2497   18.8505   22.5909 O.2       1 SER1        0.0000 
     54 CA        104.4827   15.3783   24.2606 C.3       6 GLY6        0.0000 
     55 CA        105.4130   16.1566   23.3781 C.3       6 GLY6        0.0000 
     56 CZ        106.3434   16.9349   22.4956 C.ar      5 PHE5        0.0000 
     57 OG        107.2737   17.7132   21.6131 O.2       1 SER1        0.0000 
     58 OG        108.2040   18.4915   20.7307 O.2       1 SER1        0.0000 
     59 N         109.1343   19.2698   19.8482 N.2       2 ALA2        0.0000 
     60 CA        103.5764   13.4627   24.1653 C.3       6 GLY6        0.0000 
     61 DU        104.5067   14.2410   23.2828 H         7 CUB7        0.0000 
     62 DU        105.4370   15.0193   22.4003 H         7 CUB7        0.0000 
     63 CA        106.3673   15.7976   21.5179 C.3       6 GLY6        0.0000 
     64 CA        107.2976   16.5759   20.6354 C.3       6 GLY6        0.0000 
     65 N         108.2280   17.3542   19.7529 N.2       2 ALA2        0.0000 
     66 O         103.6003   12.3254   23.1875 O.2       2 ALA2        0.0000 
     67 N         104.5306   13.1037   22.3050 N.2       2 ALA2        0.0000 
     68 N         105.4610   13.8820   21.4226 N.2       2 ALA2        0.0000 
     69 OG        105.1430   18.6645   22.7556 O.2       1 SER1        0.0000 
     70 CA        103.3063   15.9706   23.5428 C.3       6 GLY6        0.0000 
     71 CA        104.2366   16.7489   22.6603 C.3       6 GLY6        0.0000 
     72 OG        105.1670   17.5272   21.7778 O.2       1 SER1        0.0000 
     73 OG        106.0973   18.3055   20.8954 O.2       1 SER1        0.0000 
     74 OG        107.0276   19.0838   20.0129 O.2       1 SER1        0.0000 
     75 OG        107.9579   19.8621   19.1304 O.2       1 SER1        0.0000 
     76 CA        102.4000   14.0551   23.4475 C.3       6 GLY6        0.0000 
     77 DU        103.3303   14.8334   22.5650 H         7 CUB7        0.0000 
     78 DU        104.2606   15.6116   21.6825 H         7 CUB7        0.0000 
     79 CA        105.1909   16.3899   20.8001 C.3       6 GLY6        0.0000 
     80 CA        106.1212   17.1682   19.9176 C.3       6 GLY6        0.0000 
     81 CA        107.0515   17.9465   19.0351 C.3       6 GLY6        0.0000 
     82 N         107.9819   18.7248   18.1526 N.2       2 ALA2        0.0000 
     83 NZ        108.9122   19.5031   17.2702 N.2       4 LYS4        0.0000 
     84 CA        102.4239   12.9178   22.4697 C.3       6 GLY6        0.0000 
     85 DU        103.3542   13.6961   21.5873 H         7 CUB7        0.0000 
     86 N         104.2845   14.4744   20.7048 N.2       2 ALA2        0.0000 
     87 CA        105.2149   15.2527   19.8223 C.3       6 GLY6        0.0000 
     88 CA        106.1452   16.0309   18.9398 C.3       6 GLY6        0.0000 
     89 O         107.0755   16.8092   18.0574 O.2       2 ALA2        0.0000 
     90 O         108.0058   17.5875   17.1749 O.2       2 ALA2        0.0000 
     91 OG        103.9666   19.2568   22.0378 O.2       1 SER1        0.0000 
     92 N         102.1299   16.5630   22.8250 N.2       2 ALA2        0.0000 
     93 N         103.0602   17.3413   21.9425 N.2       2 ALA2        0.0000 
     94 OG        103.9905   18.1195   21.0600 O.2       1 SER1        0.0000 
     95 OG        104.9209   18.8978   20.1776 O.2       1 SER1        0.0000 
     96 OG        105.8512   19.6761   19.2951 O.2       1 SER1        0.0000 
     97 CZ        106.7815   20.4544   18.4126 C.ar      5 PHE5        0.0000 
     98 N         107.7118   21.2327   17.5301 N.2       2 ALA2        0.0000 
     99 DU        103.0842   16.2040   20.9648 H         7 CUB7        0.0000 
    100 DU        104.0145   16.9823   20.0823 H         7 CUB7        0.0000 
    101 DU        104.9448   17.7606   19.1998 H         7 CUB7        0.0000 
    102 DU        105.8751   18.5388   18.3173 H         7 CUB7        0.0000 
    103 DU        106.8055   19.3171   17.4348 H         7 CUB7        0.0000 
    104 NZ        107.7358   20.0954   16.5524 N.2       4 LYS4        0.0000 
    105 DU        104.0385   15.8450   19.1045 H         7 CUB7        0.0000 
    106 O         104.9688   16.6233   18.2220 O.2       2 ALA2        0.0000 
    107 O         105.8991   17.4016   17.3396 O.2       2 ALA2        0.0000 
    108 CA        106.8294   18.1799   16.4571 C.3       6 GLY6        0.0000 
    109 O         107.7597   18.9582   15.5746 O.2       2 ALA2        0.0000 
    110 O         104.9927   15.4860   17.2443 O.2       2 ALA2        0.0000 
    111 CZ        102.7902   19.8492   21.3200 C.ar      5 PHE5        0.0000 
    112 DU        102.8141   18.7119   20.3423 H         7 CUB7        0.0000 
    113 CZ        103.7445   19.4902   19.4598 C.ar      5 PHE5        0.0000 
    114 CZ        104.6748   20.2685   18.5773 C.ar      5 PHE5        0.0000 
    115 CZ        105.6051   21.0468   17.6948 C.ar      5 PHE5        0.0000 
    116 N         106.5354   21.8250   16.8123 N.2       2 ALA2        0.0000 
    117 DU        103.7684   18.3529   18.4820 H         7 CUB7        0.0000 
    118 DU        104.6987   19.1312   17.5995 H         7 CUB7        0.0000 
    119 DU        105.6291   19.9095   16.7171 H         7 CUB7        0.0000 
    120 DU        106.5594   20.6878   15.8346 H         7 CUB7        0.0000 
    121 CA        107.4897   21.4661   14.9521 C.3       6 GLY6        0.0000 
    122 DU        103.7924   17.2156   17.5043 H         7 CUB7        0.0000 
    123 O         104.7227   17.9939   16.6218 O.2       2 ALA2        0.0000 
    124 O         105.6530   18.7722   15.7393 O.2       2 ALA2        0.0000 
    125 O         106.5833   19.5505   14.8568 O.2       2 ALA2        0.0000 
    126 CA        107.5136   20.3288   13.9743 C.3       6 GLY6        0.0000 
    127 O         104.7466   16.8566   15.6440 O.2       2 ALA2        0.0000 
    128 N         100.6835   19.6632   21.4847 N.2       2 ALA2        0.0000 
    129 CZ        101.6138   20.4415   20.6022 C.ar      5 PHE5        0.0000 
    130 CZ        102.5441   21.2198   19.7198 C.ar      5 PHE5        0.0000 
    131 CZ        102.5681   20.0825   18.7420 C.ar      5 PHE5        0.0000 
    132 CZ        103.4984   20.8608   17.8595 C.ar      5 PHE5        0.0000 
    133 CZ        104.4287   21.6391   16.9770 C.ar      5 PHE5        0.0000 
    134 O         105.3590   22.4174   16.0946 O.2       2 ALA2        0.0000 
    135 DU        103.5223   19.7235   16.8818 H         7 CUB7        0.0000 
    136 O         104.4527   20.5018   15.9993 O.2       2 ALA2        0.0000 
    137 O         105.3830   21.2801   15.1168 O.2       2 ALA2        0.0000 
    138 CA        106.3133   22.0584   14.2343 C.3       6 GLY6        0.0000 
    139 DU        102.6160   17.8079   16.7865 H         7 CUB7        0.0000 
    140 O         103.5463   18.5862   15.9040 O.2       2 ALA2        0.0000 
    141 O         104.4766   19.3645   15.0215 O.2       2 ALA2        0.0000 
    142 O         105.4069   20.1428   14.1390 O.2       2 ALA2        0.0000 
    143 O          99.5071   20.2555   20.7669 O.2       2 ALA2        0.0000 
    144 O         100.4374   21.0338   19.8844 O.2       2 ALA2        0.0000 
    145 CZ        101.3677   21.8121   19.0020 C.ar      5 PHE5        0.0000 
    146 CZ        102.2980   22.5904   18.1195 C.ar      5 PHE5        0.0000 
    147 CZ        103.2283   23.3687   17.2370 C.ar      5 PHE5        0.0000 
    148 NZ        104.1587   24.1470   16.3545 N.2       4 LYS4        0.0000 
    149 O         101.3917   20.6748   18.0242 O.2       2 ALA2        0.0000 
    150 CZ        102.3220   21.4531   17.1417 C.ar      5 PHE5        0.0000 
    151 DU        103.2523   22.2314   16.2593 H         7 CUB7        0.0000 
    152 NZ        104.1826   23.0097   15.3768 N.2       4 LYS4        0.0000 
    153 DU        102.3459   20.3158   16.1640 H         7 CUB7        0.0000 
    154 O         103.2762   21.0941   15.2815 O.2       2 ALA2        0.0000 
    155 O         104.2066   21.8724   14.3990 O.2       2 ALA2        0.0000 
    156 NZ        105.1369   22.6507   13.5165 N.2       4 LYS4        0.0000 
    157 OG        102.0280   25.0983   17.4970 O.2       1 SER1        0.0000 
    158 O         101.1216   23.1827   17.4017 O.2       2 ALA2        0.0000 
    159 OG        102.0519   23.9610   16.5192 O.2       1 SER1        0.0000 
    160 NZ        102.9822   24.7393   15.6368 N.2       4 LYS4        0.0000 
    161 O          99.2849   20.4889   18.1889 O.2       2 ALA2        0.0000 
    162 O         100.2152   21.2672   17.3064 O.2       2 ALA2        0.0000 
    163 O         101.1456   22.0454   16.4239 O.2       2 ALA2        0.0000 
    164 DU        102.0759   22.8237   15.5415 H         7 CUB7        0.0000 
    165 NZ        103.0062   23.6020   14.6590 N.2       4 LYS4        0.0000 
    166 DU        101.1695   20.9082   15.4462 H         7 CUB7        0.0000 
    167 O         102.0998   21.6865   14.5637 O.2       2 ALA2        0.0000 
    168 O         103.0302   22.4647   13.6812 O.2       2 ALA2        0.0000 
    169 NZ        103.9605   23.2430   12.7988 N.2       4 LYS4        0.0000 
    170 O         103.9844   22.1058   11.8210 O.2       2 ALA2        0.0000 
    171 O          99.9452   23.7751   16.6839 O.2       2 ALA2        0.0000 
    172 NZ        100.8755   24.5533   15.8014 N.2       4 LYS4        0.0000 
    173 NZ        101.8058   25.3316   14.9190 N.2       4 LYS4        0.0000 
    174 O          99.9692   22.6378   15.7062 O.2       2 ALA2        0.0000 
    175 DU        100.8995   23.4161   14.8237 H         7 CUB7        0.0000 
    176 NZ        101.8298   24.1944   13.9412 N.2       4 LYS4        0.0000 
    177 O          99.0628   20.7222   15.6109 O.2       2 ALA2        0.0000 
    178 DU        100.9234   22.2788   13.8459 H         7 CUB7        0.0000 
    179 DU        101.8538   23.0571   12.9634 H         7 CUB7        0.0000 
    180 O         101.8777   21.9198   11.9857 O.2       2 ALA2        0.0000 
@<TRIPOS>BOND
@<TRIPOS>SUBSTRUCTURE
     1 SER1       22 GROUP   
     2 ALA2        5 GROUP   
     3 ASP3        2 GROUP   
     4 LYS4        3 GROUP   
     5 PHE5       23 GROUP   
     6 GLY6        1 GROUP   
     7 CUB7       28 GROUP   
@<TRIPOS>SET

