#    Name: 4fyr_BES_1_INTS_M
#    Modification time : Mon Mar 24 21:05:11 2014

@<TRIPOS>MOLECULE
4fyr_BES_1_INTS_M
   49     0     9     0     0
SMALL
NO_CHARGES


@<TRIPOS>ATOM
      1 CA        105.6475   16.1370   27.8440 C.3       3 GLC5        0.0000 
      2 CA        106.9930   16.0250   26.0750 C.3       9 GLL5        0.0000 
      3 CA        104.3020   16.2490   29.6130 C.3       6 GLP5        0.0000 
      4 CA        108.7860   16.2845   28.4810 C.3       3 GLC5        0.0000 
      5 CA        107.3810   15.2630   27.1780 C.3       9 GLL5        0.0000 
      6 CA        110.1910   17.3060   29.7840 C.3       6 GLP5        0.0000 
      7 CA        107.0935   11.4890   25.8460 C.3       3 GLC5        0.0000 
      8 CA        106.2500   13.3320   26.2010 C.3       9 GLL5        0.0000 
      9 CA        107.9370    9.6460   25.4910 C.3       6 GLP5        0.0000 
     10 CA        105.7975   19.7865   21.7195 C.3       3 GLC5        0.0000 
     11 CA        106.5360   17.7230   21.8740 C.3       9 GLL5        0.0000 
     12 CA        105.0590   21.8500   21.5650 C.3       6 GLP5        0.0000 
     13 N         109.5150   18.5965   22.9685 N.am      1 SEC2        0.0000 
     14 N         108.7500   18.6500   21.6170 N.am      7 SEL2        0.0000 
     15 N         110.2800   18.5430   24.3200 N.am      4 SEP2        0.0000 
     16 CA        107.9110   17.4160   16.1980 C.3       3 GLC5        0.0000 
     17 CA        108.1080   19.2150   17.4100 C.3       9 GLL5        0.0000 
     18 CA        107.7140   15.6170   14.9860 C.3       6 GLP5        0.0000 
     19 CA        109.6785   17.9160   16.6740 C.3       3 GLC5        0.0000 
     20 CA        111.2490   16.6170   15.9380 C.3       6 GLP5        0.0000 
     21 CA        107.2125   20.1625   13.4095 C.3       3 GLC5        0.0000 
     22 CA        107.1100   20.3770   15.3860 C.3       9 GLL5        0.0000 
     23 CA        107.3150   19.9480   11.4330 C.3       6 GLP5        0.0000 
     24 CA        105.4130   21.4010   18.9435 C.3       3 GLC5        0.0000 
     25 CA        105.7980   20.2640   17.5220 C.3       9 GLL5        0.0000 
     26 CA        105.0280   22.5380   20.3650 C.3       6 GLP5        0.0000 
     27 Zn        108.4085   22.2360   20.0225 Zn        2 ZIC7        0.0000 
     28 Zn        108.0820   21.2840   20.0730 Zn        8 ZIL7        0.0000 
     29 Zn        108.7350   23.1880   19.9720 Zn        5 ZIP7        0.0000 
     30 N         107.0840   21.1365   20.9350 N.am      1 SEC2        0.0000 
     31 N         108.0820   21.2840   20.0730 N.am      7 SEL2        0.0000 
     32 N         106.0860   20.9890   21.7970 N.am      4 SEP2        0.0000 
     33 Zn        109.2925   22.1965   19.4080 Zn        2 ZIC7        0.0000 
     34 Zn        109.8500   21.2050   18.8440 Zn        8 ZIL7        0.0000 
     35 N         110.4290   21.0975   17.6090 N.am      1 SEC2        0.0000 
     36 N         109.8500   21.2050   18.8440 N.am      7 SEL2        0.0000 
     37 N         111.0080   20.9900   16.3740 N.am      4 SEP2        0.0000 
     38 N         110.0865   21.0320   20.5165 N.am      1 SEC2        0.0000 
     39 N         110.3230   20.8590   22.1890 N.am      4 SEP2        0.0000 
     40 CA        106.5500   18.5625   23.7188 C.3       3 GLC5        0.0000 
     41 CA        106.3290   19.8770   25.0220 C.3       6 GLP5        0.0000 
     42 CA        105.2340   17.5348   25.3053 C.3       3 GLC5        0.0000 
     43 CA        105.8310   16.2870   23.8090 C.3       9 GLL5        0.0000 
     44 CA        103.9530   19.1240   25.3620 C.3       6 GLP5        0.0000 
     45 CA        105.4921   14.3305   28.1702 C.3       3 GLC5        0.0000 
     46 CA        104.2610   14.7000   29.6410 C.3       6 GLP5        0.0000 
     47 CA        108.1070   22.0577   16.6095 C.3       3 GLC5        0.0000 
     48 CA        107.1840   20.3340   16.9240 C.3       9 GLL5        0.0000 
     49 CA        109.0670   23.7600   17.0640 C.3       6 GLP5        0.0000 
@<TRIPOS>BOND
@<TRIPOS>SUBSTRUCTURE
     1 SEC2       13 GROUP        1 X    SEC  0     ROOT SEC X 2
     2 ZIC7       27 GROUP        1 X    ZIC  0     **** ZIC X 5
     3 GLC5        1 GROUP        1 X    GLC  0     **** GLC X 6
     4 SEP2       15 GROUP        1 Y    SEP  0     ROOT SEP Y 9
     5 ZIP7       29 GROUP        1 Y    ZIP  0     **** ZIP Y 12
     6 GLP5        3 GROUP        1 Y    GLP  0     **** GLP Y 13
     7 SEL2       14 GROUP        1 Z    SEL  0     ROOT SEL Z 16
     8 ZIL7       28 GROUP        1 Z    ZIL  0     **** ZIL Z 19
     9 GLL5        2 GROUP        1 Z    GLL  0     **** GLL Z 20
@<TRIPOS>SET

