#    Name: 4fyr_BES_1_ligand
#    Modification time : Mon Mar 24 21:05:11 2014

@<TRIPOS>MOLECULE
4fyr_BES_1_ligand
   46    46     1     0     0
SMALL
NO_CHARGES


@<TRIPOS>ATOM
      1 N2        107.7000   15.6450   22.4150 N.4       1 BES1014     0.0000 
      2 C1        107.0060   16.7730   22.9570 C.3       1 BES1014     0.0000 
      3 C6        105.8310   16.2870   23.8090 C.3       1 BES1014     0.0000 
      4 C7        106.2430   15.4450   25.0350 C.ar      1 BES1014     0.0000 
      5 C8        106.9930   16.0250   26.0750 C.ar      1 BES1014     0.0000 
      6 C12       105.8790   14.1010   25.0950 C.ar      1 BES1014     0.0000 
      7 C9        107.3810   15.2630   27.1780 C.ar      1 BES1014     0.0000 
      8 C11       106.2500   13.3320   26.2010 C.ar      1 BES1014     0.0000 
      9 C10       107.0120   13.9170   27.2180 C.ar      1 BES1014     0.0000 
     10 C2        106.5360   17.7230   21.8740 C.3       1 BES1014     0.0000 
     11 O2        105.7260   17.0330   20.9270 O.3       1 BES1014     0.0000 
     12 C3        107.6910   18.3560   21.0920 C.2       1 BES1014     0.0000 
     13 O3        108.7500   18.6500   21.6170 O.2       1 BES1014     0.0000 
     14 N1        107.4990   18.6120   19.6890 N.am      1 BES1014     0.0000 
     15 C4        108.5460   19.2130   18.8530 C.3       1 BES1014     0.0000 
     16 C13       108.1080   19.2150   17.4100 C.3       1 BES1014     0.0000 
     17 C14       107.1840   20.3340   16.9240 C.3       1 BES1014     0.0000 
     18 C15       107.1100   20.3770   15.3860 C.3       1 BES1014     0.0000 
     19 C16       105.7980   20.2640   17.5220 C.3       1 BES1014     0.0000 
     20 C5        108.8460   20.6360   19.2950 C.2       1 BES1014     0.0000 
     21 O1        108.0820   21.2840   20.0730 O.co2     1 BES1014     0.0000 
     22 O4        109.8500   21.2050   18.8440 O.co2     1 BES1014     0.0000 
     23 H         107.6709   17.3341   23.6289 H         1 BES1014     0.0000 
     24 H         105.1556   15.6848   23.1807 H         1 BES1014     0.0000 
     25 H         105.2556   17.1586   24.1593 H         1 BES1014     0.0000 
     26 H         107.2544   17.0175   26.0170 H         1 BES1014     0.0000 
     27 H         105.3418   13.6773   24.3324 H         1 BES1014     0.0000 
     28 H         107.9185   15.6771   27.9332 H         1 BES1014     0.0000 
     29 H         105.9682   12.3528   26.2671 H         1 BES1014     0.0000 
     30 H         107.3105   13.3337   28.0235 H         1 BES1014     0.0000 
     31 H         105.9716   18.5285   22.3323 H         1 BES1014     0.0000 
     32 H         106.6075   18.3716   19.2477 H         1 BES1014     0.0000 
     33 H         109.4588   18.6340   18.9306 H         1 BES1014     0.0000 
     34 H         107.6103   18.2314   17.1812 H         1 BES1014     0.0000 
     35 H         109.0229   19.2122   16.7538 H         1 BES1014     0.0000 
     36 H         107.6379   21.2969   17.2410 H         1 BES1014     0.0000 
     37 H         108.4793   15.9231   21.8535 H         1 BES1014     0.0000 
     38 H         108.0551   15.0470   23.1336 H         1 BES1014     0.0000 
     39 H         107.1060   15.0866   21.8360 H         1 BES1014     0.0000 
     40 H         108.0076   20.5372   14.9753 H         1 BES1014     0.0000 
     41 H         106.7630   19.5192   15.0067 H         1 BES1014     0.0000 
     42 H         106.5058   21.1057   15.0635 H         1 BES1014     0.0000 
     43 H         105.8200   20.3322   18.5194 H         1 BES1014     0.0000 
     44 H         105.2127   21.0039   17.1904 H         1 BES1014     0.0000 
     45 H         105.3394   19.4043   17.2971 H         1 BES1014     0.0000 
     46 H         104.7874   17.2982   21.1475 H         1 BES1014     0.0000 
@<TRIPOS>BOND
     1    2    1 1    
     2   37    1 1    
     3   38    1 1    
     4   39    1 1    
     5    3    2 1    
     6   10    2 1    
     7   23    2 1    
     8    4    3 1    
     9   24    3 1    
    10   25    3 1    
    11    5    4 ar   
    12    6    4 ar   
    13    7    5 ar   
    14   26    5 1    
    15    8    6 ar   
    16   27    6 1    
    17    9    7 ar   
    18   28    7 1    
    19    9    8 ar   
    20   29    8 1    
    21   30    9 1    
    22   11   10 1    
    23   12   10 1    
    24   31   10 1    
    25   46   11 1    
    26   13   12 2    
    27   14   12 am   
    28   15   14 1    
    29   32   14 1    
    30   16   15 1    
    31   20   15 1    
    32   33   15 1    
    33   17   16 1    
    34   34   16 1    
    35   35   16 1    
    36   18   17 1    
    37   19   17 1    
    38   36   17 1    
    39   40   18 1    
    40   41   18 1    
    41   42   18 1    
    42   43   19 1    
    43   44   19 1    
    44   45   19 1    
    45   21   20 ar   
    46   22   20 ar   
@<TRIPOS>SUBSTRUCTURE
     1 BES1014     1 GROUP   
@<TRIPOS>SET

