#    Name: 2q3j_H02_1_INTS_M
#    Modification time : Mon Mar 24 20:41:38 2014

@<TRIPOS>MOLECULE
2q3j_H02_1_INTS_M
   72     0     3     0     0
SMALL
NO_CHARGES


@<TRIPOS>ATOM
      1 CA          7.7635    5.3510    8.1715 C.3       1 GLC5        0.0000 
      2 CA          6.5670    5.2950    9.8110 C.3       3 GLL5        0.0000 
      3 CA          8.9600    5.4070    6.5320 C.3       2 GLP5        0.0000 
      4 CA          3.7965    9.9590    7.2190 C.3       1 GLC5        0.0000 
      5 CA          4.6070    8.2220    7.7310 C.3       3 GLL5        0.0000 
      6 CA          2.9860   11.6960    6.7070 C.3       2 GLP5        0.0000 
      7 CA          8.4605   12.3790   12.7300 C.3       1 GLC5        0.0000 
      8 CA          8.5860   10.6360   12.2330 C.3       3 GLL5        0.0000 
      9 CA          8.3350   14.1220   13.2270 C.3       2 GLP5        0.0000 
     10 CA         15.2235   10.6820   12.6895 C.3       1 GLC5        0.0000 
     11 CA         13.9410    9.6800   12.3070 C.3       3 GLL5        0.0000 
     12 CA         16.5060   11.6840   13.0720 C.3       2 GLP5        0.0000 
     13 CA         12.1495   10.7805   10.2755 C.3       1 GLC5        0.0000 
     14 CA         10.8260   10.3490   11.9770 C.3       3 GLL5        0.0000 
     15 CA         13.4730   11.2120    8.5740 C.3       2 GLP5        0.0000 
     16 CA         11.3335   15.8255   13.5945 C.3       1 GLC5        0.0000 
     17 CA         12.5950   14.5180   12.4680 C.3       3 GLL5        0.0000 
     18 CA         10.0720   17.1330   14.7210 C.3       2 GLP5        0.0000 
     19 CA         13.3435   13.4125    8.7845 C.3       1 GLC5        0.0000 
     20 CA         13.2140   15.6130    8.9950 C.3       3 GLL5        0.0000 
     21 CA         14.9650   14.9985    8.2590 C.3       1 GLC5        0.0000 
     22 CA         16.7160   14.3840    7.5230 C.3       2 GLP5        0.0000 
     23 CA          5.0855   12.6345    3.9975 C.3       1 GLC5        0.0000 
     24 CA          6.3640   12.7410    5.0930 C.3       3 GLL5        0.0000 
     25 CA          3.8070   12.5280    2.9020 C.3       2 GLP5        0.0000 
     26 CA          6.2830   16.6425    6.8540 C.3       1 GLC5        0.0000 
     27 CA          8.0450   16.2070    6.3140 C.3       3 GLL5        0.0000 
     28 CA          4.5210   17.0780    7.3940 C.3       2 GLP5        0.0000 
     29 CA          7.3745   15.9595    8.2905 C.3       1 GLC5        0.0000 
     30 CA          6.7040   15.7120   10.2670 C.3       2 GLP5        0.0000 
     31 CA          4.7005    5.0032   10.9425 C.3       1 GLC5        0.0000 
     32 CA          5.7210    6.5060   10.2110 C.3       3 GLL5        0.0000 
     33 CA          3.2570    4.1060   11.8740 C.3       2 GLP5        0.0000 
     34 CA          6.2170    5.3258   11.9555 C.3       1 GLC5        0.0000 
     35 CA          6.2900    4.7510   13.9000 C.3       2 GLP5        0.0000 
     36 CA          4.1487    7.3105   10.1975 C.3       1 GLC5        0.0000 
     37 CA          2.2760    7.4720   10.4700 C.3       2 GLP5        0.0000 
     38 CA          3.7455    7.9310    9.3173 C.3       1 GLC5        0.0000 
     39 CA          5.8230    8.5580    8.5980 C.3       3 GLL5        0.0000 
     40 CA          8.0035    9.5117    6.9757 C.3       1 GLC5        0.0000 
     41 CA          6.5840   10.6360    7.4370 C.3       3 GLL5        0.0000 
     42 CA          9.0140    7.8330    6.6070 C.3       2 GLP5        0.0000 
     43 CA          4.9895   11.4432    7.0258 C.3       1 GLC5        0.0000 
     44 CA          9.4310    8.1305    9.4380 C.3       1 GLC5        0.0000 
     45 CA          8.2010    8.2370   11.2240 C.3       3 GLL5        0.0000 
     46 CA         10.0150    7.7780    7.5770 C.3       2 GLP5        0.0000 
     47 CA         10.6130    6.9835   10.0490 C.3       1 GLC5        0.0000 
     48 CA         10.6110    8.1560   11.9630 C.3       3 GLL5        0.0000 
     49 CA         10.4910    6.5570    8.0190 C.3       2 GLP5        0.0000 
     50 CA         12.4153    8.4100   10.5712 C.3       1 GLC5        0.0000 
     51 CA         13.7950    8.1530    8.9800 C.3       2 GLP5        0.0000 
     52 CA         13.5815    8.7587   10.8413 C.3       1 GLC5        0.0000 
     53 CA         12.7950    9.0490   13.0980 C.3       3 GLL5        0.0000 
     54 CA          9.6983   13.1485   12.5663 C.3       1 GLC5        0.0000 
     55 CA         11.0690   11.6610   12.3730 C.3       3 GLL5        0.0000 
     56 CA         12.4183   12.2607    9.9958 C.3       1 GLC5        0.0000 
     57 CA         11.0540   12.6890   11.4380 C.3       3 GLL5        0.0000 
     58 CA         10.2345   14.1730   12.5798 C.3       1 GLC5        0.0000 
     59 CA         11.6730   13.9300   11.3970 C.3       3 GLL5        0.0000 
     60 CA          9.6262   14.1075   11.5475 C.3       1 GLC5        0.0000 
     61 CA         10.5040   13.6440    9.5360 C.3       3 GLL5        0.0000 
     62 CA         10.6855   16.7550   10.2055 C.3       1 GLC5        0.0000 
     63 CA         11.3310   14.5420   10.2000 C.3       3 GLL5        0.0000 
     64 CA          9.7710   18.3030   10.4730 C.3       2 GLP5        0.0000 
     65 CA         12.0104   12.5218    8.8008 C.3       1 GLC5        0.0000 
     66 CA          6.8747   13.3185    8.3850 C.3       1 GLC5        0.0000 
     67 CA          7.4020   11.7450    7.2520 C.3       3 GLL5        0.0000 
     68 CA          6.3790   14.4020   10.0080 C.3       2 GLP5        0.0000 
     69 CA          4.9188   12.2145    6.1947 C.3       1 GLC5        0.0000 
     70 CA          7.3390   12.7250    6.2720 C.3       3 GLL5        0.0000 
     71 CA          7.6426   13.9817    8.6376 C.3       1 GLC5        0.0000 
     72 CA          8.2760   13.7000    6.5710 C.3       3 GLL5        0.0000 
@<TRIPOS>BOND
@<TRIPOS>SUBSTRUCTURE
     1 GLC5        1 GROUP        1 X    GLC  0     ROOT GLC X 6
     2 GLP5        3 GROUP        1 Y    GLP  0     ROOT GLP Y 13
     3 GLL5        2 GROUP        1 Z    GLL  0     ROOT GLL Z 20
@<TRIPOS>SET

