#    Name: 2q3j_H02_1_ligand
#    Modification time : Mon Mar 24 20:41:38 2014

@<TRIPOS>MOLECULE
2q3j_H02_1_ligand
   83    87     1     0     0
SMALL
NO_CHARGES


@<TRIPOS>ATOM
      1 CBA         6.5670    5.2950    9.8110 C.3       1 H02700      0.0000 
      2 CAA         5.7210    6.5060   10.2110 C.3       1 H02700      0.0000 
      3 C3A         6.3220    7.7920    9.6390 C.2       1 H02700      0.0000 
      4 C2A         5.8230    8.5580    8.5980 C.2       1 H02700      0.0000 
      5 CMA         4.6070    8.2220    7.7310 C.3       1 H02700      0.0000 
      6 C1A         6.6600    9.6510    8.4190 C.2       1 H02700      0.0000 
      7 CHA         6.5840   10.6360    7.4370 C.2       1 H02700      0.0000 
      8 NA          7.6420    9.5420    9.3150 N.pl3     1 H02700      0.0000 
      9 C4A         7.4750    8.4440   10.0570 C.2       1 H02700      0.0000 
     10 CHB         8.2010    8.2370   11.2240 C.2       1 H02700      0.0000 
     11 C1B         9.4930    8.7290   11.3740 C.2       1 H02700      0.0000 
     12 NB          9.6550   10.0520   11.4100 N.pl3     1 H02700      0.0000 
     13 CCB         8.5860   10.6360   12.2330 C.3       1 H02700      0.0000 
     14 C2B        10.6110    8.1560   11.9630 C.2       1 H02700      0.0000 
     15 CMB        10.8590    6.6640   12.1950 C.3       1 H02700      0.0000 
     16 C3B        11.4600    9.1780   12.3620 C.2       1 H02700      0.0000 
     17 CAB        12.7950    9.0490   13.0980 C.3       1 H02700      0.0000 
     18 CBB        13.9410    9.6800   12.3070 C.3       1 H02700      0.0000 
     19 C4B        10.8260   10.3490   11.9770 C.2       1 H02700      0.0000 
     20 CHC        11.0690   11.6610   12.3730 C.2       1 H02700      0.0000 
     21 C1C        11.0540   12.6890   11.4380 C.2       1 H02700      0.0000 
     22 NC         10.3600   12.5660   10.3080 N.pl3     1 H02700      0.0000 
     23 C2C        11.6730   13.9300   11.3970 C.2       1 H02700      0.0000 
     24 CMC        12.5950   14.5180   12.4680 C.3       1 H02700      0.0000 
     25 C3C        11.3310   14.5420   10.2000 C.2       1 H02700      0.0000 
     26 CAC        11.8690   15.8720    9.6760 C.3       1 H02700      0.0000 
     27 CBC        13.2140   15.6130    8.9950 C.3       1 H02700      0.0000 
     28 CGC        13.9270   16.9150    8.6260 C.2       1 H02700      0.0000 
     29 O1C        14.6170   17.4510    9.5200 O.co2     1 H02700      0.0000 
     30 O2C        13.7880   17.3270    7.4540 O.co2     1 H02700      0.0000 
     31 C4C        10.5040   13.6440    9.5360 C.2       1 H02700      0.0000 
     32 CHD        10.1780   13.5700    8.1870 C.2       1 H02700      0.0000 
     33 C1D         8.8950   13.2760    7.7400 C.2       1 H02700      0.0000 
     34 ND          8.3440   12.1210    8.1160 N.pl3     1 H02700      0.0000 
     35 C4D         7.4020   11.7450    7.2520 C.2       1 H02700      0.0000 
     36 C3D         7.3390   12.7250    6.2720 C.2       1 H02700      0.0000 
     37 CMD         6.3640   12.7410    5.0930 C.3       1 H02700      0.0000 
     38 C2D         8.2760   13.7000    6.5710 C.2       1 H02700      0.0000 
     39 CAD         8.6310   14.9240    5.7250 C.3       1 H02700      0.0000 
     40 CBD         8.0450   16.2070    6.3140 C.3       1 H02700      0.0000 
     41 CGD         8.4530   17.4260    5.4830 C.2       1 H02700      0.0000 
     42 O1D         8.8380   18.4350    6.1130 O.co2     1 H02700      0.0000 
     43 O2D         8.3750   17.3200    4.2400 O.co2     1 H02700      0.0000 
     44 H           5.6865    6.5773   11.2949 H         1 H02700      0.0000 
     45 H           4.7116    6.3806    9.8283 H         1 H02700      0.0000 
     46 H           5.7734   10.5210    6.7167 H         1 H02700      0.0000 
     47 H           8.3846   10.1794    9.4159 H         1 H02700      0.0000 
     48 H           7.7684    7.7020   12.0029 H         1 H02700      0.0000 
     49 H          13.0124    7.9913   13.2627 H         1 H02700      0.0000 
     50 H          12.7168    9.5405   14.0703 H         1 H02700      0.0000 
     51 H          11.2606   11.8699   13.3633 H         1 H02700      0.0000 
     52 H           9.8096   11.7788   10.0713 H         1 H02700      0.0000 
     53 H          12.0092   16.5538   10.4996 H         1 H02700      0.0000 
     54 H          11.1769   16.2833    8.9587 H         1 H02700      0.0000 
     55 H          13.0493   15.0253    8.0883 H         1 H02700      0.0000 
     56 H          13.8510   15.0341    9.6685 H         1 H02700      0.0000 
     57 H          10.9295   13.7428    7.4782 H         1 H02700      0.0000 
     58 H           8.5995   11.6150    8.9234 H         1 H02700      0.0000 
     59 H           8.2444   14.7843    4.7132 H         1 H02700      0.0000 
     60 H           9.7177   15.0181    5.6696 H         1 H02700      0.0000 
     61 H           8.4056   16.3319    7.3337 H         1 H02700      0.0000 
     62 H           6.9590   16.1319    6.3300 H         1 H02700      0.0000 
     63 H           7.5045    5.3682   10.1513 H         1 H02700      0.0000 
     64 H           6.1896    4.4425   10.1727 H         1 H02700      0.0000 
     65 H           6.6228    5.1927    8.8178 H         1 H02700      0.0000 
     66 H           4.4351    8.9272    7.0431 H         1 H02700      0.0000 
     67 H           4.7271    7.3583    7.2416 H         1 H02700      0.0000 
     68 H           3.7738    8.1360    8.2772 H         1 H02700      0.0000 
     69 H           8.6046   10.2854   13.1693 H         1 H02700      0.0000 
     70 H           8.6637   11.6313   12.2911 H         1 H02700      0.0000 
     71 H           7.6795   10.4339   11.8623 H         1 H02700      0.0000 
     72 H          11.7405    6.4984   12.6372 H         1 H02700      0.0000 
     73 H          10.1569    6.2573   12.7795 H         1 H02700      0.0000 
     74 H          10.8602    6.1499   11.3372 H         1 H02700      0.0000 
     75 H          14.8147    9.5930   12.7856 H         1 H02700      0.0000 
     76 H          14.0538    9.2513   11.4106 H         1 H02700      0.0000 
     77 H          13.7897   10.6557   12.1483 H         1 H02700      0.0000 
     78 H          13.4038   13.9487   12.6151 H         1 H02700      0.0000 
     79 H          12.9201   15.4301   12.2182 H         1 H02700      0.0000 
     80 H          12.1322   14.6033   13.3504 H         1 H02700      0.0000 
     81 H           6.4952   13.5453    4.5134 H         1 H02700      0.0000 
     82 H           6.4749   11.9373    4.5084 H         1 H02700      0.0000 
     83 H           5.4119   12.7521    5.3986 H         1 H02700      0.0000 
@<TRIPOS>BOND
     1    2    1 1    
     2   63    1 1    
     3   64    1 1    
     4   65    1 1    
     5    3    2 1    
     6   44    2 1    
     7   45    2 1    
     8    4    3 1    
     9    9    3 2    
    10    5    4 1    
    11    6    4 2    
    12   66    5 1    
    13   67    5 1    
    14   68    5 1    
    15    7    6 1    
    16    8    6 1    
    17   35    7 2    
    18   46    7 1    
    19    9    8 1    
    20   47    8 1    
    21   10    9 1    
    22   11   10 2    
    23   48   10 1    
    24   12   11 1    
    25   14   11 1    
    26   13   12 1    
    27   19   12 1    
    28   69   13 1    
    29   70   13 1    
    30   71   13 1    
    31   15   14 1    
    32   16   14 2    
    33   72   15 1    
    34   73   15 1    
    35   74   15 1    
    36   17   16 1    
    37   19   16 1    
    38   18   17 1    
    39   49   17 1    
    40   50   17 1    
    41   75   18 1    
    42   76   18 1    
    43   77   18 1    
    44   20   19 2    
    45   21   20 1    
    46   51   20 1    
    47   22   21 1    
    48   23   21 2    
    49   31   22 1    
    50   52   22 1    
    51   24   23 1    
    52   25   23 1    
    53   78   24 1    
    54   79   24 1    
    55   80   24 1    
    56   26   25 1    
    57   31   25 2    
    58   27   26 1    
    59   53   26 1    
    60   54   26 1    
    61   28   27 1    
    62   55   27 1    
    63   56   27 1    
    64   29   28 ar   
    65   30   28 ar   
    66   32   31 1    
    67   33   32 2    
    68   57   32 1    
    69   34   33 1    
    70   38   33 1    
    71   35   34 1    
    72   58   34 1    
    73   36   35 1    
    74   37   36 1    
    75   38   36 2    
    76   81   37 1    
    77   82   37 1    
    78   83   37 1    
    79   39   38 1    
    80   40   39 1    
    81   59   39 1    
    82   60   39 1    
    83   41   40 1    
    84   61   40 1    
    85   62   40 1    
    86   42   41 ar   
    87   43   41 ar   
@<TRIPOS>SUBSTRUCTURE
     1 H02700      1 GROUP   
@<TRIPOS>SET

