#    Name: 1rg9_SAM_1_INTS_M
#    Modification time : Tue Mar 25 00:40:37 2014

@<TRIPOS>MOLECULE
1rg9_SAM_1_INTS_M
   71     0    15     0     0
SMALL
NO_CHARGES


@<TRIPOS>ATOM
      1 OD1        -5.6280   12.3715  -12.4530 O.co2     3 ASC3        0.0000 
      2 OD1        -5.5600   11.0580  -13.0550 O.co2    13 ASL3        0.0000 
      3 OD1        -5.6960   13.6850  -11.8510 O.co2     8 ASP3        0.0000 
      4 OD1        -6.8990   11.3120  -12.3645 O.co2     3 ASC3        0.0000 
      5 OD1        -8.2380   11.5660  -11.6740 O.co2     8 ASP3        0.0000 
      6 O          -5.6280   12.3715  -12.4530 O.2       1 ALC1        0.0000 
      7 O          -5.5600   11.0580  -13.0550 O.2      11 ALL1        0.0000 
      8 O          -5.6960   13.6850  -11.8510 O.2       6 ALP1        0.0000 
      9 O          -6.8990   11.3120  -12.3645 O.2       1 ALC1        0.0000 
     10 O          -8.2380   11.5660  -11.6740 O.2       6 ALP1        0.0000 
     11 CA         -5.7495    9.6710  -13.1750 C.3       5 GLC5        0.0000 
     12 CA         -5.0420   11.3070  -14.4210 C.3      15 GLL5        0.0000 
     13 CA         -6.4570    8.0350  -11.9290 C.3      10 GLP5        0.0000 
     14 CA         -7.1020   10.7975  -13.9415 C.3       5 GLC5        0.0000 
     15 CA         -9.1620   10.2880  -13.4620 C.3      10 GLP5        0.0000 
     16 NZ         -4.1810    8.2675  -15.8220 N.4       4 LYC4        0.0000 
     17 NZ         -4.6960    9.6550  -16.0910 N.4      14 LYL4        0.0000 
     18 NZ         -3.6660    6.8800  -15.5530 N.4       9 LYP4        0.0000 
     19 N          -5.1265    8.8985  -17.3265 N.am      2 SEC2        0.0000 
     20 N          -4.6960    9.6550  -16.0910 N.am     12 SEL2        0.0000 
     21 N          -5.5570    8.1420  -18.5620 N.am      7 SEP2        0.0000 
     22 N          -4.1810    8.2675  -15.8220 N.am      2 SEC2        0.0000 
     23 N          -3.6660    6.8800  -15.5530 N.am      7 SEP2        0.0000 
     24 CA         -3.4925   13.8405  -16.6990 C.3       5 GLC5        0.0000 
     25 CA         -1.8960   14.0250  -15.8620 C.3      15 GLL5        0.0000 
     26 CA         -5.0890   13.6560  -17.5360 C.3      10 GLP5        0.0000 
     27 CA         -0.1930   13.3705  -15.4760 C.3       5 GLC5        0.0000 
     28 CA          1.5100   12.7160  -15.0900 C.3      10 GLP5        0.0000 
     29 CA         -1.1705   14.3795  -17.4680 C.3       5 GLC5        0.0000 
     30 CA         -0.4450   14.7340  -19.0740 C.3      10 GLP5        0.0000 
     31 O          -4.1490   16.6635  -11.6770 O.2       1 ALC1        0.0000 
     32 O          -3.8530   17.9690  -12.2130 O.2      11 ALL1        0.0000 
     33 O          -4.4450   15.3580  -11.1410 O.2       6 ALP1        0.0000 
     34 O          -3.3430   21.0520  -13.5260 O.2       1 ALC1        0.0000 
     35 O          -2.5460   19.9510  -13.7190 O.2      11 ALL1        0.0000 
     36 O          -4.1400   22.1530  -13.3330 O.2       6 ALP1        0.0000 
     37 O          -4.1640   20.5070  -14.0355 O.2       1 ALC1        0.0000 
     38 O          -5.7820   21.0630  -14.3520 O.2       6 ALP1        0.0000 
     39 CA         -2.2750   16.4375  -21.6550 C.3       5 GLC5        0.0000 
     40 CA         -3.2640   17.6510  -20.2760 C.3      15 GLL5        0.0000 
     41 CA         -1.2860   15.2240  -23.0340 C.3      10 GLP5        0.0000 
     42 CA         -3.6655   19.3085  -21.0970 C.3       5 GLC5        0.0000 
     43 CA         -4.0670   20.9660  -21.9180 C.3      10 GLP5        0.0000 
     44 O          -4.6065   17.7380  -22.6215 O.2       1 ALC1        0.0000 
     45 O          -4.1830   17.3290  -21.2070 O.2      11 ALL1        0.0000 
     46 O          -5.0300   18.1470  -24.0360 O.2       6 ALP1        0.0000 
     47 CA          0.0560   19.6985  -19.3020 C.3       5 GLC5        0.0000 
     48 CA         -1.0780   18.3300  -19.7380 C.3      15 GLL5        0.0000 
     49 CA          1.1900   21.0670  -18.8660 C.3      10 GLP5        0.0000 
     50 CA         -0.7615   16.5320  -19.4060 C.3       5 GLC5        0.0000 
     51 CA         -4.6840   12.4920  -15.9705 C.3       5 GLC5        0.0000 
     52 CA         -3.5160   11.3490  -14.3890 C.3      15 GLL5        0.0000 
     53 CA         -4.0875   13.5095  -15.8353 C.3       5 GLC5        0.0000 
     54 CA         -3.1350   14.1590  -14.5750 C.3      15 GLL5        0.0000 
     55 CA         -4.6203   15.2823  -13.1523 C.3       5 GLC5        0.0000 
     56 CA         -6.4200   15.8340  -12.3350 C.3      10 GLP5        0.0000 
     57 CA         -4.6857   16.5228  -12.9833 C.3       5 GLC5        0.0000 
     58 CA         -2.3180   16.7830  -13.6570 C.3      15 GLL5        0.0000 
     59 CA         -2.4494   19.0384  -12.3299 C.3       5 GLC5        0.0000 
     60 CA         -3.5850   17.6400  -13.6060 C.3      15 GLL5        0.0000 
     61 CA         -1.8410   20.0440  -10.6470 C.3      10 GLP5        0.0000 
     62 CA         -3.4825   19.8117  -16.2837 C.3       5 GLC5        0.0000 
     63 CA         -2.3220   18.2030  -15.5330 C.3      15 GLL5        0.0000 
     64 CA         -4.2220   21.0950  -17.6040 C.3      10 GLP5        0.0000 
     65 CA         -4.2070   15.8097  -19.2990 C.3       5 GLC5        0.0000 
     66 CA         -3.5640   17.6380  -18.8860 C.3      15 GLL5        0.0000 
     67 CA         -5.0000   13.9750  -19.0170 C.3      10 GLP5        0.0000 
     68 CA         -1.7105   16.2764  -18.9383 C.3       5 GLC5        0.0000 
     69 CA         -1.1281   18.4300  -13.6978 C.3       5 GLC5        0.0000 
     70 CA         -3.1640   18.8540  -14.3940 C.3      15 GLL5        0.0000 
     71 CA          0.5910   18.9900  -13.0980 C.3      10 GLP5        0.0000 
@<TRIPOS>BOND
@<TRIPOS>SUBSTRUCTURE
     1 ALC1        6 GROUP        1 X    ALC  0     ROOT ALC X 1
     2 SEC2       19 GROUP        1 X    SEC  0     **** SEC X 2
     3 ASC3        1 GROUP        1 X    ASC  0     **** ASC X 3
     4 LYC4       16 GROUP        1 X    LYC  0     **** LYC X 4
     5 GLC5       11 GROUP        1 X    GLC  0     **** GLC X 6
     6 ALP1        8 GROUP        1 Y    ALP  0     ROOT ALP Y 8
     7 SEP2       21 GROUP        1 Y    SEP  0     **** SEP Y 9
     8 ASP3        3 GROUP        1 Y    ASP  0     **** ASP Y 10
     9 LYP4       18 GROUP        1 Y    LYP  0     **** LYP Y 11
    10 GLP5       13 GROUP        1 Y    GLP  0     **** GLP Y 13
    11 ALL1        7 GROUP        1 Z    ALL  0     ROOT ALL Z 15
    12 SEL2       20 GROUP        1 Z    SEL  0     **** SEL Z 16
    13 ASL3        2 GROUP        1 Z    ASL  0     **** ASL Z 17
    14 LYL4       17 GROUP        1 Z    LYL  0     **** LYL Z 18
    15 GLL5       12 GROUP        1 Z    GLL  0     **** GLL Z 20
@<TRIPOS>SET

