#    Name: 1rg9_SAM_1_ligand
#    Modification time : Tue Mar 25 00:40:37 2014

@<TRIPOS>MOLECULE
1rg9_SAM_1_ligand
   50    52     1     0     0
SMALL
NO_CHARGES


@<TRIPOS>ATOM
      1 N          -5.5600   11.0580  -13.0550 N.4       1 SAM385      0.0000 
      2 CA         -5.0420   11.3070  -14.4210 C.3       1 SAM385      0.0000 
      3 C          -5.5220   10.2240  -15.3530 C.2       1 SAM385      0.0000 
      4 O          -4.6960    9.6550  -16.0910 O.co2     1 SAM385      0.0000 
      5 OXT        -6.7740    9.9780  -15.2890 O.co2     1 SAM385      0.0000 
      6 CB         -3.5160   11.3490  -14.3890 C.3       1 SAM385      0.0000 
      7 CG         -3.0370   12.5670  -13.6940 C.3       1 SAM385      0.0000 
      8 SD         -3.1350   14.1590  -14.5750 S.3       1 SAM385      0.0000 
      9 CE         -1.8960   14.0250  -15.8620 C.3       1 SAM385      0.0000 
     10 C5'        -2.5060   15.3020  -13.3640 C.3       1 SAM385      0.0000 
     11 C4'        -2.3180   16.7830  -13.6570 C.3       1 SAM385      0.0000 
     12 O4'        -1.8010   17.0000  -15.0090 O.3       1 SAM385      0.0000 
     13 C3'        -3.5850   17.6400  -13.6060 C.3       1 SAM385      0.0000 
     14 O3'        -3.8530   17.9690  -12.2130 O.3       1 SAM385      0.0000 
     15 C2'        -3.1640   18.8540  -14.3940 C.3       1 SAM385      0.0000 
     16 O2'        -2.5460   19.9510  -13.7190 O.3       1 SAM385      0.0000 
     17 C1'        -2.3220   18.2030  -15.5330 C.3       1 SAM385      0.0000 
     18 N9         -3.0750   17.9080  -16.7560 N.pl3     1 SAM385      0.0000 
     19 C8         -4.3790   17.5070  -16.9350 C.2       1 SAM385      0.0000 
     20 N7         -4.7160   17.3350  -18.1820 N.2       1 SAM385      0.0000 
     21 C5         -3.5640   17.6380  -18.8860 C.ar      1 SAM385      0.0000 
     22 C6         -3.2640   17.6510  -20.2760 C.ar      1 SAM385      0.0000 
     23 N6         -4.1830   17.3290  -21.2070 N.pl3     1 SAM385      0.0000 
     24 N1         -2.0000   18.0040  -20.6900 N.ar      1 SAM385      0.0000 
     25 C2         -1.0780   18.3300  -19.7380 C.ar      1 SAM385      0.0000 
     26 N3         -1.2510   18.3550  -18.3880 N.ar      1 SAM385      0.0000 
     27 C4         -2.5380   17.9930  -18.0240 C.ar      1 SAM385      0.0000 
     28 H          -5.4010   12.2609  -14.7753 H         1 SAM385      0.0000 
     29 H          -3.1457   11.3278  -15.4183 H         1 SAM385      0.0000 
     30 H          -3.1539   10.4521  -13.8778 H         1 SAM385      0.0000 
     31 H          -1.9658   12.5396  -13.4245 H         1 SAM385      0.0000 
     32 H          -3.5901   12.8034  -12.7672 H         1 SAM385      0.0000 
     33 H          -1.5453   14.8121  -13.0521 H         1 SAM385      0.0000 
     34 H          -3.1971   15.1319  -12.4959 H         1 SAM385      0.0000 
     35 H          -1.6084   17.2100  -12.9493 H         1 SAM385      0.0000 
     36 H          -4.3509   17.1384  -14.0861 H         1 SAM385      0.0000 
     37 H          -4.1000   19.1843  -14.9370 H         1 SAM385      0.0000 
     38 H          -1.5070   18.8919  -15.7499 H         1 SAM385      0.0000 
     39 H          -4.9896   17.3689  -16.1468 H         1 SAM385      0.0000 
     40 H          -4.8456   16.6268  -20.9467 H         1 SAM385      0.0000 
     41 H          -4.1207   17.8209  -22.0754 H         1 SAM385      0.0000 
     42 H          -0.0869   18.6022  -20.1029 H         1 SAM385      0.0000 
     43 H          -5.2597   11.7608  -12.4101 H         1 SAM385      0.0000 
     44 H          -6.5597   11.0479  -13.0330 H         1 SAM385      0.0000 
     45 H          -5.2500   10.1781  -12.6949 H         1 SAM385      0.0000 
     46 H          -0.9818   13.8797  -15.4837 H         1 SAM385      0.0000 
     47 H          -2.0828   13.2607  -16.4792 H         1 SAM385      0.0000 
     48 H          -1.8529   14.8513  -16.4235 H         1 SAM385      0.0000 
     49 H          -4.0736   17.0956  -11.7787 H         1 SAM385      0.0000 
     50 H          -3.2629   20.6439  -13.6412 H         1 SAM385      0.0000 
@<TRIPOS>BOND
     1    2    1 1    
     2   43    1 1    
     3   44    1 1    
     4   45    1 1    
     5    3    2 1    
     6    6    2 1    
     7   28    2 1    
     8    4    3 ar   
     9    5    3 ar   
    10    7    6 1    
    11   29    6 1    
    12   30    6 1    
    13    8    7 1    
    14   31    7 1    
    15   32    7 1    
    16    9    8 1    
    17   10    8 1    
    18   46    9 1    
    19   47    9 1    
    20   48    9 1    
    21   11   10 1    
    22   33   10 1    
    23   34   10 1    
    24   12   11 1    
    25   13   11 1    
    26   35   11 1    
    27   17   12 1    
    28   14   13 1    
    29   15   13 1    
    30   36   13 1    
    31   49   14 1    
    32   16   15 1    
    33   17   15 1    
    34   37   15 1    
    35   50   16 1    
    36   18   17 1    
    37   38   17 1    
    38   19   18 1    
    39   27   18 1    
    40   20   19 2    
    41   39   19 1    
    42   21   20 1    
    43   22   21 ar   
    44   27   21 ar   
    45   23   22 1    
    46   24   22 ar   
    47   40   23 1    
    48   41   23 1    
    49   25   24 ar   
    50   26   25 ar   
    51   42   25 1    
    52   27   26 ar   
@<TRIPOS>SUBSTRUCTURE
     1 SAM385      1 GROUP   
@<TRIPOS>SET

