#    Name: 2w0a_CII_1_INTS_M
#    Modification time : Tue Mar 25 03:26:23 2014

@<TRIPOS>MOLECULE
2w0a_CII_1_INTS_M
   50     0     6     0     0
SMALL
NO_CHARGES


@<TRIPOS>ATOM
      1 CA        -17.9565   -0.8600   72.8090 C.3       2 GLC5        0.0000 
      2 CA        -18.7660   -0.7440   70.7480 C.3       6 GLL5        0.0000 
      3 CA        -17.1470   -0.9760   74.8700 C.3       4 GLP5        0.0000 
      4 CA        -18.1370    1.4775   72.3475 C.3       2 GLC5        0.0000 
      5 CA        -18.8990   -0.2620   72.1760 C.3       6 GLL5        0.0000 
      6 CA        -17.3750    3.2170   72.5190 C.3       4 GLP5        0.0000 
      7 CA        -21.6995    0.4435   73.3105 C.3       2 GLC5        0.0000 
      8 CA        -20.2230   -0.7450   72.7790 C.3       6 GLL5        0.0000 
      9 CA        -23.1760    1.6320   73.8420 C.3       4 GLP5        0.0000 
     10 CA        -14.9955    1.5530   68.3270 C.3       2 GLC5        0.0000 
     11 CA        -15.3120   -0.1840   69.3520 C.3       6 GLL5        0.0000 
     12 CA        -14.6790    3.2900   67.3020 C.3       4 GLP5        0.0000 
     13 CA        -13.7100    1.3740   72.9355 C.3       2 GLC5        0.0000 
     14 CA        -13.7990    0.7340   71.1950 C.3       6 GLL5        0.0000 
     15 CA        -13.6210    2.0140   74.6760 C.3       4 GLP5        0.0000 
     16 CA        -14.9775    2.3390   71.3170 C.3       2 GLC5        0.0000 
     17 CA        -16.1560    3.9440   71.4390 C.3       4 GLP5        0.0000 
     18 CA        -12.4065    1.9700   70.0045 C.3       2 GLC5        0.0000 
     19 CA        -11.0140    3.2060   68.8140 C.3       4 GLP5        0.0000 
     20 CA        -12.7320   -3.2730   69.3680 C.3       2 GLC5        0.0000 
     21 CA        -13.5970   -1.6500   70.5440 C.3       6 GLL5        0.0000 
     22 CA        -11.8670   -4.8960   68.1920 C.3       4 GLP5        0.0000 
     23 N         -13.3835   -0.2765   66.4745 N.am      1 SEC2        0.0000 
     24 N         -14.8920   -0.4830   67.0350 N.am      5 SEL2        0.0000 
     25 N         -11.8750   -0.0700   65.9140 N.am      3 SEP2        0.0000 
     26 CA        -16.8900   -2.8660   64.4805 C.3       2 GLC5        0.0000 
     27 CA        -15.5950   -3.9980   65.0030 C.3       6 GLL5        0.0000 
     28 CA        -18.1850   -1.7340   63.9580 C.3       4 GLP5        0.0000 
     29 CA        -16.2185   -1.9080   64.8765 C.3       2 GLC5        0.0000 
     30 CA        -15.3970   -3.0850   65.9020 C.3       6 GLL5        0.0000 
     31 CA        -17.0400   -0.7310   63.8510 C.3       4 GLP5        0.0000 
     32 CA        -18.7745   -0.1328   73.8653 C.3       2 GLC5        0.0000 
     33 CA        -17.9880    0.2380   75.2530 C.3       4 GLP5        0.0000 
     34 CA        -21.4417   -1.8113   74.1685 C.3       2 GLC5        0.0000 
     35 CA        -22.3430   -2.3180   75.9640 C.3       4 GLP5        0.0000 
     36 CA        -20.2892   -4.0940   72.8010 C.3       2 GLC5        0.0000 
     37 CA        -20.8580   -1.8640   71.9670 C.3       6 GLL5        0.0000 
     38 CA        -20.2460   -5.8110   73.8360 C.3       4 GLP5        0.0000 
     39 CA        -18.5806   -2.2960   73.1352 C.3       2 GLC5        0.0000 
     40 CA        -19.8070   -2.8900   71.5650 C.3       6 GLL5        0.0000 
     41 CA        -17.6400   -2.2710   75.0350 C.3       4 GLP5        0.0000 
     42 CA        -14.3966   -1.3096   72.3190 C.3       2 GLC5        0.0000 
     43 CA        -15.0570   -1.9120   74.0550 C.3       4 GLP5        0.0000 
     44 CA        -17.4491   -3.0922   65.3928 C.3       2 GLC5        0.0000 
     45 CA        -16.0210   -3.1690   67.1440 C.3       6 GLL5        0.0000 
     46 CA        -14.9701   -4.9893   67.3828 C.3       2 GLC5        0.0000 
     47 CA        -13.2270   -5.5280   67.9380 C.3       4 GLP5        0.0000 
     48 CA        -13.7505   -3.3033   64.5832 C.3       2 GLC5        0.0000 
     49 CA        -12.0050   -3.0650   63.7140 C.3       4 GLP5        0.0000 
     50 CA        -14.3615   -4.5347   66.6953 C.3       2 GLC5        0.0000 
@<TRIPOS>BOND
@<TRIPOS>SUBSTRUCTURE
     1 SEC2       23 GROUP        1 X    SEC  0     ROOT SEC X 2
     2 GLC5        1 GROUP        1 X    GLC  0     **** GLC X 6
     3 SEP2       25 GROUP        1 Y    SEP  0     ROOT SEP Y 9
     4 GLP5        3 GROUP        1 Y    GLP  0     **** GLP Y 13
     5 SEL2       24 GROUP        1 Z    SEL  0     ROOT SEL Z 16
     6 GLL5        2 GROUP        1 Z    GLL  0     **** GLL Z 20
@<TRIPOS>SET

