#    Name: 2w0a_CII_1_ligand
#    Modification time : Tue Mar 25 03:26:23 2014

@<TRIPOS>MOLECULE
2w0a_CII_1_ligand
   48    49     1     0     0
SMALL
NO_CHARGES


@<TRIPOS>ATOM
      1 O1        -17.7550    0.6160   69.1490 O.2       1 CII1450     0.0000 
      2 C8        -17.5790   -0.2240   69.9960 C.2       1 CII1450     0.0000 
      3 C9        -18.7660   -0.7440   70.7480 C.3       1 CII1450     0.0000 
      4 C10       -18.8990   -0.2620   72.1760 C.3       1 CII1450     0.0000 
      5 C11       -20.2230   -0.7450   72.7790 C.3       1 CII1450     0.0000 
      6 C12       -20.8580   -1.8640   71.9670 C.3       1 CII1450     0.0000 
      7 C13       -19.8070   -2.8900   71.5650 C.3       1 CII1450     0.0000 
      8 C14       -18.7100   -2.2650   70.7050 C.3       1 CII1450     0.0000 
      9 N3        -16.3630   -0.7210   70.2100 N.am      1 CII1450     0.0000 
     10 C7        -15.3120   -0.1840   69.3520 C.3       1 CII1450     0.0000 
     11 C15       -13.9520   -0.2630   70.0490 C.3       1 CII1450     0.0000 
     12 C16       -13.7990    0.7340   71.1950 C.3       1 CII1450     0.0000 
     13 C17       -13.5970   -1.6500   70.5440 C.3       1 CII1450     0.0000 
     14 C6        -15.3240   -0.9780   68.0660 C.2       1 CII1450     0.0000 
     15 O2        -14.8920   -0.4830   67.0350 O.2       1 CII1450     0.0000 
     16 N2        -15.8580   -2.2080   68.1640 N.am      1 CII1450     0.0000 
     17 C5        -16.0210   -3.1690   67.1440 C.ar      1 CII1450     0.0000 
     18 C1        -16.8380   -4.2570   67.3940 C.ar      1 CII1450     0.0000 
     19 C2        -16.9970   -5.1880   66.3860 C.ar      1 CII1450     0.0000 
     20 N1        -16.3550   -5.0240   65.2080 N.pl3     1 CII1450     0.0000 
     21 C3        -15.5950   -3.9980   65.0030 C.ar      1 CII1450     0.0000 
     22 C4        -15.3970   -3.0850   65.9020 C.ar      1 CII1450     0.0000 
     23 H         -19.6768   -0.4557   70.1954 H         1 CII1450     0.0000 
     24 H         -18.8753    0.8250   72.2008 H         1 CII1450     0.0000 
     25 H         -18.0767   -0.6497   72.7729 H         1 CII1450     0.0000 
     26 H         -20.9169    0.1015   72.8345 H         1 CII1450     0.0000 
     27 H         -20.0396   -1.0973   73.8005 H         1 CII1450     0.0000 
     28 H         -21.3144   -1.4464   71.0718 H         1 CII1450     0.0000 
     29 H         -21.6271   -2.3510   72.5631 H         1 CII1450     0.0000 
     30 H         -20.2856   -3.6963   71.0038 H         1 CII1450     0.0000 
     31 H         -19.3566   -3.3170   72.4644 H         1 CII1450     0.0000 
     32 H         -17.7362   -2.6010   71.0677 H         1 CII1450     0.0000 
     33 H         -18.8291   -2.6019   69.6729 H         1 CII1450     0.0000 
     34 H         -16.1227   -1.4087   70.8883 H         1 CII1450     0.0000 
     35 H         -15.5218    0.8493   69.1178 H         1 CII1450     0.0000 
     36 H         -13.1752    0.0134   69.2916 H         1 CII1450     0.0000 
     37 H         -16.2167   -2.5249   69.1432 H         1 CII1450     0.0000 
     38 H         -17.3050   -4.3668   68.2893 H         1 CII1450     0.0000 
     39 H         -17.6111   -6.0071   66.5460 H         1 CII1450     0.0000 
     40 H         -16.4929   -5.7590   64.4604 H         1 CII1450     0.0000 
     41 H         -15.1066   -3.8966   64.0483 H         1 CII1450     0.0000 
     42 H         -14.7710   -2.2615   65.7345 H         1 CII1450     0.0000 
     43 H         -12.9042    0.6595   71.6351 H         1 CII1450     0.0000 
     44 H         -13.8933    1.6786   70.8806 H         1 CII1450     0.0000 
     45 H         -14.4879    0.5915   71.9057 H         1 CII1450     0.0000 
     46 H         -12.7049   -1.6661   70.9955 H         1 CII1450     0.0000 
     47 H         -14.2660   -1.9912   71.2044 H         1 CII1450     0.0000 
     48 H         -13.5590   -2.3128   69.7962 H         1 CII1450     0.0000 
@<TRIPOS>BOND
     1    2    1 2    
     2    3    2 1    
     3    9    2 am   
     4    4    3 1    
     5    8    3 1    
     6   23    3 1    
     7    5    4 1    
     8   24    4 1    
     9   25    4 1    
    10    6    5 1    
    11   26    5 1    
    12   27    5 1    
    13    7    6 1    
    14   28    6 1    
    15   29    6 1    
    16    8    7 1    
    17   30    7 1    
    18   31    7 1    
    19   32    8 1    
    20   33    8 1    
    21   10    9 1    
    22   34    9 1    
    23   11   10 1    
    24   14   10 1    
    25   35   10 1    
    26   12   11 1    
    27   13   11 1    
    28   36   11 1    
    29   43   12 1    
    30   44   12 1    
    31   45   12 1    
    32   46   13 1    
    33   47   13 1    
    34   48   13 1    
    35   15   14 2    
    36   16   14 am   
    37   17   16 1    
    38   37   16 1    
    39   18   17 ar   
    40   22   17 ar   
    41   19   18 ar   
    42   38   18 1    
    43   20   19 ar   
    44   39   19 1    
    45   21   20 ar   
    46   40   20 1    
    47   22   21 ar   
    48   41   21 1    
    49   42   22 1    
@<TRIPOS>SUBSTRUCTURE
     1 CII1450     1 GROUP   
@<TRIPOS>SET

