#    Name: 3oq1_3OQ_4_INTS_M
#    Modification time : Tue Mar 25 05:01:05 2014

@<TRIPOS>MOLECULE
3oq1_3OQ_4_INTS_M
   62     0     6     0     0
SMALL
NO_CHARGES


@<TRIPOS>ATOM
      1 CA          5.3165   12.2730    7.4470 C.3       2 GLC5        0.0000 
      2 CA          4.5660   13.6940    8.0760 C.3       6 GLL5        0.0000 
      3 CA          6.0670   10.8520    6.8180 C.3       4 GLP5        0.0000 
      4 CA          2.9860   12.7410    8.4620 C.3       2 GLC5        0.0000 
      5 CA          1.4060   11.7880    8.8480 C.3       4 GLP5        0.0000 
      6 CA          4.0560   19.3020    3.4935 C.3       2 GLC5        0.0000 
      7 CA          5.0350   18.2140    5.0110 C.3       6 GLL5        0.0000 
      8 CA          3.0770   20.3900    1.9760 C.3       4 GLP5        0.0000 
      9 CA          7.7910   26.3615    8.7150 C.3       2 GLC5        0.0000 
     10 CA          6.7360   24.9100    8.1900 C.3       6 GLL5        0.0000 
     11 CA          8.8460   27.8130    9.2400 C.3       4 GLP5        0.0000 
     12 CA          6.8090   25.5730    6.0885 C.3       2 GLC5        0.0000 
     13 CA          6.8820   26.2360    3.9870 C.3       4 GLP5        0.0000 
     14 CA          8.5905   24.7900    7.4645 C.3       2 GLC5        0.0000 
     15 CA         10.4450   24.6700    6.7390 C.3       4 GLP5        0.0000 
     16 CA          4.3840   26.8815    7.8060 C.3       2 GLC5        0.0000 
     17 CA          5.2910   25.5840    6.2270 C.3       6 GLL5        0.0000 
     18 CA          3.4770   28.1790    9.3850 C.3       4 GLP5        0.0000 
     19 CA          2.7315   24.2870    8.4045 C.3       2 GLC5        0.0000 
     20 CA          3.6970   24.2050    6.4950 C.3       6 GLL5        0.0000 
     21 CA          1.7660   24.3690   10.3140 C.3       4 GLP5        0.0000 
     22 CA          2.3985   22.5885    6.3675 C.3       2 GLC5        0.0000 
     23 CA          1.1000   20.9720    6.2400 C.3       4 GLP5        0.0000 
     24 CA          6.7255   22.7435    3.9740 C.3       2 GLC5        0.0000 
     25 CA          5.4800   23.5180    5.4510 C.3       6 GLL5        0.0000 
     26 CA          7.9710   21.9690    2.4970 C.3       4 GLP5        0.0000 
     27 N          10.4855   17.6005    6.9720 N.am      1 SEC2        0.0000 
     28 N           9.1080   18.1580    7.1750 N.am      5 SEL2        0.0000 
     29 N          11.8630   17.0430    6.7690 N.am      3 SEP2        0.0000 
     30 CA          8.7925   16.0320    8.3195 C.3       2 GLC5        0.0000 
     31 CA          6.9380   17.1020    7.9780 C.3       6 GLL5        0.0000 
     32 CA         10.6470   14.9620    8.6610 C.3       4 GLP5        0.0000 
     33 CA          5.8905   16.9995   10.6950 C.3       2 GLC5        0.0000 
     34 CA          6.8670   16.3170    9.1130 C.3       6 GLL5        0.0000 
     35 CA          4.9140   17.6820   12.2770 C.3       4 GLP5        0.0000 
     36 CA          2.6875   19.8315    6.1475 C.3       2 GLC5        0.0000 
     37 CA          4.2750   18.6910    6.0550 C.3       6 GLL5        0.0000 
     38 CA          4.7185   16.1067   10.0100 C.3       2 GLC5        0.0000 
     39 CA          5.3680   14.8660    7.9840 C.3       6 GLL5        0.0000 
     40 CA          3.7170   17.1840   11.4640 C.3       4 GLP5        0.0000 
     41 CA          5.7553   17.0185    3.8775 C.3       2 GLC5        0.0000 
     42 CA          6.3600   17.6580    5.5170 C.3       6 GLL5        0.0000 
     43 CA          5.8130   16.1010    2.4910 C.3       4 GLP5        0.0000 
     44 CA          2.9360   17.1542    5.3035 C.3       2 GLC5        0.0000 
     45 CA          1.2170   15.8560    5.0740 C.3       4 GLP5        0.0000 
     46 CA          9.6020   20.0637    8.3712 C.3       2 GLC5        0.0000 
     47 CA          7.2930   19.9380    8.0200 C.3       6 GLL5        0.0000 
     48 CA         11.6130   19.7220    9.1340 C.3       4 GLP5        0.0000 
     49 CA          4.4627   20.1322    9.5998 C.3       2 GLC5        0.0000 
     50 CA          5.6420   21.5460    8.7210 C.3       6 GLL5        0.0000 
     51 CA          3.0120   19.3610   10.4410 C.3       4 GLP5        0.0000 
     52 CA          2.7027   25.0545    6.0161 C.3       2 GLC5        0.0000 
     53 CA          0.9790   25.5360    5.6170 C.3       4 GLP5        0.0000 
     54 CA          6.1000   25.2328    4.9401 C.3       2 GLC5        0.0000 
     55 CA          5.0210   24.2980    6.4440 C.3       6 GLL5        0.0000 
     56 CA          3.8668   23.2384    4.5896 C.3       2 GLC5        0.0000 
     57 CA          2.8140   22.5920    3.2190 C.3       4 GLP5        0.0000 
     58 CA          7.8502   14.7230    9.6472 C.3       2 GLC5        0.0000 
     59 CA          9.2310   13.6910   10.1740 C.3       4 GLP5        0.0000 
     60 CA          7.3492   15.8295   10.8742 C.3       2 GLC5        0.0000 
     61 CA          6.0720   15.1930    9.1280 C.3       6 GLL5        0.0000 
     62 CA          8.2290   15.9040   12.6280 C.3       4 GLP5        0.0000 
@<TRIPOS>BOND
@<TRIPOS>SUBSTRUCTURE
     1 SEC2       27 GROUP        1 X    SEC  0     ROOT SEC X 2
     2 GLC5        1 GROUP        1 X    GLC  0     **** GLC X 6
     3 SEP2       29 GROUP        1 Y    SEP  0     ROOT SEP Y 9
     4 GLP5        3 GROUP        1 Y    GLP  0     **** GLP Y 13
     5 SEL2       28 GROUP        1 Z    SEL  0     ROOT SEL Z 16
     6 GLL5        2 GROUP        1 Z    GLL  0     **** GLL Z 20
@<TRIPOS>SET

