#    Name: 3oq1_3OQ_4_ligand
#    Modification time : Tue Mar 25 05:01:05 2014

@<TRIPOS>MOLECULE
3oq1_3OQ_4_ligand
   42    43     1     0     0
SMALL
NO_CHARGES


@<TRIPOS>ATOM
      1 C4          5.3680   14.8660    7.9840 C.ar      1 3OQ293      0.0000 
      2 C5          4.5660   13.6940    8.0760 C.1       1 3OQ293      0.0000 
      3 C7          5.4510   15.6550    6.8230 C.ar      1 3OQ293      0.0000 
      4 C8          6.2580   16.8040    6.8010 C.ar      1 3OQ293      0.0000 
      5 C10         5.0350   18.2140    5.0110 C.3       1 3OQ293      0.0000 
      6 C15         7.2930   19.9380    8.0200 C.ar      1 3OQ293      0.0000 
      7 C17         7.3440   22.1500    7.1200 C.ar      1 3OQ293      0.0000 
      8 C21         6.7360   24.9100    8.1900 C.3       1 3OQ293      0.0000 
      9 C22         5.0210   24.2980    6.4440 C.3       1 3OQ293      0.0000 
     10 C26         5.6420   21.5460    8.7210 C.ar      1 3OQ293      0.0000 
     11 F23         5.2910   25.5840    6.2270 F         1 3OQ293      0.0000 
     12 F24         3.6970   24.2050    6.4950 F         1 3OQ293      0.0000 
     13 F25         5.4800   23.5180    5.4510 F         1 3OQ293      0.0000 
     14 C19         5.6280   23.9210    7.8100 C.3       1 3OQ293      0.0000 
     15 O20         4.5910   23.9770    8.7960 O.3       1 3OQ293      0.0000 
     16 C18         6.2200   22.5000    7.8740 C.ar      1 3OQ293      0.0000 
     17 C27         6.1850   20.2610    8.7960 C.ar      1 3OQ293      0.0000 
     18 C16         7.8890   20.8730    7.1970 C.ar      1 3OQ293      0.0000 
     19 S12         7.9710   18.3950    8.1330 S.o2      1 3OQ293      0.0000 
     20 O13         9.1080   18.1580    7.1750 O.2       1 3OQ293      0.0000 
     21 O14         8.5210   18.3300    9.5280 O.2       1 3OQ293      0.0000 
     22 C1          6.9380   17.1020    7.9780 C.ar      1 3OQ293      0.0000 
     23 C2          6.8670   16.3170    9.1130 C.ar      1 3OQ293      0.0000 
     24 C3          6.0720   15.1930    9.1280 C.ar      1 3OQ293      0.0000 
     25 N6          3.9500   12.7480    8.2120 N.1       1 3OQ293      0.0000 
     26 C9          6.3600   17.6580    5.5170 C.3       1 3OQ293      0.0000 
     27 F11         4.2750   18.6910    6.0550 F         1 3OQ293      0.0000 
     28 H           4.9183   15.3888    5.9872 H         1 3OQ293      0.0000 
     29 H           4.5350   17.3977    4.4537 H         1 3OQ293      0.0000 
     30 H           5.2777   18.9954    4.2644 H         1 3OQ293      0.0000 
     31 H           7.7744   22.8538    6.4964 H         1 3OQ293      0.0000 
     32 H           4.8219   21.7918    9.2843 H         1 3OQ293      0.0000 
     33 H           5.7679   19.5635    9.4191 H         1 3OQ293      0.0000 
     34 H           8.7200   20.6340    6.6498 H         1 3OQ293      0.0000 
     35 H           7.4126   16.5760    9.9512 H         1 3OQ293      0.0000 
     36 H           6.0021   14.6113    9.9654 H         1 3OQ293      0.0000 
     37 H           6.8213   17.0410    4.7249 H         1 3OQ293      0.0000 
     38 H           7.0550   18.4949    5.7105 H         1 3OQ293      0.0000 
     39 H           7.1445   24.6879    9.0753 H         1 3OQ293      0.0000 
     40 H           7.4767   24.9140    7.5182 H         1 3OQ293      0.0000 
     41 H           6.3921   25.8469    8.2526 H         1 3OQ293      0.0000 
     42 H           4.9034   24.8849    9.0759 H         1 3OQ293      0.0000 
@<TRIPOS>BOND
     1    2    1 1    
     2    3    1 ar   
     3   24    1 ar   
     4   25    2 3    
     5    4    3 ar   
     6   28    3 1    
     7   22    4 ar   
     8   26    4 1    
     9   26    5 1    
    10   27    5 1    
    11   29    5 1    
    12   30    5 1    
    13   17    6 ar   
    14   18    6 ar   
    15   19    6 1    
    16   16    7 ar   
    17   18    7 ar   
    18   31    7 1    
    19   14    8 1    
    20   39    8 1    
    21   40    8 1    
    22   41    8 1    
    23   11    9 1    
    24   12    9 1    
    25   13    9 1    
    26   14    9 1    
    27   16   10 ar   
    28   17   10 ar   
    29   32   10 1    
    30   15   14 1    
    31   16   14 1    
    32   42   15 1    
    33   33   17 1    
    34   34   18 1    
    35   20   19 2    
    36   21   19 2    
    37   22   19 1    
    38   23   22 ar   
    39   24   23 ar   
    40   35   23 1    
    41   36   24 1    
    42   37   26 1    
    43   38   26 1    
@<TRIPOS>SUBSTRUCTURE
     1 3OQ293      1 GROUP   
@<TRIPOS>SET

