#    Name: 1jbp_ADP_1_INTS_M
#    Modification time : Tue Mar 25 08:42:29 2014

@<TRIPOS>MOLECULE
1jbp_ADP_1_INTS_M
   67     0    12     0     0
SMALL
NO_CHARGES


@<TRIPOS>ATOM
      1 NZ         12.3385   11.6365   -2.5470 N.4       3 LYC4        0.0000 
      2 NZ         13.7880   12.1020   -1.6540 N.4      11 LYL4        0.0000 
      3 NZ         10.8890   11.1710   -3.4400 N.4       7 LYP4        0.0000 
      4 N          15.7350   10.5685   -0.1345 N.am      2 SEC2        0.0000 
      5 N          14.3870    9.9890   -0.3060 N.am     10 SEL2        0.0000 
      6 N          17.0830   11.1480    0.0370 N.am      6 SEP2        0.0000 
      7 NZ         10.3890   10.2250   -1.9685 N.4       3 LYC4        0.0000 
      8 NZ          9.8890    9.2790   -0.4970 N.4      11 LYL4        0.0000 
      9 N          11.4370   10.9020   -2.0060 N.am      2 SEC2        0.0000 
     10 N          11.9850   10.6330   -0.5720 N.am     10 SEL2        0.0000 
     11 N          10.8890   11.1710   -3.4400 N.am      6 SEP2        0.0000 
     12 CA         12.7965   11.4135    3.8690 C.3       4 GLC5        0.0000 
     13 CA         11.5440    9.9420    2.8930 C.3      12 GLL5        0.0000 
     14 CA         14.0490   12.8850    4.8450 C.3       8 GLP5        0.0000 
     15 CA         13.6015   10.5395    2.4305 C.3       4 GLC5        0.0000 
     16 CA         15.6590   11.1370    1.9680 C.3       8 GLP5        0.0000 
     17 CA         10.3150   11.4955    2.2520 C.3       4 GLC5        0.0000 
     18 CA          9.0860   13.0490    1.6110 C.3       8 GLP5        0.0000 
     19 CA         10.9485   10.8200    5.6125 C.3       4 GLC5        0.0000 
     20 CA         10.6230    9.5130    4.0230 C.3      12 GLL5        0.0000 
     21 CA         11.2740   12.1270    7.2020 C.3       8 GLP5        0.0000 
     22 O          11.0155    5.7550    4.3830 O.2       1 ALC1        0.0000 
     23 O          11.0850    7.1720    4.4700 O.2       9 ALL1        0.0000 
     24 O          10.9460    4.3380    4.2960 O.2       5 ALP1        0.0000 
     25 CA          9.1995    6.7200    6.4415 C.3       4 GLC5        0.0000 
     26 CA          8.9700    8.2110    4.9730 C.3      12 GLL5        0.0000 
     27 CA          9.4290    5.2290    7.9100 C.3       8 GLP5        0.0000 
     28 CA          7.8185    6.5385    4.9140 C.3       4 GLC5        0.0000 
     29 CA          6.6670    4.8660    4.8550 C.3       8 GLP5        0.0000 
     30 CA          7.5475    8.3405    6.7040 C.3       4 GLC5        0.0000 
     31 CA          6.1250    8.4700    8.4350 C.3       8 GLP5        0.0000 
     32 N          10.2600    8.7745    7.5620 N.am      2 SEC2        0.0000 
     33 N           9.5380    8.2880    6.2670 N.am     10 SEL2        0.0000 
     34 N          10.9820    9.2610    8.8570 N.am      6 SEP2        0.0000 
     35 O          10.3130    7.5505    6.7935 O.2       1 ALC1        0.0000 
     36 O           9.5380    8.2880    6.2670 O.2       9 ALL1        0.0000 
     37 O          11.0880    6.8130    7.3200 O.2       5 ALP1        0.0000 
     38 CA          8.4055   11.5715    3.7525 C.3       4 GLC5        0.0000 
     39 CA          8.3500    9.5720    4.6040 C.3      12 GLL5        0.0000 
     40 CA          8.4610   13.5710    2.9010 C.3       8 GLP5        0.0000 
     41 N           6.1655    8.1915    0.7540 N.am      2 SEC2        0.0000 
     42 N           6.0630    9.2390    1.7770 N.am     10 SEL2        0.0000 
     43 N           6.2680    7.1440   -0.2690 N.am      6 SEP2        0.0000 
     44 CA          2.2545    7.7905    3.0275 C.3       4 GLC5        0.0000 
     45 CA          3.7770    9.3020    2.8650 C.3      12 GLL5        0.0000 
     46 CA          0.7320    6.2790    3.1900 C.3       8 GLP5        0.0000 
     47 O           1.6245    9.4820    1.7365 O.2       1 ALC1        0.0000 
     48 O           3.0080    9.1690    1.7510 O.2       9 ALL1        0.0000 
     49 O           0.2410    9.7950    1.7220 O.2       5 ALP1        0.0000 
     50 N           1.7880    8.9145    4.5750 N.am      2 SEC2        0.0000 
     51 N           3.2130    9.3960    4.0970 N.am     10 SEL2        0.0000 
     52 N           0.3630    8.4330    5.0530 N.am      6 SEP2        0.0000 
     53 CA          4.1730   11.1705    6.0800 C.3       4 GLC5        0.0000 
     54 CA          4.0140    9.5140    5.1910 C.3      12 GLL5        0.0000 
     55 CA          4.3320   12.8270    6.9690 C.3       8 GLP5        0.0000 
     56 CA          3.5000   11.1450    4.0685 C.3       4 GLC5        0.0000 
     57 CA          2.9860   12.7760    2.9460 C.3       8 GLP5        0.0000 
     58 CA          2.1500    8.2755    5.3720 C.3       4 GLC5        0.0000 
     59 CA          0.2860    7.0370    5.5530 C.3       8 GLP5        0.0000 
     60 CA          4.4435    7.7435    4.3625 C.3       4 GLC5        0.0000 
     61 CA          4.8730    5.9730    3.5340 C.3       8 GLP5        0.0000 
     62 CA          6.2375   11.3838    3.1650 C.3       4 GLC5        0.0000 
     63 CA          5.8780    9.4640    4.0270 C.3      12 GLL5        0.0000 
     64 CA          6.9430   13.3670    2.9020 C.3       8 GLP5        0.0000 
     65 CA          3.7338   11.0478    2.8965 C.3       4 GLC5        0.0000 
     66 CA          5.1860    9.3370    2.8290 C.3      12 GLL5        0.0000 
     67 CA          5.0264    7.6824    3.4855 C.3       4 GLC5        0.0000 
@<TRIPOS>BOND
@<TRIPOS>SUBSTRUCTURE
     1 ALC1       22 GROUP        1 X    ALC  0     ROOT ALC X 1
     2 SEC2        4 GROUP        1 X    SEC  0     **** SEC X 2
     3 LYC4        1 GROUP        1 X    LYC  0     **** LYC X 4
     4 GLC5       12 GROUP        1 X    GLC  0     **** GLC X 6
     5 ALP1       24 GROUP        1 Y    ALP  0     ROOT ALP Y 8
     6 SEP2        6 GROUP        1 Y    SEP  0     **** SEP Y 9
     7 LYP4        3 GROUP        1 Y    LYP  0     **** LYP Y 11
     8 GLP5       14 GROUP        1 Y    GLP  0     **** GLP Y 13
     9 ALL1       23 GROUP        1 Z    ALL  0     ROOT ALL Z 15
    10 SEL2        5 GROUP        1 Z    SEL  0     **** SEL Z 16
    11 LYL4        2 GROUP        1 Z    LYL  0     **** LYL Z 18
    12 GLL5       13 GROUP        1 Z    GLL  0     **** GLL Z 20
@<TRIPOS>SET

