#    Name: 1jbp_ADP_1_ligand
#    Modification time : Tue Mar 25 08:42:29 2014

@<TRIPOS>MOLECULE
1jbp_ADP_1_ligand
   39    41     1     0     0
SMALL
NO_CHARGES


@<TRIPOS>ATOM
      1 PB         13.4860   11.1760   -0.5010 P.3       1 ADP381      0.0000 
      2 O1B        13.7880   12.1020   -1.6540 O.co2     1 ADP381      0.0000 
      3 O2B        14.3870    9.9890   -0.3060 O.co2     1 ADP381      0.0000 
      4 O3B        13.3060   12.0780    0.8450 O.co2     1 ADP381      0.0000 
      5 PA         11.1490    9.5450    0.2460 P.3       1 ADP381      0.0000 
      6 O1A         9.8890    9.2790   -0.4970 O.co2     1 ADP381      0.0000 
      7 O2A        12.0100    8.3600    0.4770 O.co2     1 ADP381      0.0000 
      8 O3A        11.9850   10.6330   -0.5720 O.3       1 ADP381      0.0000 
      9 O5'        10.8030   10.1990    1.6760 O.3       1 ADP381      0.0000 
     10 C5'        11.5440    9.9420    2.8930 C.3       1 ADP381      0.0000 
     11 C4'        10.6230    9.5130    4.0230 C.3       1 ADP381      0.0000 
     12 O4'         9.4050   10.3170    4.0200 O.3       1 ADP381      0.0000 
     13 C3'        10.0860    8.0960    3.9600 C.3       1 ADP381      0.0000 
     14 O3'        11.0850    7.1720    4.4700 O.3       1 ADP381      0.0000 
     15 C2'         8.9700    8.2110    4.9730 C.3       1 ADP381      0.0000 
     16 O2'         9.5380    8.2880    6.2670 O.3       1 ADP381      0.0000 
     17 C1'         8.3500    9.5720    4.6040 C.3       1 ADP381      0.0000 
     18 N9          7.2040    9.4870    3.6930 N.pl3     1 ADP381      0.0000 
     19 C8          7.2300    9.3370    2.3400 C.2       1 ADP381      0.0000 
     20 N7          6.0630    9.2390    1.7770 N.2       1 ADP381      0.0000 
     21 C5          5.1860    9.3370    2.8290 C.ar      1 ADP381      0.0000 
     22 C6          3.7770    9.3020    2.8650 C.ar      1 ADP381      0.0000 
     23 N6          3.0080    9.1690    1.7510 N.pl3     1 ADP381      0.0000 
     24 N1          3.2130    9.3960    4.0970 N.ar      1 ADP381      0.0000 
     25 C2          4.0140    9.5140    5.1910 C.ar      1 ADP381      0.0000 
     26 N3          5.3600    9.5380    5.2490 N.ar      1 ADP381      0.0000 
     27 C4          5.8780    9.4640    4.0270 C.ar      1 ADP381      0.0000 
     28 H          12.0902   10.8410    3.2193 H         1 ADP381      0.0000 
     29 H          12.2906    9.1470    2.7396 H         1 ADP381      0.0000 
     30 H          11.1147    9.6454    4.9770 H         1 ADP381      0.0000 
     31 H           9.7151    7.8912    3.0381 H         1 ADP381      0.0000 
     32 H           8.2765    7.4669    4.8245 H         1 ADP381      0.0000 
     33 H           8.0526   10.0421    5.5436 H         1 ADP381      0.0000 
     34 H           8.1118    9.3076    1.8376 H         1 ADP381      0.0000 
     35 H           3.4981    9.1290    0.8802 H         1 ADP381      0.0000 
     36 H           2.0204    9.1229    1.9010 H         1 ADP381      0.0000 
     37 H           3.4879    9.6011    6.1536 H         1 ADP381      0.0000 
     38 H          10.6338    6.2796    4.4743 H         1 ADP381      0.0000 
     39 H          10.4396    7.8643    6.1794 H         1 ADP381      0.0000 
@<TRIPOS>BOND
     1    2    1 ar   
     2    3    1 ar   
     3    4    1 ar   
     4    8    1 1    
     5    6    5 ar   
     6    7    5 ar   
     7    8    5 1    
     8    9    5 1    
     9   10    9 1    
    10   11   10 1    
    11   28   10 1    
    12   29   10 1    
    13   12   11 1    
    14   13   11 1    
    15   30   11 1    
    16   17   12 1    
    17   14   13 1    
    18   15   13 1    
    19   31   13 1    
    20   38   14 1    
    21   16   15 1    
    22   17   15 1    
    23   32   15 1    
    24   39   16 1    
    25   18   17 1    
    26   33   17 1    
    27   19   18 1    
    28   27   18 1    
    29   20   19 2    
    30   34   19 1    
    31   21   20 1    
    32   22   21 ar   
    33   27   21 ar   
    34   23   22 1    
    35   24   22 ar   
    36   35   23 1    
    37   36   23 1    
    38   25   24 ar   
    39   26   25 ar   
    40   37   25 1    
    41   27   26 ar   
@<TRIPOS>SUBSTRUCTURE
     1 ADP381      1 GROUP   
@<TRIPOS>SET

