#    Name: 4mz1_IMP_5_INTS_M
#    Modification time : Tue Mar 25 12:28:44 2014

@<TRIPOS>MOLECULE
4mz1_IMP_5_INTS_M
   55     0     9     0     0
SMALL
NO_CHARGES


@<TRIPOS>ATOM
      1 N           1.3865   20.5165   49.3210 N.am      2 SEC2        0.0000 
      2 N           2.5330   21.1430   48.9390 N.am      8 SEL2        0.0000 
      3 N           0.2400   19.8900   49.7030 N.am      5 SEP2        0.0000 
      4 N           1.9330   20.9350   50.5195 N.am      2 SEC2        0.0000 
      5 N           1.3330   20.7270   52.1000 N.am      5 SEP2        0.0000 
      6 N           2.8070   20.7130   47.4845 N.am      2 SEC2        0.0000 
      7 N           3.0810   20.2830   46.0300 N.am      5 SEP2        0.0000 
      8 N           4.8415   24.1440   49.6585 N.am      2 SEC2        0.0000 
      9 N           4.2460   22.9240   49.1170 N.am      8 SEL2        0.0000 
     10 N           5.4370   25.3640   50.2000 N.am      5 SEP2        0.0000 
     11 N           1.8650   21.7040   51.4905 N.am      2 SEC2        0.0000 
     12 N           2.3970   22.6810   50.8810 N.am      8 SEL2        0.0000 
     13 N           3.5715   23.1310   51.7220 N.am      2 SEC2        0.0000 
     14 N           4.7460   23.5810   52.5630 N.am      5 SEP2        0.0000 
     15 N           2.0020   23.5245   51.6345 N.am      2 SEC2        0.0000 
     16 N           1.6070   24.3680   52.3880 N.am      5 SEP2        0.0000 
     17 CA          3.0115   25.1800   50.2000 C.3       3 GLC5        0.0000 
     18 CA          1.2940   24.6410   48.9840 C.3       9 GLL5        0.0000 
     19 CA          4.7290   25.7190   51.4160 C.3       6 GLP5        0.0000 
     20 CA          1.8790   27.8130   48.8240 C.3       3 GLC5        0.0000 
     21 CA          0.3330   26.8050   47.9900 C.3       9 GLL5        0.0000 
     22 CA          3.4250   28.8210   49.6580 C.3       6 GLP5        0.0000 
     23 CA          1.3490   28.4180   47.1960 C.3       3 GLC5        0.0000 
     24 CA          2.3650   30.0310   46.4020 C.3       6 GLP5        0.0000 
     25 O           1.9620   27.0680   46.2685 O.2       1 ALC1        0.0000 
     26 O           1.4400   27.4530   47.4200 O.2       7 ALL1        0.0000 
     27 O           2.4840   26.6830   45.1170 O.2       4 ALP1        0.0000 
     28 O           1.1635   27.6200   45.7195 O.2       1 ALC1        0.0000 
     29 O           0.8870   27.7870   44.0190 O.2       4 ALP1        0.0000 
     30 O           0.9145   26.8820   45.4680 O.2       1 ALC1        0.0000 
     31 O          -0.6550   27.0810   45.8190 O.2       7 ALL1        0.0000 
     32 N          -4.4520   27.2110   51.6265 N.am      2 SEC2        0.0000 
     33 N          -3.8090   26.6720   50.4130 N.am      8 SEL2        0.0000 
     34 N          -5.0950   27.7500   52.8400 N.am      5 SEP2        0.0000 
     35 CA         -4.5825   25.7345   51.7035 C.3       3 GLC5        0.0000 
     36 CA         -4.6650   25.8860   49.7190 C.3       9 GLL5        0.0000 
     37 CA         -4.5000   25.5830   53.6880 C.3       6 GLP5        0.0000 
     38 N          -6.9485   26.4645   51.5580 N.am      2 SEC2        0.0000 
     39 N          -6.3470   25.3490   51.1560 N.am      8 SEL2        0.0000 
     40 N          -7.5500   27.5800   51.9600 N.am      5 SEP2        0.0000 
     41 O          -7.4795   23.5645   49.3510 O.2       1 ALC1        0.0000 
     42 O          -6.5610   24.6280   49.0380 O.2       7 ALL1        0.0000 
     43 O          -8.3980   22.5010   49.6640 O.2       4 ALP1        0.0000 
     44 CA         -4.2495   23.2970   48.4115 C.3       3 GLC5        0.0000 
     45 CA         -4.0150   25.4890   48.5580 C.3       9 GLL5        0.0000 
     46 CA         -4.4840   21.1050   48.2650 C.3       6 GLP5        0.0000 
     47 CA          0.2295   22.9625   48.0433 C.3       3 GLC5        0.0000 
     48 CA         -0.4190   20.9580   47.6360 C.3       6 GLP5        0.0000 
     49 CA          1.7790   23.7685   46.8708 C.3       3 GLC5        0.0000 
     50 CA          2.6800   22.5700   45.2910 C.3       6 GLP5        0.0000 
     51 CA          0.6022   26.6625   49.9496 C.3       3 GLC5        0.0000 
     52 CA          0.4620   25.2930   47.9170 C.3       9 GLL5        0.0000 
     53 CA          0.5990   27.4390   51.6790 C.3       6 GLP5        0.0000 
     54 CA         -3.4685   24.6717   50.3323 C.3       3 GLC5        0.0000 
     55 CA         -2.5970   23.6560   51.5260 C.3       6 GLP5        0.0000 
@<TRIPOS>BOND
@<TRIPOS>SUBSTRUCTURE
     1 ALC1       25 GROUP        1 X    ALC  0     ROOT ALC X 1
     2 SEC2        1 GROUP        1 X    SEC  0     **** SEC X 2
     3 GLC5       17 GROUP        1 X    GLC  0     **** GLC X 6
     4 ALP1       27 GROUP        1 Y    ALP  0     ROOT ALP Y 8
     5 SEP2        3 GROUP        1 Y    SEP  0     **** SEP Y 9
     6 GLP5       19 GROUP        1 Y    GLP  0     **** GLP Y 13
     7 ALL1       26 GROUP        1 Z    ALL  0     ROOT ALL Z 15
     8 SEL2        2 GROUP        1 Z    SEL  0     **** SEL Z 16
     9 GLL5       18 GROUP        1 Z    GLL  0     **** GLL Z 20
@<TRIPOS>SET

