#    Name: 4mz1_IMP_5_ligand
#    Modification time : Tue Mar 25 12:28:44 2014

@<TRIPOS>MOLECULE
4mz1_IMP_5_ligand
   34    36     1     0     0
SMALL
NO_CHARGES


@<TRIPOS>ATOM
      1 P           2.8080   22.5480   49.4330 P.3       1 IMP502      0.0000 
      2 O1P         2.5330   21.1430   48.9390 O.co2     1 IMP502      0.0000 
      3 O2P         4.2460   22.9240   49.1170 O.co2     1 IMP502      0.0000 
      4 O3P         2.3970   22.6810   50.8810 O.co2     1 IMP502      0.0000 
      5 O5'         1.8880   23.4530   48.4990 O.3       1 IMP502      0.0000 
      6 C5'         1.2940   24.6410   48.9840 C.3       1 IMP502      0.0000 
      7 C4'         0.4620   25.2930   47.9170 C.3       1 IMP502      0.0000 
      8 O4'        -0.8990   24.8270   48.0100 O.3       1 IMP502      0.0000 
      9 C3'         0.3330   26.8050   47.9900 C.3       1 IMP502      0.0000 
     10 O3'         1.4400   27.4530   47.4200 O.3       1 IMP502      0.0000 
     11 C2'        -0.9420   27.0720   47.2090 C.3       1 IMP502      0.0000 
     12 O2'        -0.6550   27.0810   45.8190 O.3       1 IMP502      0.0000 
     13 C1'        -1.7760   25.8250   47.5310 C.3       1 IMP502      0.0000 
     14 N9         -2.7790   26.0560   48.5800 N.pl3     1 IMP502      0.0000 
     15 C8         -2.6510   26.7750   49.7320 C.2       1 IMP502      0.0000 
     16 N7         -3.8090   26.6720   50.4130 N.2       1 IMP502      0.0000 
     17 C5         -4.6650   25.8860   49.7190 C.2       1 IMP502      0.0000 
     18 C6         -5.9660   25.4470   49.9810 C.2       1 IMP502      0.0000 
     19 O6         -6.3470   25.3490   51.1560 O.2       1 IMP502      0.0000 
     20 N1         -6.5610   24.6280   49.0380 N.am      1 IMP502      0.0000 
     21 C2         -5.8930   24.2510   47.8880 C.2       1 IMP502      0.0000 
     22 N3         -4.6100   24.6890   47.6420 N.2       1 IMP502      0.0000 
     23 C4         -4.0150   25.4890   48.5580 C.2       1 IMP502      0.0000 
     24 H           2.0548   25.3690   49.3172 H         1 IMP502      0.0000 
     25 H           0.6420   24.4437   49.8534 H         1 IMP502      0.0000 
     26 H           0.8478   25.0376   46.9353 H         1 IMP502      0.0000 
     27 H           0.1491   27.0659   49.0100 H         1 IMP502      0.0000 
     28 H          -1.4168   27.9067   47.5780 H         1 IMP502      0.0000 
     29 H          -2.2579   25.4995   46.6244 H         1 IMP502      0.0000 
     30 H          -1.8706   27.2640   50.0008 H         1 IMP502      0.0000 
     31 H          -7.5316   24.2890   49.1982 H         1 IMP502      0.0000 
     32 H          -6.3649   23.6310   47.2034 H         1 IMP502      0.0000 
     33 H           1.6093   26.9689   46.5615 H         1 IMP502      0.0000 
     34 H           0.2809   27.4264   45.7503 H         1 IMP502      0.0000 
@<TRIPOS>BOND
     1    2    1 ar   
     2    3    1 ar   
     3    4    1 ar   
     4    5    1 1    
     5    6    5 1    
     6    7    6 1    
     7   24    6 1    
     8   25    6 1    
     9    8    7 1    
    10    9    7 1    
    11   26    7 1    
    12   13    8 1    
    13   10    9 1    
    14   11    9 1    
    15   27    9 1    
    16   33   10 1    
    17   12   11 1    
    18   13   11 1    
    19   28   11 1    
    20   34   12 1    
    21   14   13 1    
    22   29   13 1    
    23   15   14 1    
    24   23   14 1    
    25   16   15 2    
    26   30   15 1    
    27   17   16 1    
    28   18   17 1    
    29   23   17 2    
    30   19   18 2    
    31   20   18 am   
    32   21   20 1    
    33   31   20 1    
    34   22   21 2    
    35   32   21 1    
    36   23   22 1    
@<TRIPOS>SUBSTRUCTURE
     1 IMP502      1 GROUP   
@<TRIPOS>SET

