#    Name: 3p9j_P9J_1_INTS_M
#    Modification time : Tue Mar 25 06:08:04 2014

@<TRIPOS>MOLECULE
3p9j_P9J_1_INTS_M
   51     0     9     0     0
SMALL
NO_CHARGES


@<TRIPOS>ATOM
      1 CA         -0.8095   33.1250   -4.8730 C.3       3 GLC5        0.0000 
      2 CA         -2.2670   34.8080   -4.8800 C.3       9 GLL5        0.0000 
      3 CA          0.6480   31.4420   -4.8660 C.3       6 GLP5        0.0000 
      4 CA         -2.1050   31.7970   -4.4060 C.3       3 GLC5        0.0000 
      5 CA         -3.0850   33.7690   -4.4510 C.3       9 GLL5        0.0000 
      6 CA         -1.1250   29.8250   -4.3610 C.3       6 GLP5        0.0000 
      7 O          -3.3110   34.4885   -7.0855 O.2       1 ALC1        0.0000 
      8 O          -3.4610   33.0220   -6.6490 O.2       7 ALL1        0.0000 
      9 O          -3.1610   35.9550   -7.5220 O.2       4 ALP1        0.0000 
     10 CA         -2.6435   30.7790   -7.1280 C.3       3 GLC5        0.0000 
     11 CA         -4.7010   31.1590   -7.5050 C.3       9 GLL5        0.0000 
     12 CA         -0.5860   30.3990   -6.7510 C.3       6 GLP5        0.0000 
     13 O          -4.2980   31.7315  -11.0855 O.2       1 ALC1        0.0000 
     14 O          -4.3380   31.6670   -9.5930 O.2       7 ALL1        0.0000 
     15 O          -4.2580   31.7960  -12.5780 O.2       4 ALP1        0.0000 
     16 N          -3.4930   33.6740   -9.6375 N.am      2 SEC2        0.0000 
     17 N          -3.7710   32.5290   -8.9150 N.am      8 SEL2        0.0000 
     18 N          -3.2150   34.8190  -10.3600 N.am      5 SEP2        0.0000 
     19 CA         -6.2065   28.2020  -10.5270 C.3       3 GLC5        0.0000 
     20 CA         -5.7110   29.5880   -9.2360 C.3       9 GLL5        0.0000 
     21 CA         -6.7020   26.8160  -11.8180 C.3       6 GLP5        0.0000 
     22 CA         -4.0892   35.4153   -3.2077 C.3       3 GLC5        0.0000 
     23 CA         -3.3330   33.6120   -3.1020 C.3       9 GLL5        0.0000 
     24 CA         -5.1220   36.7890   -3.7810 C.3       6 GLP5        0.0000 
     25 CA         -3.4790   36.1930   -3.5267 C.3       3 GLC5        0.0000 
     26 CA         -1.9660   35.5130   -2.5950 C.3       9 GLL5        0.0000 
     27 CA         -1.5317   36.5558   -6.0665 C.3       3 GLC5        0.0000 
     28 CA         -1.7060   35.6810   -3.9500 C.3       9 GLL5        0.0000 
     29 CA         -1.0770   37.8670   -7.7180 C.3       6 GLP5        0.0000 
     30 CA         -3.8990   35.5388   -4.2233 C.3       3 GLC5        0.0000 
     31 CA         -4.5510   29.1780   -1.8635 C.3       3 GLC5        0.0000 
     32 CA         -5.4650   30.6480   -3.2870 C.3       9 GLL5        0.0000 
     33 CA         -3.4040   27.7540   -1.0900 C.3       6 GLP5        0.0000 
     34 CA         -7.1440   32.2020   -2.6255 C.3       3 GLC5        0.0000 
     35 CA         -5.9310   30.5560   -1.9870 C.3       9 GLL5        0.0000 
     36 CA         -8.5900   33.8020   -2.6140 C.3       6 GLP5        0.0000 
     37 CA         -5.1270   28.3607   -1.5713 C.3       3 GLC5        0.0000 
     38 CA         -6.6880   29.4630   -1.5970 C.3       9 GLL5        0.0000 
     39 CA         -4.8057   28.4443   -2.5542 C.3       3 GLC5        0.0000 
     40 CA         -6.5740   28.5790   -3.8200 C.3       9 GLL5        0.0000 
     41 CA         -5.5248   27.5392   -5.0488 C.3       3 GLC5        0.0000 
     42 CA         -4.8420   25.9440   -6.0790 C.3       6 GLP5        0.0000 
     43 CA         -3.7070   29.6838   -9.8000 C.3       3 GLC5        0.0000 
     44 CA         -4.9170   30.8030   -8.7680 C.3       9 GLL5        0.0000 
     45 CA         -2.1000   29.1720  -10.5980 C.3       6 GLP5        0.0000 
     46 CA         -6.7025   30.6887  -10.4565 C.3       3 GLC5        0.0000 
     47 CA         -8.0910   31.1820  -11.9110 C.3       6 GLP5        0.0000 
     48 CA         -4.1235   28.7017   -7.9796 C.3       3 GLC5        0.0000 
     49 CA         -2.9870   27.1190   -7.2730 C.3       6 GLP5        0.0000 
     50 CA         -6.4765   31.6593   -8.5816 C.3       3 GLC5        0.0000 
     51 CA         -7.6930   33.0340   -8.4770 C.3       6 GLP5        0.0000 
@<TRIPOS>BOND
@<TRIPOS>SUBSTRUCTURE
     1 ALC1        7 GROUP        1 X    ALC  0     ROOT ALC X 1
     2 SEC2       16 GROUP        1 X    SEC  0     **** SEC X 2
     3 GLC5        1 GROUP        1 X    GLC  0     **** GLC X 6
     4 ALP1        9 GROUP        1 Y    ALP  0     ROOT ALP Y 8
     5 SEP2       18 GROUP        1 Y    SEP  0     **** SEP Y 9
     6 GLP5        3 GROUP        1 Y    GLP  0     **** GLP Y 13
     7 ALL1        8 GROUP        1 Z    ALL  0     ROOT ALL Z 15
     8 SEL2       17 GROUP        1 Z    SEL  0     **** SEL Z 16
     9 GLL5        2 GROUP        1 Z    GLL  0     **** GLL Z 20
@<TRIPOS>SET

