#    Name: 3p9j_P9J_1_ligand
#    Modification time : Tue Mar 25 06:08:04 2014

@<TRIPOS>MOLECULE
3p9j_P9J_1_ligand
   39    42     1     0     0
SMALL
NO_CHARGES


@<TRIPOS>ATOM
      1 C1         -4.1450   32.5710   -2.7070 C.2       1 P9J1        0.0000 
      2 N2         -4.7360   31.7560   -3.6920 N.am      1 P9J1        0.0000 
      3 C3         -3.3330   33.6120   -3.1020 C.ar      1 P9J1        0.0000 
      4 C4         -2.7800   34.4710   -2.1670 C.ar      1 P9J1        0.0000 
      5 C5         -1.9660   35.5130   -2.5950 C.ar      1 P9J1        0.0000 
      6 C6         -1.7060   35.6810   -3.9500 C.ar      1 P9J1        0.0000 
      7 C7         -2.2670   34.8080   -4.8800 C.ar      1 P9J1        0.0000 
      8 C8         -3.0850   33.7690   -4.4510 C.ar      1 P9J1        0.0000 
      9 C9         -3.6560   32.8600   -5.3420 C.2       1 P9J1        0.0000 
     10 N10        -4.4180   31.8590   -4.8780 N.2       1 P9J1        0.0000 
     11 C11        -5.4650   30.6480   -3.2870 C.ar      1 P9J1        0.0000 
     12 C12        -5.9310   30.5560   -1.9870 C.ar      1 P9J1        0.0000 
     13 C13        -6.6880   29.4630   -1.5970 C.ar      1 P9J1        0.0000 
     14 C14        -7.0120   28.4720   -2.5080 C.ar      1 P9J1        0.0000 
     15 C15        -6.5740   28.5790   -3.8200 C.ar      1 P9J1        0.0000 
     16 C16        -5.8410   29.6900   -4.2170 C.ar      1 P9J1        0.0000 
     17 N17        -3.4610   33.0220   -6.6490 N.pl3     1 P9J1        0.0000 
     18 C18        -3.9380   32.2420   -7.6230 C.2       1 P9J1        0.0000 
     19 C19        -4.7010   31.1590   -7.5050 C.2       1 P9J1        0.0000 
     20 C20        -4.9170   30.8030   -8.7680 C.2       1 P9J1        0.0000 
     21 N21        -4.3380   31.6670   -9.5930 N.pl3     1 P9J1        0.0000 
     22 N22        -3.7710   32.5290   -8.9150 N.2       1 P9J1        0.0000 
     23 C23        -5.7110   29.5880   -9.2360 C.3       1 P9J1        0.0000 
     24 O24        -4.3720   32.4190   -1.5080 O.2       1 P9J1        0.0000 
     25 H          -2.9680   34.3413   -1.1676 H         1 P9J1        0.0000 
     26 H          -1.5557   36.1602   -1.9087 H         1 P9J1        0.0000 
     27 H          -1.1005   36.4483   -4.2675 H         1 P9J1        0.0000 
     28 H          -2.0754   34.9333   -5.8816 H         1 P9J1        0.0000 
     29 H          -5.7152   31.3006   -1.3081 H         1 P9J1        0.0000 
     30 H          -7.0130   29.3873   -0.6189 H         1 P9J1        0.0000 
     31 H          -7.5725   27.6630   -2.2158 H         1 P9J1        0.0000 
     32 H          -6.7914   27.8371   -4.4983 H         1 P9J1        0.0000 
     33 H          -5.5758   29.8023   -5.2069 H         1 P9J1        0.0000 
     34 H          -2.8531   33.8736   -6.9561 H         1 P9J1        0.0000 
     35 H          -5.0120   30.7456   -6.7195 H         1 P9J1        0.0000 
     36 H          -4.3853   31.5851  -10.5810 H         1 P9J1        0.0000 
     37 H          -5.7391   29.5245  -10.2336 H         1 P9J1        0.0000 
     38 H          -5.3156   28.7336   -8.8989 H         1 P9J1        0.0000 
     39 H          -6.6584   29.6183   -8.9174 H         1 P9J1        0.0000 
@<TRIPOS>BOND
     1    2    1 am   
     2    3    1 1    
     3   24    1 2    
     4   10    2 1    
     5   11    2 1    
     6    4    3 ar   
     7    8    3 ar   
     8    5    4 ar   
     9   25    4 1    
    10    6    5 ar   
    11   26    5 1    
    12    7    6 ar   
    13   27    6 1    
    14    8    7 ar   
    15   28    7 1    
    16    9    8 1    
    17   10    9 2    
    18   17    9 1    
    19   12   11 ar   
    20   16   11 ar   
    21   13   12 ar   
    22   29   12 1    
    23   14   13 ar   
    24   30   13 1    
    25   15   14 ar   
    26   31   14 1    
    27   16   15 ar   
    28   32   15 1    
    29   33   16 1    
    30   18   17 1    
    31   34   17 1    
    32   19   18 1    
    33   22   18 2    
    34   20   19 2    
    35   35   19 1    
    36   21   20 1    
    37   23   20 1    
    38   22   21 1    
    39   36   21 1    
    40   37   23 1    
    41   38   23 1    
    42   39   23 1    
@<TRIPOS>SUBSTRUCTURE
     1 P9J1        1 GROUP   
@<TRIPOS>SET

