#    Name: 2xce_DUP_4_INTS_M
#    Modification time : Tue Mar 25 05:50:37 2014

@<TRIPOS>MOLECULE
2xce_DUP_4_INTS_M
   43     0    12     0     0
SMALL
NO_CHARGES


@<TRIPOS>ATOM
      1 N          -1.8465   37.9230  -43.1085 N.am      2 SEC2        0.0000 
      2 N          -2.8170   38.4220  -42.2620 N.am     10 SEL2        0.0000 
      3 N          -0.8760   37.4240  -43.9550 N.am      6 SEP2        0.0000 
      4 CA         -3.2375   38.9280  -44.3385 C.3       4 GLC5        0.0000 
      5 CA         -4.2610   37.4330  -43.8370 C.3      12 GLL5        0.0000 
      6 CA         -2.2140   40.4230  -44.8400 C.3       8 GLP5        0.0000 
      7 O          -4.7190   38.2380  -40.3340 O.2       1 ALC1        0.0000 
      8 O          -5.0040   38.0650  -41.6470 O.2       9 ALL1        0.0000 
      9 O          -4.4340   38.4110  -39.0210 O.2       5 ALP1        0.0000 
     10 N          -7.1110   37.8400  -39.6415 N.am      2 SEC2        0.0000 
     11 N          -7.1290   37.6600  -41.0620 N.am     10 SEL2        0.0000 
     12 N          -7.0930   38.0200  -38.2210 N.am      6 SEP2        0.0000 
     13 CA         -9.6795   36.7865  -43.0735 C.3       4 GLC5        0.0000 
     14 CA         -7.9210   36.5390  -43.4370 C.3      12 GLL5        0.0000 
     15 CA        -11.4380   37.0340  -42.7100 C.3       8 GLP5        0.0000 
     16 CA         -7.1270   35.4360  -42.0685 C.3       4 GLC5        0.0000 
     17 CA         -6.3330   34.3330  -40.7000 C.3       8 GLP5        0.0000 
     18 CA        -10.0670   37.2650  -44.3680 C.3       4 GLC5        0.0000 
     19 CA         -8.3660   36.7890  -44.8810 C.3      12 GLL5        0.0000 
     20 CA        -11.7680   37.7410  -43.8550 C.3       8 GLP5        0.0000 
     21 CA        -10.2660   35.5745  -45.2625 C.3       4 GLC5        0.0000 
     22 CA         -8.2330   35.4440  -45.5740 C.3      12 GLL5        0.0000 
     23 CA        -12.2990   35.7050  -44.9510 C.3       8 GLP5        0.0000 
     24 CA        -10.1290   34.7315  -44.1065 C.3       4 GLC5        0.0000 
     25 CA         -8.3160   34.4670  -44.4070 C.3      12 GLL5        0.0000 
     26 CA        -11.9420   34.9960  -43.8060 C.3       8 GLP5        0.0000 
     27 NZ         -8.8165   30.5165  -48.9465 N.4       3 LYC4        0.0000 
     28 NZ         -8.8890   31.0950  -47.6870 N.4      11 LYL4        0.0000 
     29 NZ         -8.7440   29.9380  -50.2060 N.4       7 LYP4        0.0000 
     30 N          -8.8165   30.5165  -48.9465 N.am      2 SEC2        0.0000 
     31 N          -8.8890   31.0950  -47.6870 N.am     10 SEL2        0.0000 
     32 N          -8.7440   29.9380  -50.2060 N.am      6 SEP2        0.0000 
     33 NZ         -8.2155   30.7580  -51.2605 N.4       3 LYC4        0.0000 
     34 NZ         -7.6870   31.5780  -52.3150 N.4      11 LYL4        0.0000 
     35 N          -8.2155   30.7580  -51.2605 N.am      2 SEC2        0.0000 
     36 N          -7.6870   31.5780  -52.3150 N.am     10 SEL2        0.0000 
     37 CA         -6.1740   38.7377  -43.9318 C.3       4 GLC5        0.0000 
     38 CA         -5.5910   36.9800  -44.0920 C.3      12 GLL5        0.0000 
     39 CA         -7.4220   40.2690  -43.8990 C.3       8 GLP5        0.0000 
     40 CA         -4.9950   35.7803  -42.5652 C.3       4 GLC5        0.0000 
     41 CA         -5.0640   34.3540  -41.1660 C.3       8 GLP5        0.0000 
     42 CA         -7.7828   38.4665  -44.0290 C.3       4 GLC5        0.0000 
     43 CA         -7.1495   34.0670  -42.6108 C.3       4 GLC5        0.0000 
@<TRIPOS>BOND
@<TRIPOS>SUBSTRUCTURE
     1 ALC1        7 GROUP        1 X    ALC  0     ROOT ALC X 1
     2 SEC2        1 GROUP        1 X    SEC  0     **** SEC X 2
     3 LYC4       27 GROUP        1 X    LYC  0     **** LYC X 4
     4 GLC5        4 GROUP        1 X    GLC  0     **** GLC X 6
     5 ALP1        9 GROUP        1 Y    ALP  0     ROOT ALP Y 8
     6 SEP2        3 GROUP        1 Y    SEP  0     **** SEP Y 9
     7 LYP4       29 GROUP        1 Y    LYP  0     **** LYP Y 11
     8 GLP5        6 GROUP        1 Y    GLP  0     **** GLP Y 13
     9 ALL1        8 GROUP        1 Z    ALL  0     ROOT ALL Z 15
    10 SEL2        2 GROUP        1 Z    SEL  0     **** SEL Z 16
    11 LYL4       28 GROUP        1 Z    LYL  0     **** LYL Z 18
    12 GLL5        5 GROUP        1 Z    GLL  0     **** GLL Z 20
@<TRIPOS>SET

