#    Name: 2xce_DUP_4_ligand
#    Modification time : Tue Mar 25 05:50:37 2014

@<TRIPOS>MOLECULE
2xce_DUP_4_ligand
   39    40     1     0     0
SMALL
NO_CHARGES


@<TRIPOS>ATOM
      1 O4         -2.8170   38.4220  -42.2620 O.2       1 DUP1131     0.0000 
      2 C4         -3.9780   38.0060  -42.5760 C.2       1 DUP1131     0.0000 
      3 C5         -4.2610   37.4330  -43.8370 C.2       1 DUP1131     0.0000 
      4 C6         -5.5910   36.9800  -44.0920 C.2       1 DUP1131     0.0000 
      5 N3         -5.0040   38.0650  -41.6470 N.am      1 DUP1131     0.0000 
      6 C2         -6.2770   37.5870  -41.9370 C.2       1 DUP1131     0.0000 
      7 O2         -7.1290   37.6600  -41.0620 O.2       1 DUP1131     0.0000 
      8 N1         -6.5640   37.0470  -43.1530 N.am      1 DUP1131     0.0000 
      9 C1'        -7.9210   36.5390  -43.4370 C.3       1 DUP1131     0.0000 
     10 C2'        -8.3660   36.7890  -44.8810 C.3       1 DUP1131     0.0000 
     11 C3'        -8.2330   35.4440  -45.5740 C.3       1 DUP1131     0.0000 
     12 O3'        -9.2840   35.2470  -46.5750 O.3       1 DUP1131     0.0000 
     13 O4'        -7.7800   35.1400  -43.2610 O.3       1 DUP1131     0.0000 
     14 C4'        -8.3160   34.4670  -44.4070 C.3       1 DUP1131     0.0000 
     15 C5'        -7.6160   33.1350  -44.6360 C.3       1 DUP1131     0.0000 
     16 O5'        -8.3540   32.4860  -45.6900 O.3       1 DUP1131     0.0000 
     17 PA         -7.6900   31.4880  -46.7860 P.3       1 DUP1131     0.0000 
     18 O1A        -8.8890   31.0950  -47.6870 O.co2     1 DUP1131     0.0000 
     19 O2A        -6.8550   30.4210  -46.0610 O.co2     1 DUP1131     0.0000 
     20 N3A        -6.5500   32.4880  -47.5920 N.4       1 DUP1131     0.0000 
     21 PB         -6.9640   33.4590  -48.9090 P.3       1 DUP1131     0.0000 
     22 O1B        -5.8110   34.3740  -49.0190 O.co2     1 DUP1131     0.0000 
     23 O2B        -8.3480   34.0230  -48.5990 O.co2     1 DUP1131     0.0000 
     24 O3B        -7.1420   32.4460  -50.1590 O.3       1 DUP1131     0.0000 
     25 PG         -6.5360   32.4010  -51.6780 P.3       1 DUP1131     0.0000 
     26 O2G        -6.5650   33.8390  -52.1700 O.co2     1 DUP1131     0.0000 
     27 O1G        -5.2100   31.7090  -51.6580 O.co2     1 DUP1131     0.0000 
     28 O3G        -7.6870   31.5780  -52.3150 O.co2     1 DUP1131     0.0000 
     29 H          -3.5480   37.3437  -44.5413 H         1 DUP1131     0.0000 
     30 H          -5.7870   36.5912  -45.0395 H         1 DUP1131     0.0000 
     31 H          -4.8198   38.4763  -40.7095 H         1 DUP1131     0.0000 
     32 H          -8.6212   36.9425  -42.7632 H         1 DUP1131     0.0000 
     33 H          -7.7150   37.4998  -45.3360 H         1 DUP1131     0.0000 
     34 H          -9.3839   37.1050  -44.8900 H         1 DUP1131     0.0000 
     35 H          -7.2507   35.3852  -45.9872 H         1 DUP1131     0.0000 
     36 H          -9.3850   34.2665  -44.2307 H         1 DUP1131     0.0000 
     37 H          -7.6481   32.5698  -43.7182 H         1 DUP1131     0.0000 
     38 H          -6.5953   33.3303  -44.9237 H         1 DUP1131     0.0000 
     39 H          -9.0270   34.4103  -47.0587 H         1 DUP1131     0.0000 
@<TRIPOS>BOND
     1    2    1 2    
     2    3    2 1    
     3    5    2 1    
     4    4    3 2    
     5   29    3 1    
     6    8    4 1    
     7   30    4 1    
     8    6    5 1    
     9   31    5 1    
    10    7    6 2    
    11    8    6 1    
    12    9    8 1    
    13   10    9 1    
    14   13    9 1    
    15   32    9 1    
    16   11   10 1    
    17   33   10 1    
    18   34   10 1    
    19   12   11 1    
    20   14   11 1    
    21   35   11 1    
    22   39   12 1    
    23   14   13 1    
    24   15   14 1    
    25   36   14 1    
    26   16   15 1    
    27   37   15 1    
    28   38   15 1    
    29   17   16 1    
    30   18   17 ar   
    31   19   17 ar   
    32   20   17 1    
    33   21   20 1    
    34   22   21 ar   
    35   23   21 ar   
    36   24   21 1    
    37   25   24 1    
    38   26   25 ar   
    39   27   25 ar   
    40   28   25 ar   
@<TRIPOS>SUBSTRUCTURE
     1 DUP1131     1 GROUP   
@<TRIPOS>SET

