#    Name: 3bz3_YAM_1_INTS_M
#    Modification time : Mon Mar 24 20:15:27 2014

@<TRIPOS>MOLECULE
3bz3_YAM_1_INTS_M
   93     0     9     0     0
SMALL
NO_CHARGES


@<TRIPOS>ATOM
      1 CA          7.7630    0.0160    7.2860 C.3       3 GLC5        0.0000 
      2 CA          7.2060    1.7490    8.4340 C.3       9 GLL5        0.0000 
      3 CA          8.3200   -1.7170    6.1380 C.3       6 GLP5        0.0000 
      4 CA          9.0275    1.2185    8.5430 C.3       3 GLC5        0.0000 
      5 CA         10.8490    0.6880    8.6520 C.3       6 GLP5        0.0000 
      6 CA          6.5680    2.7510   11.8210 C.3       3 GLC5        0.0000 
      7 CA          6.4770    4.4940   10.5380 C.3       9 GLL5        0.0000 
      8 CA          6.6590    1.0080   13.1040 C.3       6 GLP5        0.0000 
      9 CA          6.4140    6.0590    9.8645 C.3       3 GLC5        0.0000 
     10 CA          6.3510    7.6240    9.1910 C.3       6 GLP5        0.0000 
     11 CA          5.3555    5.2660   11.7565 C.3       3 GLC5        0.0000 
     12 CA          4.2340    6.0380   12.9750 C.3       6 GLP5        0.0000 
     13 N          15.6640    3.2880    6.9925 N.am      2 SEC2        0.0000 
     14 N          14.2790    3.8010    6.7730 N.am      8 SEL2        0.0000 
     15 N          17.0490    2.7750    7.2120 N.am      5 SEP2        0.0000 
     16 CA         14.4815    4.9480    9.5595 C.3       3 GLC5        0.0000 
     17 CA         13.9140    4.9040    7.4010 C.3       9 GLL5        0.0000 
     18 CA         15.0490    4.9920   11.7180 C.3       6 GLP5        0.0000 
     19 CA         15.8625    4.8505    6.7710 C.3       3 GLC5        0.0000 
     20 CA         17.8110    4.7970    6.1410 C.3       6 GLP5        0.0000 
     21 CA          4.8530    5.8465    3.3965 C.3       3 GLC5        0.0000 
     22 CA          6.2440    5.3390    5.0870 C.3       9 GLL5        0.0000 
     23 CA          3.4620    6.3540    1.7060 C.3       6 GLP5        0.0000 
     24 CA         11.3065    0.8645    6.6480 C.3       3 GLC5        0.0000 
     25 CA         11.7640    1.0410    4.6440 C.3       9 GLL5        0.0000 
     26 CA         10.1230    2.1660    7.4545 C.3       3 GLC5        0.0000 
     27 CA          9.3970    3.6440    6.2570 C.3       9 GLL5        0.0000 
     28 CA         12.0000    4.3185    4.6025 C.3       3 GLC5        0.0000 
     29 CA         11.6570    4.4380    6.7960 C.3       9 GLL5        0.0000 
     30 CA         12.3430    4.1990    2.4090 C.3       6 GLP5        0.0000 
     31 CA         12.4810    6.5595   10.9665 C.3       3 GLC5        0.0000 
     32 CA         11.3120    6.2820    9.2180 C.3       9 GLL5        0.0000 
     33 CA         13.6500    6.8370   12.7150 C.3       6 GLP5        0.0000 
     34 CA         11.0325    5.2705   11.0345 C.3       3 GLC5        0.0000 
     35 CA         10.7530    4.2590   12.8510 C.3       6 GLP5        0.0000 
     36 CA         10.9060    7.5675    5.3280 C.3       3 GLC5        0.0000 
     37 CA         11.7330    7.5280    7.3710 C.3       9 GLL5        0.0000 
     38 CA         10.0790    7.6070    3.2850 C.3       6 GLP5        0.0000 
     39 CA         10.6910    9.3890    6.6545 C.3       3 GLC5        0.0000 
     40 CA          9.6490   11.2500    5.9380 C.3       6 GLP5        0.0000 
     41 CA         14.2240    6.7365   10.5270 C.3       3 GLC5        0.0000 
     42 CA         13.3970    7.0620    8.7780 C.3       9 GLL5        0.0000 
     43 CA         15.0510    6.4110   12.2760 C.3       6 GLP5        0.0000 
     44 CA         12.8660    3.6155    4.2935 C.3       3 GLC5        0.0000 
     45 CA         13.3890    3.0320    6.1780 C.3       9 GLL5        0.0000 
     46 CA         14.7300    3.5165    4.9270 C.3       3 GLC5        0.0000 
     47 CA         16.0710    4.0010    3.6760 C.3       6 GLP5        0.0000 
     48 CA         14.7315    2.0525    7.4275 C.3       3 GLC5        0.0000 
     49 CA         16.0740    1.0730    8.6770 C.3       6 GLP5        0.0000 
     50 CA         12.6930    2.8325    7.9465 C.3       3 GLC5        0.0000 
     51 CA         11.9970    2.6330    9.7150 C.3       6 GLP5        0.0000 
     52 O          14.9870    1.0630    5.7145 O.2       1 ALC1        0.0000 
     53 O          13.8880    1.9310    5.5100 O.2       7 ALL1        0.0000 
     54 O          16.0860    0.1950    5.9190 O.2       4 ALP1        0.0000 
     55 CA         13.4075   -1.4755    3.3890 C.3       3 GLC5        0.0000 
     56 CA         13.6520   -0.8140    1.3110 C.3       9 GLL5        0.0000 
     57 CA         13.1630   -2.1370    5.4670 C.3       6 GLP5        0.0000 
     58 CA          9.7045   -0.6925    4.9010 C.3       3 GLC5        0.0000 
     59 CA         11.0890    0.3320    3.6640 C.3       9 GLL5        0.0000 
     60 N          12.7460   -1.5895   -1.4785 N.am      2 SEC2        0.0000 
     61 N          12.2760   -2.0020   -0.3200 N.am      8 SEL2        0.0000 
     62 N          13.2160   -1.1770   -2.6370 N.am      5 SEP2        0.0000 
     63 CA         13.7975    6.2557    6.0847 C.3       3 GLC5        0.0000 
     64 CA         14.3460    7.4220    4.7430 C.3       6 GLP5        0.0000 
     65 CA         11.1813    1.4173    1.9848 C.3       3 GLC5        0.0000 
     66 CA         10.9190    2.7860    0.8370 C.3       6 GLP5        0.0000 
     67 CA         11.8855    4.5220    9.2145 C.3       3 GLC5        0.0000 
     68 CA         12.2360    6.5400    8.2100 C.3       9 GLL5        0.0000 
     69 CA          6.5388    4.4257    3.2212 C.3       3 GLC5        0.0000 
     70 CA          7.5450    4.8560    5.1080 C.3       9 GLL5        0.0000 
     71 CA          6.1830    3.7540    1.3450 C.3       6 GLP5        0.0000 
     72 CA          7.2657    6.6247    4.2973 C.3       3 GLC5        0.0000 
     73 CA          7.6370    8.1520    3.4970 C.3       6 GLP5        0.0000 
     74 CA          5.8780    6.9772    6.3068 C.3       3 GLC5        0.0000 
     75 CA          5.9290    8.7480    6.9920 C.3       6 GLP5        0.0000 
     76 CA          7.8775    6.1789    6.7434 C.3       3 GLC5        0.0000 
     77 CA          7.9820    4.1550    6.2180 C.3       9 GLL5        0.0000 
     78 CA          8.2130    7.9080    7.5600 C.3       6 GLP5        0.0000 
     79 CA         12.2250    3.6984    8.4131 C.3       3 GLC5        0.0000 
     80 CA          9.9832    7.4388    7.8013 C.3       3 GLC5        0.0000 
     81 CA         13.5184    7.2350    6.5136 C.3       3 GLC5        0.0000 
     82 CA         13.7609    8.5480    8.1556 C.3       3 GLC5        0.0000 
     83 CA         14.8310   10.0480    8.0270 C.3       6 GLP5        0.0000 
     84 CA         11.2096    7.7864    9.6476 C.3       3 GLC5        0.0000 
     85 CA          9.8440    8.5570   10.8850 C.3       6 GLP5        0.0000 
     86 CA         14.7850    2.4560    3.8598 C.3       3 GLC5        0.0000 
     87 CA         13.1490    1.1950    4.5730 C.3       9 GLL5        0.0000 
     88 CA         12.7479    2.5358    3.2351 C.3       3 GLC5        0.0000 
     89 CA         13.8490    0.6270    3.5140 C.3       9 GLL5        0.0000 
     90 CA         12.7807    1.0728    0.9320 C.3       3 GLC5        0.0000 
     91 CA         13.1810   -0.0890    2.5510 C.3       9 GLL5        0.0000 
     92 CA         12.1450    2.5970   -0.0670 C.3       6 GLP5        0.0000 
     93 CA         12.8170   -0.8291    4.5288 C.3       3 GLC5        0.0000 
@<TRIPOS>BOND
@<TRIPOS>SUBSTRUCTURE
     1 ALC1       52 GROUP        1 X    ALC  0     ROOT ALC X 1
     2 SEC2       13 GROUP        1 X    SEC  0     **** SEC X 2
     3 GLC5        1 GROUP        1 X    GLC  0     **** GLC X 6
     4 ALP1       54 GROUP        1 Y    ALP  0     ROOT ALP Y 8
     5 SEP2       15 GROUP        1 Y    SEP  0     **** SEP Y 9
     6 GLP5        3 GROUP        1 Y    GLP  0     **** GLP Y 13
     7 ALL1       53 GROUP        1 Z    ALL  0     ROOT ALL Z 15
     8 SEL2       14 GROUP        1 Z    SEL  0     **** SEL Z 16
     9 GLL5        2 GROUP        1 Z    GLL  0     **** GLL Z 20
@<TRIPOS>SET

