#    Name: 3bz3_YAM_1_ligand
#    Modification time : Mon Mar 24 20:15:27 2014

@<TRIPOS>MOLECULE
3bz3_YAM_1_ligand
   55    58     1     0     0
SMALL
NO_CHARGES


@<TRIPOS>ATOM
      1 C35         7.2060    1.7490    8.4340 C.3       1 YAM1        0.0000 
      2 C34         6.4770    4.4940   10.5380 C.3       1 YAM1        0.0000 
      3 N2         14.2790    3.8010    6.7730 N.ar      1 YAM1        0.0000 
      4 C7         13.9140    4.9040    7.4010 C.ar      1 YAM1        0.0000 
      5 C6         12.5840    5.2750    7.4520 C.ar      1 YAM1        0.0000 
      6 C13         7.9820    4.1550    6.2180 C.ar      1 YAM1        0.0000 
      7 C20         7.0960    3.9320    7.2730 C.ar      1 YAM1        0.0000 
      8 C21        11.7980   -0.2350    2.6010 C.ar      1 YAM1        0.0000 
      9 C8         12.2360    6.5400    8.2100 C.3       1 YAM1        0.0000 
     10 C18         6.2440    5.3390    5.0870 C.ar      1 YAM1        0.0000 
     11 C16        11.7640    1.0410    4.6440 C.ar      1 YAM1        0.0000 
     12 C19         5.4100    5.0740    6.1560 C.ar      1 YAM1        0.0000 
     13 O33         8.7670    5.0540    9.2680 O.2       1 YAM1        0.0000 
     14 S31         8.0250    3.9480    9.7600 S.o2      1 YAM1        0.0000 
     15 O32         8.6220    2.8850   10.4820 O.2       1 YAM1        0.0000 
     16 N30         7.4760    3.1920    8.3950 N.pl3     1 YAM1        0.0000 
     17 C17         7.5450    4.8560    5.1080 C.ar      1 YAM1        0.0000 
     18 N1          5.8430    4.3860    7.2030 N.ar      1 YAM1        0.0000 
     19 C12         9.3970    3.6440    6.2570 C.3       1 YAM1        0.0000 
     20 N10        10.2950    4.6680    6.8030 N.pl3     1 YAM1        0.0000 
     21 C5         11.6570    4.4380    6.7960 C.ar      1 YAM1        0.0000 
     22 F29        11.3120    6.2820    9.2180 F         1 YAM1        0.0000 
     23 F28        11.7330    7.5280    7.3710 F         1 YAM1        0.0000 
     24 F27        13.3970    7.0620    8.7780 F         1 YAM1        0.0000 
     25 N4         12.1030    3.3470    6.1710 N.ar      1 YAM1        0.0000 
     26 C3         13.3890    3.0320    6.1780 C.ar      1 YAM1        0.0000 
     27 N9         13.8880    1.9310    5.5100 N.pl3     1 YAM1        0.0000 
     28 C11        13.1490    1.1950    4.5730 C.ar      1 YAM1        0.0000 
     29 C14        13.8490    0.6270    3.5140 C.ar      1 YAM1        0.0000 
     30 C22        13.1810   -0.0890    2.5510 C.ar      1 YAM1        0.0000 
     31 C23        13.6520   -0.8140    1.3110 C.3       1 YAM1        0.0000 
     32 C15        11.0890    0.3320    3.6640 C.ar      1 YAM1        0.0000 
     33 N25        11.3590   -0.9520    1.4890 N.am      1 YAM1        0.0000 
     34 C24        12.3740   -1.3540    0.7050 C.2       1 YAM1        0.0000 
     35 O26        12.2760   -2.0020   -0.3200 O.2       1 YAM1        0.0000 
     36 H          14.6159    5.5193    7.8715 H         1 YAM1        0.0000 
     37 H           5.9091    5.8849    4.2874 H         1 YAM1        0.0000 
     38 H          11.2453    1.4581    5.4305 H         1 YAM1        0.0000 
     39 H           4.4269    5.4321    6.1150 H         1 YAM1        0.0000 
     40 H           8.1696    5.0168    4.3142 H         1 YAM1        0.0000 
     41 H           9.7033    3.3698    5.2408 H         1 YAM1        0.0000 
     42 H           9.4303    2.7385    6.8739 H         1 YAM1        0.0000 
     43 H           9.8849    5.5160    7.1698 H         1 YAM1        0.0000 
     44 H          14.8740    1.6213    5.7088 H         1 YAM1        0.0000 
     45 H          14.8724    0.7482    3.4586 H         1 YAM1        0.0000 
     46 H          14.2930   -1.6182    1.5809 H         1 YAM1        0.0000 
     47 H          14.1095   -0.1279    0.6399 H         1 YAM1        0.0000 
     48 H          10.0691    0.2198    3.7132 H         1 YAM1        0.0000 
     49 H          10.4056   -1.1300    1.3204 H         1 YAM1        0.0000 
     50 H           7.6605    1.2658    7.6858 H         1 YAM1        0.0000 
     51 H           7.5241    1.3345    9.2867 H         1 YAM1        0.0000 
     52 H           6.2285    1.5519    8.3592 H         1 YAM1        0.0000 
     53 H           6.6452    5.1116   11.3063 H         1 YAM1        0.0000 
     54 H           5.8891    4.9820    9.8929 H         1 YAM1        0.0000 
     55 H           5.9473    3.7233   10.8920 H         1 YAM1        0.0000 
@<TRIPOS>BOND
     1   16    1 1    
     2   50    1 1    
     3   51    1 1    
     4   52    1 1    
     5   14    2 1    
     6   53    2 1    
     7   54    2 1    
     8   55    2 1    
     9    4    3 ar   
    10   26    3 ar   
    11    5    4 ar   
    12   36    4 1    
    13    9    5 1    
    14   21    5 ar   
    15    7    6 ar   
    16   17    6 ar   
    17   19    6 1    
    18   16    7 1    
    19   18    7 ar   
    20   30    8 ar   
    21   32    8 ar   
    22   33    8 1    
    23   22    9 1    
    24   23    9 1    
    25   24    9 1    
    26   12   10 ar   
    27   17   10 ar   
    28   37   10 1    
    29   28   11 ar   
    30   32   11 ar   
    31   38   11 1    
    32   18   12 ar   
    33   39   12 1    
    34   14   13 2    
    35   15   14 2    
    36   16   14 1    
    37   40   17 1    
    38   20   19 1    
    39   41   19 1    
    40   42   19 1    
    41   21   20 1    
    42   43   20 1    
    43   25   21 ar   
    44   26   25 ar   
    45   27   26 1    
    46   28   27 1    
    47   44   27 1    
    48   29   28 ar   
    49   30   29 ar   
    50   45   29 1    
    51   31   30 1    
    52   34   31 1    
    53   46   31 1    
    54   47   31 1    
    55   48   32 1    
    56   34   33 am   
    57   49   33 1    
    58   35   34 2    
@<TRIPOS>SUBSTRUCTURE
     1 YAM1        1 GROUP   
@<TRIPOS>SET

