#    Name: 2og8_1N8_2_INTS_M
#    Modification time : Tue Mar 25 22:30:55 2014

@<TRIPOS>MOLECULE
2og8_1N8_2_INTS_M
  101     0     9     0     0
SMALL
NO_CHARGES


@<TRIPOS>ATOM
      1 CA         12.5965    8.1575   27.0240 C.3       3 GLC5        0.0000 
      2 CA         10.9760    6.7360   27.5780 C.3       9 GLL5        0.0000 
      3 CA         14.2170    9.5790   26.4700 C.3       6 GLP5        0.0000 
      4 CA         10.3395    4.0215   27.0025 C.3       3 GLC5        0.0000 
      5 CA         10.9700    5.3970   28.0950 C.3       9 GLL5        0.0000 
      6 CA          9.7090    2.6460   25.9100 C.3       6 GLP5        0.0000 
      7 CA          9.2605    4.2260   27.9405 C.3       3 GLC5        0.0000 
      8 CA         10.4200    5.2140   29.4230 C.3       9 GLL5        0.0000 
      9 CA          8.1010    3.2380   26.4580 C.3       6 GLP5        0.0000 
     10 CA          8.3810    4.3455   29.6935 C.3       3 GLC5        0.0000 
     11 CA          6.3420    3.4770   29.9640 C.3       6 GLP5        0.0000 
     12 O          12.2315    3.2785   28.7525 O.2       1 ALC1        0.0000 
     13 O          11.0890    2.8840   29.5090 O.2       7 ALL1        0.0000 
     14 O          13.3740    3.6730   27.9960 O.2       4 ALP1        0.0000 
     15 CA         10.2815    2.1095   27.8125 C.3       3 GLC5        0.0000 
     16 CA         10.8540    1.5730   29.7150 C.3       9 GLL5        0.0000 
     17 CA         13.0910    1.3175   28.2400 C.3       3 GLC5        0.0000 
     18 CA         11.9770    0.7160   29.8590 C.3       9 GLL5        0.0000 
     19 CA         14.2050    1.9190   26.6210 C.3       6 GLP5        0.0000 
     20 CA          7.9255    2.2635   29.8655 C.3       3 GLC5        0.0000 
     21 CA          9.5090    1.0500   29.7670 C.3       9 GLL5        0.0000 
     22 CA          8.6090    1.6115   31.7405 C.3       3 GLC5        0.0000 
     23 CA          7.7090    2.1730   33.7140 C.3       6 GLP5        0.0000 
     24 CA          6.6780    1.5340   29.7120 C.3       3 GLC5        0.0000 
     25 CA          7.0140   -0.4090   29.4600 C.3       9 GLL5        0.0000 
     26 CA          8.1615   -3.6660   28.7480 C.3       3 GLC5        0.0000 
     27 CA          7.9220   -2.2780   29.7300 C.3       9 GLL5        0.0000 
     28 CA          8.4010   -5.0540   27.7660 C.3       6 GLP5        0.0000 
     29 CA          9.2210   -3.8230   30.4490 C.3       3 GLC5        0.0000 
     30 CA         10.5200   -5.3680   31.1680 C.3       6 GLP5        0.0000 
     31 CA          5.7965   -1.6430   31.1400 C.3       3 GLC5        0.0000 
     32 CA          7.5790   -1.0340   31.3760 C.3       9 GLL5        0.0000 
     33 CA          4.0140   -2.2520   30.9040 C.3       6 GLP5        0.0000 
     34 CA          6.8410   -1.2205   33.1335 C.3       3 GLC5        0.0000 
     35 CA          6.1030   -1.4070   34.8910 C.3       6 GLP5        0.0000 
     36 CA          7.6440    0.5695   32.5450 C.3       3 GLC5        0.0000 
     37 N           9.9015    2.9700   32.2895 N.am      2 SEC2        0.0000 
     38 N           9.6870    3.6950   31.0470 N.am      8 SEL2        0.0000 
     39 N          10.1160    2.2450   33.5320 N.am      5 SEP2        0.0000 
     40 CA          9.1890   10.5210   28.1775 C.3       3 GLC5        0.0000 
     41 CA         10.4890    9.1390   27.7230 C.3       9 GLL5        0.0000 
     42 CA          7.8890   11.9030   28.6320 C.3       6 GLP5        0.0000 
     43 CA         12.3530    9.3590   27.0965 C.3       3 GLC5        0.0000 
     44 O          13.3040    2.4955   28.9240 O.2       1 ALC1        0.0000 
     45 O          13.2340    1.3180   29.8520 O.2       7 ALL1        0.0000 
     46 CA         14.8625    1.7580   28.6040 C.3       3 GLC5        0.0000 
     47 CA         15.5200    1.5970   30.5870 C.3       9 GLL5        0.0000 
     48 CA         15.6280    1.8065   27.3985 C.3       3 GLC5        0.0000 
     49 CA         17.0510    1.6940   28.1760 C.3       9 GLL5        0.0000 
     50 N           4.0640   11.5785   31.9810 N.am      2 SEC2        0.0000 
     51 N           5.5150   11.4010   32.2000 N.am      8 SEL2        0.0000 
     52 N           2.6130   11.7560   31.7620 N.am      5 SEP2        0.0000 
     53 CA          4.6085   11.3840   30.4235 C.3       3 GLC5        0.0000 
     54 CA          5.9860   10.4440   31.3680 C.3       9 GLL5        0.0000 
     55 CA          3.2310   12.3240   29.4790 C.3       6 GLP5        0.0000 
     56 CA          4.0905    9.7390   32.0090 C.3       3 GLC5        0.0000 
     57 CA          2.1950    9.0340   32.6500 C.3       6 GLP5        0.0000 
     58 CA          6.7675    9.8090   33.6795 C.3       3 GLC5        0.0000 
     59 CA          8.2240   10.7850   32.4120 C.3       9 GLL5        0.0000 
     60 CA          5.3110    8.8330   34.9470 C.3       6 GLP5        0.0000 
     61 CA          5.8075   10.4355   34.0240 C.3       3 GLC5        0.0000 
     62 CA          6.3040   12.0380   33.1010 C.3       9 GLL5        0.0000 
     63 O           4.2490   12.9615   34.1185 O.2       1 ALC1        0.0000 
     64 O           5.6760   12.9860   33.8280 O.2       7 ALL1        0.0000 
     65 O           2.8220   12.9370   34.4090 O.2       4 ALP1        0.0000 
     66 CA          5.6375   14.9245   33.7045 C.3       3 GLC5        0.0000 
     67 CA          6.3630   13.8290   34.8180 C.3       9 GLL5        0.0000 
     68 CA          4.9120   16.0200   32.5910 C.3       6 GLP5        0.0000 
     69 CA          5.4840   12.8240   36.1725 C.3       3 GLC5        0.0000 
     70 CA          4.6050   11.8190   37.5270 C.3       6 GLP5        0.0000 
     71 CA         11.3405    6.2148   25.8612 C.3       3 GLC5        0.0000 
     72 CA         11.7080    6.3630   23.8860 C.3       6 GLP5        0.0000 
     73 CA          9.3670    6.5267   26.9243 C.3       3 GLC5        0.0000 
     74 CA          7.7610    6.9870   26.0120 C.3       6 GLP5        0.0000 
     75 CA         11.7222    0.9257   31.5800 C.3       3 GLC5        0.0000 
     76 CA         12.0290    0.7070   33.3730 C.3       6 GLP5        0.0000 
     77 CA         12.1185   -2.1582   28.6695 C.3       3 GLC5        0.0000 
     78 CA         11.8400   -0.7150   30.0490 C.3       9 GLL5        0.0000 
     79 CA         13.0530   -3.3360   27.2640 C.3       6 GLP5        0.0000 
     80 CA         11.6065   -0.1368   31.7240 C.3       3 GLC5        0.0000 
     81 CA          9.4095    0.6158   27.8005 C.3       3 GLC5        0.0000 
     82 CA          9.3650   -0.3770   29.9690 C.3       9 GLL5        0.0000 
     83 CA          9.3820    0.8950   25.7330 C.3       6 GLP5        0.0000 
     84 CA         10.7330    0.5218   31.6205 C.3       3 GLC5        0.0000 
     85 CA          6.1815   -2.3262   29.8120 C.3       3 GLC5        0.0000 
     86 CA          4.6620   -3.1540   29.8650 C.3       6 GLP5        0.0000 
     87 CA          9.0455    7.7117   27.1983 C.3       3 GLC5        0.0000 
     88 CA         17.1122    2.4370   33.5525 C.3       3 GLC5        0.0000 
     89 CA         17.5850    1.4540   31.8360 C.3       9 GLL5        0.0000 
     90 CA         16.6940    3.9480   34.7140 C.3       6 GLP5        0.0000 
     91 CA          7.2793   11.0805   30.0110 C.3       3 GLC5        0.0000 
     92 CA          7.3530   10.0720   31.4120 C.3       9 GLL5        0.0000 
     93 CA          8.2658   10.3983   29.6040 C.3       3 GLC5        0.0000 
     94 CA          7.9300    9.0700   30.5500 C.3       9 GLL5        0.0000 
     95 CA          6.2879    8.3780   32.0485 C.3       3 GLC5        0.0000 
     96 CA          5.2760    7.0920   33.1270 C.3       6 GLP5        0.0000 
     97 CA         11.2618   11.2720   31.0515 C.3       3 GLC5        0.0000 
     98 CA          9.6390   10.4460   32.4700 C.3       9 GLL5        0.0000 
     99 CA         12.5980   12.6100   30.0820 C.3       6 GLP5        0.0000 
    100 CA          8.7304   10.9609   30.3193 C.3       3 GLC5        0.0000 
    101 CA         10.2120    9.4220   31.5720 C.3       9 GLL5        0.0000 
@<TRIPOS>BOND
@<TRIPOS>SUBSTRUCTURE
     1 ALC1       12 GROUP        1 X    ALC  0     ROOT ALC X 1
     2 SEC2       37 GROUP        1 X    SEC  0     **** SEC X 2
     3 GLC5        1 GROUP        1 X    GLC  0     **** GLC X 6
     4 ALP1       14 GROUP        1 Y    ALP  0     ROOT ALP Y 8
     5 SEP2       39 GROUP        1 Y    SEP  0     **** SEP Y 9
     6 GLP5        3 GROUP        1 Y    GLP  0     **** GLP Y 13
     7 ALL1       13 GROUP        1 Z    ALL  0     ROOT ALL Z 15
     8 SEL2       38 GROUP        1 Z    SEL  0     **** SEL Z 16
     9 GLL5        2 GROUP        1 Z    GLL  0     **** GLL Z 20
@<TRIPOS>SET

