#    Name: 2og8_1N8_2_ligand
#    Modification time : Tue Mar 25 22:30:55 2014

@<TRIPOS>MOLECULE
2og8_1N8_2_ligand
   73    76     1     0     0
SMALL
NO_CHARGES


@<TRIPOS>ATOM
      1 C22        10.9760    6.7360   27.5780 C.ar      1 1N8502      0.0000 
      2 C23        10.9700    5.3970   28.0950 C.ar      1 1N8502      0.0000 
      3 C11        10.4200    5.2140   29.4230 C.ar      1 1N8502      0.0000 
      4 C14        10.3640    3.8840   30.0520 C.2       1 1N8502      0.0000 
      5 N3         11.0890    2.8840   29.5090 N.am      1 1N8502      0.0000 
      6 C15        10.8540    1.5730   29.7150 C.ar      1 1N8502      0.0000 
      7 C20        11.9770    0.7160   29.8590 C.ar      1 1N8502      0.0000 
      8 C19        11.8400   -0.7150   30.0490 C.ar      1 1N8502      0.0000 
      9 C18        10.5280   -1.2460   30.1010 C.ar      1 1N8502      0.0000 
     10 C17         9.3650   -0.3770   29.9690 C.ar      1 1N8502      0.0000 
     11 C16         9.5090    1.0500   29.7670 C.ar      1 1N8502      0.0000 
     12 C21         7.9460   -1.0290   30.1160 C.3       1 1N8502      0.0000 
     13 F1          7.0140   -0.4090   29.4600 F         1 1N8502      0.0000 
     14 F2          7.9220   -2.2780   29.7300 F         1 1N8502      0.0000 
     15 F3          7.5790   -1.0340   31.3760 F         1 1N8502      0.0000 
     16 O1          9.6870    3.6950   31.0470 O.2       1 1N8502      0.0000 
     17 C12         9.8950    6.3050   30.2200 C.ar      1 1N8502      0.0000 
     18 C13         9.8990    7.6500   29.7050 C.ar      1 1N8502      0.0000 
     19 C24        10.4430    7.8180   28.3870 C.ar      1 1N8502      0.0000 
     20 C25        10.4890    9.1390   27.7230 C.3       1 1N8502      0.0000 
     21 N4         13.2340    1.3180   29.8520 N.am      1 1N8502      0.0000 
     22 C26        14.4820    0.7640   29.8470 C.2       1 1N8502      0.0000 
     23 C27        15.5200    1.5970   30.5870 C.3       1 1N8502      0.0000 
     24 N6         16.8930    1.0160   30.5960 N.4       1 1N8502      0.0000 
     25 C28        17.5850    1.4540   31.8360 C.3       1 1N8502      0.0000 
     26 C29        17.7580    1.6050   29.5340 C.3       1 1N8502      0.0000 
     27 C30        17.4760    0.3980   32.9460 C.3       1 1N8502      0.0000 
     28 C5         17.0510    1.6940   28.1760 C.3       1 1N8502      0.0000 
     29 N1          5.5150   11.4010   32.2000 N.ar      1 1N8502      0.0000 
     30 C2          5.9860   10.4440   31.3680 C.ar      1 1N8502      0.0000 
     31 C3          7.3530   10.0720   31.4120 C.ar      1 1N8502      0.0000 
     32 C4          8.2240   10.7850   32.4120 C.ar      1 1N8502      0.0000 
     33 N5          7.6460   11.7450   33.2220 N.ar      1 1N8502      0.0000 
     34 C6          6.3040   12.0380   33.1010 C.ar      1 1N8502      0.0000 
     35 C7          7.9300    9.0700   30.5500 C.ar      1 1N8502      0.0000 
     36 C8          9.3550    8.7170   30.6020 C.ar      1 1N8502      0.0000 
     37 C9         10.2120    9.4220   31.5720 C.ar      1 1N8502      0.0000 
     38 C10         9.6390   10.4460   32.4700 C.ar      1 1N8502      0.0000 
     39 N2          5.6760   12.9860   33.8280 N.pl3     1 1N8502      0.0000 
     40 C1          6.3630   13.8290   34.8180 C.3       1 1N8502      0.0000 
     41 O2         14.7640   -0.3090   29.3060 O.2       1 1N8502      0.0000 
     42 H          11.3455    6.9316   26.6618 H         1 1N8502      0.0000 
     43 H          11.3218    4.6339   27.5764 H         1 1N8502      0.0000 
     44 H          11.9082    3.1513   28.8698 H         1 1N8502      0.0000 
     45 H          12.6489   -1.2902   30.1380 H         1 1N8502      0.0000 
     46 H          10.3763   -2.2450   30.2316 H         1 1N8502      0.0000 
     47 H           8.7206    1.6378   29.6693 H         1 1N8502      0.0000 
     48 H           9.5243    6.1163   31.1434 H         1 1N8502      0.0000 
     49 H          13.2057    2.4243   29.8503 H         1 1N8502      0.0000 
     50 H          15.1709    1.7438   31.6306 H         1 1N8502      0.0000 
     51 H          15.5466    2.6084   30.1302 H         1 1N8502      0.0000 
     52 H          16.8912   -0.0241   30.5373 H         1 1N8502      0.0000 
     53 H          17.1482    2.3885   32.2056 H         1 1N8502      0.0000 
     54 H          18.6470    1.6345   31.6354 H         1 1N8502      0.0000 
     55 H          18.6687    0.9996   29.4110 H         1 1N8502      0.0000 
     56 H          18.0761    2.6173   29.8255 H         1 1N8502      0.0000 
     57 H           5.3723    9.9669   30.6898 H         1 1N8502      0.0000 
     58 H           7.3355    8.5818   29.8751 H         1 1N8502      0.0000 
     59 H          11.1900    9.2066   31.6241 H         1 1N8502      0.0000 
     60 H          10.2447   10.9120   33.1299 H         1 1N8502      0.0000 
     61 H           4.6517   13.1682   33.7185 H         1 1N8502      0.0000 
     62 H          11.4240    9.4037   27.4870 H         1 1N8502      0.0000 
     63 H           9.9592    9.1470   26.8749 H         1 1N8502      0.0000 
     64 H          10.1184    9.8613   28.3069 H         1 1N8502      0.0000 
     65 H          17.8855   -0.4723   32.6722 H         1 1N8502      0.0000 
     66 H          17.9394    0.6896   33.7828 H         1 1N8502      0.0000 
     67 H          16.5240    0.2106   33.1882 H         1 1N8502      0.0000 
     68 H          17.6416    2.0944   27.4753 H         1 1N8502      0.0000 
     69 H          16.7707    0.7935   27.8435 H         1 1N8502      0.0000 
     70 H          16.2271    2.2588   28.2225 H         1 1N8502      0.0000 
     71 H           6.7791   13.2835   35.5455 H         1 1N8502      0.0000 
     72 H           7.0944   14.3694   34.4020 H         1 1N8502      0.0000 
     73 H           5.7360   14.4728   35.2566 H         1 1N8502      0.0000 
@<TRIPOS>BOND
     1    2    1 ar   
     2   19    1 ar   
     3   42    1 1    
     4    3    2 ar   
     5   43    2 1    
     6    4    3 1    
     7   17    3 ar   
     8    5    4 am   
     9   16    4 2    
    10    6    5 1    
    11   44    5 1    
    12    7    6 ar   
    13   11    6 ar   
    14    8    7 ar   
    15   21    7 1    
    16    9    8 ar   
    17   45    8 1    
    18   10    9 ar   
    19   46    9 1    
    20   11   10 ar   
    21   12   10 1    
    22   47   11 1    
    23   13   12 1    
    24   14   12 1    
    25   15   12 1    
    26   18   17 ar   
    27   48   17 1    
    28   19   18 ar   
    29   36   18 1    
    30   20   19 1    
    31   62   20 1    
    32   63   20 1    
    33   64   20 1    
    34   22   21 am   
    35   49   21 1    
    36   23   22 1    
    37   41   22 2    
    38   24   23 1    
    39   50   23 1    
    40   51   23 1    
    41   25   24 1    
    42   26   24 1    
    43   52   24 1    
    44   27   25 1    
    45   53   25 1    
    46   54   25 1    
    47   28   26 1    
    48   55   26 1    
    49   56   26 1    
    50   65   27 1    
    51   66   27 1    
    52   67   27 1    
    53   68   28 1    
    54   69   28 1    
    55   70   28 1    
    56   30   29 ar   
    57   34   29 ar   
    58   31   30 ar   
    59   57   30 1    
    60   32   31 ar   
    61   35   31 ar   
    62   33   32 ar   
    63   38   32 ar   
    64   34   33 ar   
    65   39   34 1    
    66   36   35 ar   
    67   58   35 1    
    68   37   36 ar   
    69   38   37 ar   
    70   59   37 1    
    71   60   38 1    
    72   40   39 1    
    73   61   39 1    
    74   71   40 1    
    75   72   40 1    
    76   73   40 1    
@<TRIPOS>SUBSTRUCTURE
     1 1N8502      1 GROUP   
@<TRIPOS>SET

