#    Name: 4o0x_2OQ_1_INTS_M
#    Modification time : Tue Mar 25 13:26:27 2014

@<TRIPOS>MOLECULE
4o0x_2OQ_1_INTS_M
   82     0     9     0     0
SMALL
NO_CHARGES


@<TRIPOS>ATOM
      1 CA        -18.7815   -5.2295   15.0615 C.3       3 GLC5        0.0000 
      2 CA        -18.7850   -4.1390   13.3680 C.3       9 GLL5        0.0000 
      3 CA        -18.7780   -6.3200   16.7550 C.3       6 GLP5        0.0000 
      4 CA        -16.7225   -4.6665   13.1400 C.3       3 GLC5        0.0000 
      5 CA        -14.6600   -5.1940   12.9120 C.3       6 GLP5        0.0000 
      6 CA        -18.0930   -3.4460   15.3005 C.3       3 GLC5        0.0000 
      7 CA        -17.4010   -2.7530   17.2330 C.3       6 GLP5        0.0000 
      8 CA        -16.6195    1.0525   12.6315 C.3       3 GLC5        0.0000 
      9 CA        -18.4310    0.8000   13.3950 C.3       9 GLL5        0.0000 
     10 CA        -14.8080    1.3050   11.8680 C.3       6 GLP5        0.0000 
     11 CA        -17.5955    3.1335   14.8375 C.3       3 GLC5        0.0000 
     12 CA        -19.0730    1.8230   14.0190 C.3       9 GLL5        0.0000 
     13 CA        -16.1180    4.4440   15.6560 C.3       6 GLP5        0.0000 
     14 CA        -19.8595   -4.6055   16.0485 C.3       3 GLC5        0.0000 
     15 CA        -20.9410   -2.8910   15.3420 C.3       9 GLL5        0.0000 
     16 CA        -19.1710   -2.8220   16.2875 C.3       3 GLC5        0.0000 
     17 CA        -22.4570   -2.4680   14.6235 C.3       3 GLC5        0.0000 
     18 CA        -23.9730   -2.0450   13.9050 C.3       6 GLP5        0.0000 
     19 CA        -21.4200   -3.1370   18.7040 C.3       3 GLC5        0.0000 
     20 CA        -22.3260   -2.9950   17.1910 C.3       9 GLL5        0.0000 
     21 CA        -20.5140   -3.2790   20.2170 C.3       6 GLP5        0.0000 
     22 CA        -23.3290   -4.0180   18.7990 C.3       3 GLC5        0.0000 
     23 CA        -24.3320   -5.0410   20.4070 C.3       6 GLP5        0.0000 
     24 CA        -24.5100   -2.8420   17.2795 C.3       3 GLC5        0.0000 
     25 CA        -26.6940   -2.6890   17.3680 C.3       6 GLP5        0.0000 
     26 CA        -23.1495   -2.5200   15.5480 C.3       3 GLC5        0.0000 
     27 N         -23.9970   -4.7875   17.5050 N.am      2 SEC2        0.0000 
     28 N         -22.7440   -4.1970   16.8300 N.am      8 SEL2        0.0000 
     29 N         -25.2500   -5.3780   18.1800 N.am      5 SEP2        0.0000 
     30 CA        -20.5220   -5.5360   16.2345 C.3       3 GLC5        0.0000 
     31 CA        -22.2660   -4.7520   15.7140 C.3       9 GLL5        0.0000 
     32 CA        -24.2925   -4.7850   15.8705 C.3       3 GLC5        0.0000 
     33 CA        -26.3190   -4.8180   16.0270 C.3       6 GLP5        0.0000 
     34 CA        -23.1195   -3.3985   14.8095 C.3       3 GLC5        0.0000 
     35 O         -23.8400   -6.6490   15.5210 O.2       1 ALC1        0.0000 
     36 O         -22.6970   -6.0070   15.3130 O.2       7 ALL1        0.0000 
     37 O         -24.9830   -7.2910   15.7290 O.2       4 ALP1        0.0000 
     38 CA        -18.7480    3.2905   16.2395 C.3       3 GLC5        0.0000 
     39 CA        -20.7700    2.6850   15.5470 C.3       9 GLL5        0.0000 
     40 CA        -16.7260    3.8960   16.9320 C.3       6 GLP5        0.0000 
     41 CA        -24.1865    3.7025   14.6905 C.3       3 GLC5        0.0000 
     42 CA        -23.4610    4.5300   16.6490 C.3       9 GLL5        0.0000 
     43 CA        -24.9120    2.8750   12.7320 C.3       6 GLP5        0.0000 
     44 CA        -24.0795    8.0445   18.7895 C.3       3 GLC5        0.0000 
     45 CA        -23.7330    5.9220   18.6830 C.3       9 GLL5        0.0000 
     46 CA        -24.4260   10.1670   18.8960 C.3       6 GLP5        0.0000 
     47 N         -21.7115    6.3550   14.6285 N.am      2 SEC2        0.0000 
     48 N         -21.6600    5.9580   15.9930 N.am      8 SEL2        0.0000 
     49 N         -21.7630    6.7520   13.2640 N.am      5 SEP2        0.0000 
     50 O         -20.3560    6.2955   15.9675 O.2       1 ALC1        0.0000 
     51 O         -21.6600    5.9580   15.9930 O.2       7 ALL1        0.0000 
     52 O         -19.0520    6.6330   15.9420 O.2       4 ALP1        0.0000 
     53 CA        -19.7005    2.5042   12.6135 C.3       3 GLC5        0.0000 
     54 CA        -20.6490    3.6970   11.5200 C.3       6 GLP5        0.0000 
     55 CA        -17.5798    0.0269   14.8339 C.3       3 GLC5        0.0000 
     56 CA        -16.3110   -0.9270   15.8990 C.3       6 GLP5        0.0000 
     57 CA        -20.0715    1.0125   17.0433 C.3       3 GLC5        0.0000 
     58 CA        -20.5130    0.2580   15.1750 C.3       9 GLL5        0.0000 
     59 CA        -19.8260    1.1100   19.0420 C.3       6 GLP5        0.0000 
     60 CA        -20.9307    3.2778   13.9273 C.3       3 GLC5        0.0000 
     61 CA        -20.1210    1.5720   14.9140 C.3       9 GLL5        0.0000 
     62 CA        -21.4160    4.4270   12.6240 C.3       6 GLP5        0.0000 
     63 CA        -18.2500   -0.5990   15.3785 C.3       3 GLC5        0.0000 
     64 CA        -22.0810   -1.1580   14.3815 C.3       3 GLC5        0.0000 
     65 CA        -19.8650   -0.8000   14.5410 C.3       9 GLL5        0.0000 
     66 CA        -21.3218    2.1675   17.4258 C.3       3 GLC5        0.0000 
     67 CA        -21.6110    1.1930   19.0440 C.3       6 GLP5        0.0000 
     68 CA        -21.5200    4.3025   14.5045 C.3       3 GLC5        0.0000 
     69 CA        -21.2950    3.5990   16.0680 C.3       9 GLL5        0.0000 
     70 CA        -21.6695    3.0130   18.2392 C.3       3 GLC5        0.0000 
     71 CA        -21.5030    4.9090   18.1670 C.3       9 GLL5        0.0000 
     72 CA        -25.0365    3.4837   16.9552 C.3       3 GLC5        0.0000 
     73 CA        -26.2540    1.8290   16.9690 C.3       6 GLP5        0.0000 
     74 CA        -24.2710    6.0702   15.4083 C.3       3 GLC5        0.0000 
     75 CA        -24.7230    7.0020   13.8750 C.3       6 GLP5        0.0000 
     76 CA        -23.5728    5.9058   20.5525 C.3       3 GLC5        0.0000 
     77 CA        -24.1700    5.7820   22.3940 C.3       6 GLP5        0.0000 
     78 CA        -20.9185    7.0895   17.4599 C.3       3 GLC5        0.0000 
     79 CA        -22.2180    6.1370   18.7390 C.3       9 GLL5        0.0000 
     80 CA        -19.8640    8.6940   16.8330 C.3       6 GLP5        0.0000 
     81 CA        -20.7882    5.2435   20.1345 C.3       3 GLC5        0.0000 
     82 CA        -19.7160    4.9640   21.8160 C.3       6 GLP5        0.0000 
@<TRIPOS>BOND
@<TRIPOS>SUBSTRUCTURE
     1 ALC1       35 GROUP        1 X    ALC  0     ROOT ALC X 1
     2 SEC2       27 GROUP        1 X    SEC  0     **** SEC X 2
     3 GLC5        1 GROUP        1 X    GLC  0     **** GLC X 6
     4 ALP1       37 GROUP        1 Y    ALP  0     ROOT ALP Y 8
     5 SEP2       29 GROUP        1 Y    SEP  0     **** SEP Y 9
     6 GLP5        3 GROUP        1 Y    GLP  0     **** GLP Y 13
     7 ALL1       36 GROUP        1 Z    ALL  0     ROOT ALL Z 15
     8 SEL2       28 GROUP        1 Z    SEL  0     **** SEL Z 16
     9 GLL5        2 GROUP        1 Z    GLL  0     **** GLL Z 20
@<TRIPOS>SET

