#    Name: 4o0x_2OQ_1_ligand
#    Modification time : Tue Mar 25 13:26:27 2014

@<TRIPOS>MOLECULE
4o0x_2OQ_1_ligand
   46    49     1     0     0
SMALL
NO_CHARGES


@<TRIPOS>ATOM
      1 C1        -18.7850   -4.1390   13.3680 C.3       1 2OQ601      0.0000 
      2 C2        -19.0560   -2.6900   13.7020 C.2       1 2OQ601      0.0000 
      3 N3        -18.3740   -1.7150   13.1770 N.2       1 2OQ601      0.0000 
      4 C4        -18.8170   -0.5230   13.6420 C.ar      1 2OQ601      0.0000 
      5 C5        -18.4310    0.8000   13.3950 C.ar      1 2OQ601      0.0000 
      6 C6        -19.0730    1.8230   14.0190 C.ar      1 2OQ601      0.0000 
      7 C7        -20.1210    1.5720   14.9140 C.ar      1 2OQ601      0.0000 
      8 C8        -20.5130    0.2580   15.1750 C.ar      1 2OQ601      0.0000 
      9 C9        -19.8650   -0.8000   14.5410 C.ar      1 2OQ601      0.0000 
     10 N10       -20.0030   -2.1890   14.5700 N.pl3     1 2OQ601      0.0000 
     11 C11       -20.9410   -2.8910   15.3420 C.ar      1 2OQ601      0.0000 
     12 N12       -21.4330   -2.3500   16.4560 N.ar      1 2OQ601      0.0000 
     13 C13       -22.3260   -2.9950   17.1910 C.ar      1 2OQ601      0.0000 
     14 N14       -22.7440   -4.1970   16.8300 N.ar      1 2OQ601      0.0000 
     15 C15       -22.2660   -4.7520   15.7140 C.ar      1 2OQ601      0.0000 
     16 N16       -21.3700   -4.0930   14.9820 N.ar      1 2OQ601      0.0000 
     17 N17       -22.6970   -6.0070   15.3130 N.pl3     1 2OQ601      0.0000 
     18 C18       -20.7700    2.6850   15.5470 C.1       1 2OQ601      0.0000 
     19 C19       -21.2950    3.5990   16.0680 C.1       1 2OQ601      0.0000 
     20 C20       -21.9530    4.7570   16.7020 C.3       1 2OQ601      0.0000 
     21 C21       -23.4610    4.5300   16.6490 C.3       1 2OQ601      0.0000 
     22 C22       -24.1770    5.7470   17.2340 C.3       1 2OQ601      0.0000 
     23 C23       -23.7330    5.9220   18.6830 C.3       1 2OQ601      0.0000 
     24 C24       -22.2180    6.1370   18.7390 C.3       1 2OQ601      0.0000 
     25 C25       -21.5030    4.9090   18.1670 C.3       1 2OQ601      0.0000 
     26 O26       -21.6600    5.9580   15.9930 O.3       1 2OQ601      0.0000 
     27 H         -17.6572    0.9795   12.7363 H         1 2OQ601      0.0000 
     28 H         -18.7972    2.8073   13.8426 H         1 2OQ601      0.0000 
     29 H         -21.2782    0.0725   15.8337 H         1 2OQ601      0.0000 
     30 H         -22.7043   -2.5489   18.0659 H         1 2OQ601      0.0000 
     31 H         -23.6499   -6.2311   15.5174 H         1 2OQ601      0.0000 
     32 H         -22.0178   -6.5797   14.8540 H         1 2OQ601      0.0000 
     33 H         -23.7141    3.6516   17.2290 H         1 2OQ601      0.0000 
     34 H         -23.7691    4.3925   15.6203 H         1 2OQ601      0.0000 
     35 H         -25.2439    5.5863   17.2003 H         1 2OQ601      0.0000 
     36 H         -23.9122    6.6264   16.6666 H         1 2OQ601      0.0000 
     37 H         -23.9890    5.0335   19.2493 H         1 2OQ601      0.0000 
     38 H         -24.2323    6.7834   19.1125 H         1 2OQ601      0.0000 
     39 H         -21.9138    6.2820   19.7680 H         1 2OQ601      0.0000 
     40 H         -21.9573    7.0092   18.1526 H         1 2OQ601      0.0000 
     41 H         -20.4420    5.0619   18.1985 H         1 2OQ601      0.0000 
     42 H         -21.7892    4.0351   18.7188 H         1 2OQ601      0.0000 
     43 H         -17.8511   -4.4065   13.6054 H         1 2OQ601      0.0000 
     44 H         -19.4003   -4.7549   13.8600 H         1 2OQ601      0.0000 
     45 H         -18.9038   -4.3238   12.3924 H         1 2OQ601      0.0000 
     46 H         -20.6752    6.0909   16.1052 H         1 2OQ601      0.0000 
@<TRIPOS>BOND
     1    2    1 1    
     2   43    1 1    
     3   44    1 1    
     4   45    1 1    
     5    3    2 2    
     6   10    2 1    
     7    4    3 1    
     8    5    4 ar   
     9    9    4 ar   
    10    6    5 ar   
    11   27    5 1    
    12    7    6 ar   
    13   28    6 1    
    14    8    7 ar   
    15   18    7 1    
    16    9    8 ar   
    17   29    8 1    
    18   10    9 1    
    19   11   10 1    
    20   12   11 ar   
    21   16   11 ar   
    22   13   12 ar   
    23   14   13 ar   
    24   30   13 1    
    25   15   14 ar   
    26   16   15 ar   
    27   17   15 1    
    28   31   17 1    
    29   32   17 1    
    30   19   18 3    
    31   20   19 1    
    32   21   20 1    
    33   25   20 1    
    34   26   20 1    
    35   22   21 1    
    36   33   21 1    
    37   34   21 1    
    38   23   22 1    
    39   35   22 1    
    40   36   22 1    
    41   24   23 1    
    42   37   23 1    
    43   38   23 1    
    44   25   24 1    
    45   39   24 1    
    46   40   24 1    
    47   41   25 1    
    48   42   25 1    
    49   46   26 1    
@<TRIPOS>SUBSTRUCTURE
     1 2OQ601      1 GROUP   
@<TRIPOS>SET

