#    Name: 2e9n_76A_1_INTS_M
#    Modification time : Tue Mar 25 10:46:17 2014

@<TRIPOS>MOLECULE
2e9n_76A_1_INTS_M
   65     0     9     0     0
SMALL
NO_CHARGES


@<TRIPOS>ATOM
      1 N         -14.6610   10.3150  -14.3930 N.am      2 SEC2        0.0000 
      2 N         -13.4960    9.4900  -13.8670 N.am      8 SEL2        0.0000 
      3 N         -15.8260   11.1400  -14.9190 N.am      5 SEP2        0.0000 
      4 N         -12.8945    9.5550  -12.6370 N.am      2 SEC2        0.0000 
      5 N         -12.2930    9.6200  -11.4070 N.am      5 SEP2        0.0000 
      6 O         -13.8705    8.1710  -14.3165 O.2       1 ALC1        0.0000 
      7 O         -13.4960    9.4900  -13.8670 O.2       7 ALL1        0.0000 
      8 O         -14.2450    6.8520  -14.7660 O.2       4 ALP1        0.0000 
      9 CA        -14.2800    8.5410  -14.1505 C.3       3 GLC5        0.0000 
     10 CA        -12.2860    9.4560  -14.5480 C.3       9 GLL5        0.0000 
     11 CA        -16.2740    7.6260  -13.7530 C.3       6 GLP5        0.0000 
     12 CA        -12.8265    9.6425  -12.5035 C.3       3 GLC5        0.0000 
     13 CA        -13.3670    9.8290  -10.4590 C.3       6 GLP5        0.0000 
     14 CA         -9.7300   12.4345  -16.6445 C.3       3 GLC5        0.0000 
     15 CA        -10.3660   10.6880  -15.6600 C.3       9 GLL5        0.0000 
     16 CA         -9.0940   14.1810  -17.6290 C.3       6 GLP5        0.0000 
     17 CA         -6.6190    7.1560  -19.3115 C.3       3 GLC5        0.0000 
     18 CA         -6.1180    8.3060  -17.6850 C.3       9 GLL5        0.0000 
     19 CA         -7.1200    6.0060  -20.9380 C.3       6 GLP5        0.0000 
     20 CA         -9.9395    9.5550  -17.9495 C.3       3 GLC5        0.0000 
     21 CA         -8.2980    9.4160  -16.8020 C.3       9 GLL5        0.0000 
     22 CA        -11.5810    9.6940  -19.0970 C.3       6 GLP5        0.0000 
     23 CA         -9.3675   11.2870  -18.7385 C.3       3 GLC5        0.0000 
     24 CA         -7.8550   10.6720  -17.4560 C.3       9 GLL5        0.0000 
     25 CA        -10.8800   11.9020  -20.0210 C.3       6 GLP5        0.0000 
     26 CA         -1.4325    9.8795  -16.6135 C.3       3 GLC5        0.0000 
     27 CA         -0.9940    8.6030  -18.3890 C.3       9 GLL5        0.0000 
     28 CA         -1.8710   11.1560  -14.8380 C.3       6 GLP5        0.0000 
     29 CA         -0.9210    8.7375  -21.7110 C.3       3 GLC5        0.0000 
     30 CA          0.3570    9.6330  -20.3260 C.3       9 GLL5        0.0000 
     31 CA         -2.1990    7.8420  -23.0960 C.3       6 GLP5        0.0000 
     32 CA          2.0150   10.0140  -18.1155 C.3       3 GLC5        0.0000 
     33 CA          1.5530    8.1490  -18.5110 C.3       9 GLL5        0.0000 
     34 CA          2.4770   11.8790  -17.7200 C.3       6 GLP5        0.0000 
     35 CA         -8.5145   11.0493  -14.8087 C.3       3 GLC5        0.0000 
     36 CA         -9.6580    9.3950  -16.0270 C.3       9 GLL5        0.0000 
     37 CA         -7.0170   12.0570  -13.7740 C.3       6 GLP5        0.0000 
     38 CA        -10.0010    8.9992  -13.9573 C.3       3 GLC5        0.0000 
     39 CA        -10.0050    9.2380  -12.0950 C.3       6 GLP5        0.0000 
     40 CA        -11.2497    6.5640  -16.3332 C.3       3 GLC5        0.0000 
     41 CA        -10.3360    8.1260  -15.6120 C.3       9 GLL5        0.0000 
     42 CA        -11.5190    4.9860  -17.4170 C.3       6 GLP5        0.0000 
     43 CA        -11.1960    9.0766  -17.2251 C.3       3 GLC5        0.0000 
     44 CA        -11.6250    8.1580  -14.8870 C.3       9 GLL5        0.0000 
     45 CA        -10.9803    9.0225  -13.4062 C.3       3 GLC5        0.0000 
     46 CA        -10.5043    9.9685  -13.6980 C.3       3 GLC5        0.0000 
     47 CA        -11.6410   10.7100  -14.9420 C.3       9 GLL5        0.0000 
     48 CA        -11.9354   11.0993  -16.7658 C.3       3 GLC5        0.0000 
     49 CA        -12.7060   11.8130  -18.3290 C.3       6 GLP5        0.0000 
     50 CA         -6.6290   10.1805  -20.3925 C.3       3 GLC5        0.0000 
     51 CA         -6.6180   10.7760  -18.1890 C.3       9 GLL5        0.0000 
     52 CA         -7.0920   10.1660  -22.5250 C.3       6 GLP5        0.0000 
     53 CA         -4.8670   10.3345  -17.1415 C.3       3 GLC5        0.0000 
     54 CA         -5.7140    9.6140  -18.3310 C.3       9 GLL5        0.0000 
     55 CA         -3.8180   11.7090  -16.2750 C.3       6 GLP5        0.0000 
     56 CA         -7.5468   11.0505  -15.4515 C.3       3 GLC5        0.0000 
     57 CA         -8.1653   12.4525  -17.7257 C.3       3 GLC5        0.0000 
     58 CA         -5.5273   11.2165  -17.0487 C.3       3 GLC5        0.0000 
     59 CA         -1.8890    8.7450  -21.4183 C.3       3 GLC5        0.0000 
     60 CA         -2.2310    9.8610  -19.8500 C.3       9 GLL5        0.0000 
     61 CA         -3.1644   10.4036  -17.4570 C.3       3 GLC5        0.0000 
     62 CA         -2.3500    8.5850  -17.9410 C.3       9 GLL5        0.0000 
     63 CA          1.7308   10.5965  -18.8855 C.3       3 GLC5        0.0000 
     64 CA          0.7591    8.4520  -16.4224 C.3       3 GLC5        0.0000 
     65 CA          0.9360    8.6850  -14.5300 C.3       6 GLP5        0.0000 
@<TRIPOS>BOND
@<TRIPOS>SUBSTRUCTURE
     1 ALC1        6 GROUP        1 X    ALC  0     ROOT ALC X 1
     2 SEC2        1 GROUP        1 X    SEC  0     **** SEC X 2
     3 GLC5        9 GROUP        1 X    GLC  0     **** GLC X 6
     4 ALP1        8 GROUP        1 Y    ALP  0     ROOT ALP Y 8
     5 SEP2        3 GROUP        1 Y    SEP  0     **** SEP Y 9
     6 GLP5       11 GROUP        1 Y    GLP  0     **** GLP Y 13
     7 ALL1        7 GROUP        1 Z    ALL  0     ROOT ALL Z 15
     8 SEL2        2 GROUP        1 Z    SEL  0     **** SEL Z 16
     9 GLL5       10 GROUP        1 Z    GLL  0     **** GLL Z 20
@<TRIPOS>SET

