#    Name: 2e9n_76A_1_ligand
#    Modification time : Tue Mar 25 10:46:17 2014

@<TRIPOS>MOLECULE
2e9n_76A_1_ligand
   62    67     1     0     0
SMALL
NO_CHARGES


@<TRIPOS>ATOM
      1 O1        -13.4960    9.4900  -13.8670 O.3       1 76A1001     0.0000 
      2 C2         -9.6580    9.3950  -16.0270 C.ar      1 76A1001     0.0000 
      3 C3        -10.3360    8.1260  -15.6120 C.ar      1 76A1001     0.0000 
      4 C4        -11.6250    8.1580  -14.8870 C.ar      1 76A1001     0.0000 
      5 C5        -12.2860    9.4560  -14.5480 C.ar      1 76A1001     0.0000 
      6 C6        -11.6410   10.7100  -14.9420 C.ar      1 76A1001     0.0000 
      7 C7        -10.3660   10.6880  -15.6600 C.ar      1 76A1001     0.0000 
      8 C8         -5.7140    9.6140  -18.3310 C.ar      1 76A1001     0.0000 
      9 C9         -6.1180    8.3060  -17.6850 C.ar      1 76A1001     0.0000 
     10 C10        -7.3940    8.2220  -16.9350 C.ar      1 76A1001     0.0000 
     11 C11        -8.2980    9.4160  -16.8020 C.ar      1 76A1001     0.0000 
     12 C12        -7.8550   10.6720  -17.4560 C.ar      1 76A1001     0.0000 
     13 C13        -6.6180   10.7760  -18.1890 C.ar      1 76A1001     0.0000 
     14 C14        -4.4200    9.8530  -19.1240 C.2       1 76A1001     0.0000 
     15 N15        -4.2420   10.5910  -20.2580 N.2       1 76A1001     0.0000 
     16 N16        -2.9630   10.6280  -20.7230 N.pl3     1 76A1001     0.0000 
     17 C17        -2.2310    9.8610  -19.8500 C.2       1 76A1001     0.0000 
     18 C18        -3.1120    9.3620  -18.8240 C.2       1 76A1001     0.0000 
     19 C19        -0.9270    9.4350  -19.6310 C.ar      1 76A1001     0.0000 
     20 C20        -0.9940    8.6030  -18.3890 C.ar      1 76A1001     0.0000 
     21 C21        -2.3500    8.5850  -17.9410 C.3       1 76A1001     0.0000 
     22 C22         0.3570    9.6330  -20.3260 C.ar      1 76A1001     0.0000 
     23 C23         1.6120    8.9950  -19.7760 C.ar      1 76A1001     0.0000 
     24 C24         1.5530    8.1490  -18.5110 C.ar      1 76A1001     0.0000 
     25 C25         0.2170    7.9750  -17.8480 C.ar      1 76A1001     0.0000 
     26 C26         2.7020    7.5290  -17.9170 C.2       1 76A1001     0.0000 
     27 N27         3.5980    6.8640  -18.7560 N.am      1 76A1001     0.0000 
     28 O28         2.9080    7.5990  -16.6860 O.2       1 76A1001     0.0000 
     29 C29         4.8400    6.2040  -18.2460 C.3       1 76A1001     0.0000 
     30 C30         4.9170    4.6690  -18.5860 C.3       1 76A1001     0.0000 
     31 C31         6.2470    3.9840  -18.0630 C.3       1 76A1001     0.0000 
     32 C32         7.6020    4.7180  -18.4660 C.3       1 76A1001     0.0000 
     33 C33         7.4890    6.3300  -18.2950 C.3       1 76A1001     0.0000 
     34 C34         6.1300    6.9430  -18.8160 C.3       1 76A1001     0.0000 
     35 O35         8.6830    4.2490  -17.5860 O.3       1 76A1001     0.0000 
     36 H          -9.9052    7.2487  -15.8316 H         1 76A1001     0.0000 
     37 H         -12.0682    7.2996  -14.6155 H         1 76A1001     0.0000 
     38 H         -12.0755   11.5886  -14.7185 H         1 76A1001     0.0000 
     39 H          -9.9198   11.5566  -15.9330 H         1 76A1001     0.0000 
     40 H          -5.5240    7.5189  -17.7707 H         1 76A1001     0.0000 
     41 H          -7.6669    7.3578  -16.5057 H         1 76A1001     0.0000 
     42 H          -8.4663   11.4906  -17.3732 H         1 76A1001     0.0000 
     43 H          -6.3491   11.6528  -18.6200 H         1 76A1001     0.0000 
     44 H          -2.6410   11.0812  -21.4816 H         1 76A1001     0.0000 
     45 H          -2.7209    7.5463  -17.9070 H         1 76A1001     0.0000 
     46 H          -2.4114    8.9800  -16.9125 H         1 76A1001     0.0000 
     47 H           0.4150   10.1794  -21.1520 H         1 76A1001     0.0000 
     48 H           2.4773    9.1245  -20.2358 H         1 76A1001     0.0000 
     49 H           0.1659    7.4117  -17.0136 H         1 76A1001     0.0000 
     50 H           3.4350    6.8024  -19.7706 H         1 76A1001     0.0000 
     51 H           4.8936    6.3001  -17.1606 H         1 76A1001     0.0000 
     52 H           4.8679    4.5452  -19.6650 H         1 76A1001     0.0000 
     53 H           4.0685    4.1651  -18.1299 H         1 76A1001     0.0000 
     54 H           6.2854    2.9589  -18.4505 H         1 76A1001     0.0000 
     55 H           6.2015    3.9273  -16.9689 H         1 76A1001     0.0000 
     56 H           7.8115    4.5187  -19.4835 H         1 76A1001     0.0000 
     57 H           8.3167    6.7752  -18.8428 H         1 76A1001     0.0000 
     58 H           7.6015    6.5547  -17.2366 H         1 76A1001     0.0000 
     59 H           6.0819    7.9895  -18.5223 H         1 76A1001     0.0000 
     60 H           6.1092    6.8776  -19.9018 H         1 76A1001     0.0000 
     61 H         -13.9417    8.6225  -14.0880 H         1 76A1001     0.0000 
     62 H           9.5042    4.2602  -18.1565 H         1 76A1001     0.0000 
@<TRIPOS>BOND
     1    5    1 1    
     2   61    1 1    
     3    3    2 ar   
     4    7    2 ar   
     5   11    2 1    
     6    4    3 ar   
     7   36    3 1    
     8    5    4 ar   
     9   37    4 1    
    10    6    5 ar   
    11    7    6 ar   
    12   38    6 1    
    13   39    7 1    
    14    9    8 ar   
    15   13    8 ar   
    16   14    8 1    
    17   10    9 ar   
    18   40    9 1    
    19   11   10 ar   
    20   41   10 1    
    21   12   11 ar   
    22   13   12 ar   
    23   42   12 1    
    24   43   13 1    
    25   15   14 2    
    26   18   14 1    
    27   16   15 1    
    28   17   16 1    
    29   44   16 1    
    30   18   17 2    
    31   19   17 1    
    32   21   18 1    
    33   20   19 ar   
    34   22   19 ar   
    35   21   20 1    
    36   25   20 ar   
    37   45   21 1    
    38   46   21 1    
    39   23   22 ar   
    40   47   22 1    
    41   24   23 ar   
    42   48   23 1    
    43   25   24 ar   
    44   26   24 1    
    45   49   25 1    
    46   27   26 am   
    47   28   26 2    
    48   29   27 1    
    49   50   27 1    
    50   30   29 1    
    51   34   29 1    
    52   51   29 1    
    53   31   30 1    
    54   52   30 1    
    55   53   30 1    
    56   32   31 1    
    57   54   31 1    
    58   55   31 1    
    59   33   32 1    
    60   35   32 1    
    61   56   32 1    
    62   34   33 1    
    63   57   33 1    
    64   58   33 1    
    65   59   34 1    
    66   60   34 1    
    67   62   35 1    
@<TRIPOS>SUBSTRUCTURE
     1 76A1001     1 GROUP   
@<TRIPOS>SET

