#    Name: 2uuk_897_1_INTS_M
#    Modification time : Tue Mar 25 00:12:39 2014

@<TRIPOS>MOLECULE
2uuk_897_1_INTS_M
   68     0     9     0     0
SMALL
NO_CHARGES


@<TRIPOS>ATOM
      1 CA         10.0340   21.1020   52.6575 C.3       3 GLC5        0.0000 
      2 CA          8.8930   21.6070   51.1840 C.3       9 GLL5        0.0000 
      3 CA         11.1750   20.5970   54.1310 C.3       6 GLP5        0.0000 
      4 O           7.3330   23.3535   48.6645 O.2       1 ALC1        0.0000 
      5 O           8.3190   22.3320   48.9040 O.2       7 ALL1        0.0000 
      6 O           6.3470   24.3750   48.4250 O.2       4 ALP1        0.0000 
      7 CA         12.3250   23.4890   48.0295 C.3       3 GLC5        0.0000 
      8 CA         11.5220   21.6940   47.1730 C.3       9 GLL5        0.0000 
      9 CA         13.1280   25.2840   48.8860 C.3       6 GLP5        0.0000 
     10 O          12.7780   23.0295   45.8705 O.2       1 ALC1        0.0000 
     11 O          11.5070   22.8390   46.4700 O.2       7 ALL1        0.0000 
     12 O          14.0490   23.2200   45.2710 O.2       4 ALP1        0.0000 
     13 CA         10.7050   23.7440   44.6700 C.3       3 GLC5        0.0000 
     14 CA         10.5580   23.8100   46.3980 C.3       9 GLL5        0.0000 
     15 CA         10.8520   23.6780   42.9420 C.3       6 GLP5        0.0000 
     16 N           6.6575   20.6935   47.5235 N.am      2 SEC2        0.0000 
     17 N           6.1120   20.4270   49.0280 N.am      8 SEL2        0.0000 
     18 N           7.2030   20.9600   46.0190 N.am      5 SEP2        0.0000 
     19 CA          5.1570   21.3160   47.8140 C.3       3 GLC5        0.0000 
     20 CA          4.8020   20.0280   49.1480 C.3       9 GLL5        0.0000 
     21 CA          5.5120   22.6040   46.4800 C.3       6 GLP5        0.0000 
     22 CA          4.0640   21.2315   48.0155 C.3       3 GLC5        0.0000 
     23 CA          3.9080   20.4880   50.0860 C.3       9 GLL5        0.0000 
     24 CA          4.2200   21.9750   45.9450 C.3       6 GLP5        0.0000 
     25 CA          0.3010   19.6970   52.0550 C.3       3 GLC5        0.0000 
     26 CA          1.6290   20.5900   51.1570 C.3       9 GLL5        0.0000 
     27 CA         -1.0270   18.8040   52.9530 C.3       6 GLP5        0.0000 
     28 CA          2.4610   19.3295   52.1855 C.3       3 GLC5        0.0000 
     29 CA          3.2930   18.0690   53.2140 C.3       6 GLP5        0.0000 
     30 CA          2.6170   20.5625   46.0145 C.3       3 GLC5        0.0000 
     31 CA          1.0140   19.1500   46.0840 C.3       9 GLL5        0.0000 
     32 CA         -0.2670   20.5035   43.9155 C.3       3 GLC5        0.0000 
     33 CA          1.3720   19.5630   44.6390 C.3       9 GLL5        0.0000 
     34 CA         -1.9060   21.4440   43.1920 C.3       6 GLP5        0.0000 
     35 CA          1.0440   19.5120   42.5715 C.3       3 GLC5        0.0000 
     36 CA          0.7160   19.4610   40.5040 C.3       6 GLP5        0.0000 
     37 CA          2.7160   20.6000   43.9965 C.3       3 GLC5        0.0000 
     38 CA          4.0600   21.6370   43.3540 C.3       6 GLP5        0.0000 
     39 CA         -1.2870   19.3925   48.4195 C.3       3 GLC5        0.0000 
     40 CA         -0.4870   19.2170   46.3490 C.3       9 GLL5        0.0000 
     41 CA         -2.0870   19.5680   50.4900 C.3       6 GLP5        0.0000 
     42 CA         -1.1965   20.3305   44.7705 C.3       3 GLC5        0.0000 
     43 CA         -0.7665   20.7945   47.2800 C.3       3 GLC5        0.0000 
     44 CA         -1.0460   22.3720   48.2110 C.3       6 GLP5        0.0000 
     45 CA          0.9485   16.6165   43.5550 C.3       3 GLC5        0.0000 
     46 CA          1.0850   16.6340   45.6280 C.3       9 GLL5        0.0000 
     47 CA          0.8120   16.5990   41.4820 C.3       6 GLP5        0.0000 
     48 CA          6.4565   21.8975   48.2537 C.3       3 GLC5        0.0000 
     49 CA          6.6640   21.1020   50.1990 C.3       9 GLL5        0.0000 
     50 CA          7.4867   22.8005   47.0757 C.3       3 GLC5        0.0000 
     51 CA          9.4890   23.5560   47.2480 C.3       9 GLL5        0.0000 
     52 CA         12.2163   21.5650   49.4040 C.3       3 GLC5        0.0000 
     53 CA         10.4850   21.4860   48.0910 C.3       9 GLL5        0.0000 
     54 CA         13.4290   21.5400   51.1760 C.3       6 GLP5        0.0000 
     55 CA          9.4854   21.0465   46.4620 C.3       3 GLC5        0.0000 
     56 CA          8.2300   20.2650   45.2910 C.3       6 GLP5        0.0000 
     57 CA         11.5757   24.4835   47.8545 C.3       3 GLC5        0.0000 
     58 CA          9.7999   24.9982   48.1809 C.3       3 GLC5        0.0000 
     59 CA          9.5900   26.5930   49.3270 C.3       6 GLP5        0.0000 
     60 CA          9.1268   21.9740   46.0570 C.3       3 GLC5        0.0000 
     61 CA          2.8321   22.0610   51.5006 C.3       3 GLC5        0.0000 
     62 CA          3.2370   23.6860   52.3680 C.3       6 GLP5        0.0000 
     63 CA          1.8148   21.4505   48.9941 C.3       3 GLC5        0.0000 
     64 CA          1.3270   23.1120   48.0980 C.3       6 GLP5        0.0000 
     65 CA          3.9518   20.4273   47.0740 C.3       3 GLC5        0.0000 
     66 CA          3.0020   18.6730   48.2100 C.3       9 GLL5        0.0000 
     67 CA          0.6135   21.1267   46.3303 C.3       3 GLC5        0.0000 
     68 CA          0.0340   22.8970   47.2990 C.3       6 GLP5        0.0000 
@<TRIPOS>BOND
@<TRIPOS>SUBSTRUCTURE
     1 ALC1        4 GROUP        1 X    ALC  0     ROOT ALC X 1
     2 SEC2       16 GROUP        1 X    SEC  0     **** SEC X 2
     3 GLC5        1 GROUP        1 X    GLC  0     **** GLC X 6
     4 ALP1        6 GROUP        1 Y    ALP  0     ROOT ALP Y 8
     5 SEP2       18 GROUP        1 Y    SEP  0     **** SEP Y 9
     6 GLP5        3 GROUP        1 Y    GLP  0     **** GLP Y 13
     7 ALL1        5 GROUP        1 Z    ALL  0     ROOT ALL Z 15
     8 SEL2       17 GROUP        1 Z    SEL  0     **** SEL Z 16
     9 GLL5        2 GROUP        1 Z    GLL  0     **** GLL Z 20
@<TRIPOS>SET

