#    Name: 2uuk_897_1_ligand
#    Modification time : Tue Mar 25 00:12:39 2014

@<TRIPOS>MOLECULE
2uuk_897_1_ligand
   72    73     1     0     0
SMALL
NO_CHARGES


@<TRIPOS>ATOM
      1 C8          8.8930   21.6070   51.1840 C.3       1 8972250     0.0000 
      2 C7          8.1380   21.2800   49.8560 C.3       1 8972250     0.0000 
      3 N3          8.3190   22.3320   48.9040 N.pl3     1 8972250     0.0000 
      4 C9          9.4340   22.4380   48.0950 C.ar      1 8972250     0.0000 
      5 C10        10.4850   21.4860   48.0910 C.ar      1 8972250     0.0000 
      6 C11        11.5220   21.6940   47.1730 C.ar      1 8972250     0.0000 
      7 N4         11.5070   22.8390   46.4700 N.pl3     1 8972250     0.0000 
      8 C12        10.5580   23.8100   46.3980 C.ar      1 8972250     0.0000 
      9 C13         9.4890   23.5560   47.2480 C.ar      1 8972250     0.0000 
     10 C1          6.6640   21.1020   50.1990 C.3       1 8972250     0.0000 
     11 O3          6.1120   20.4270   49.0280 O.3       1 8972250     0.0000 
     12 C14         4.8020   20.0280   49.1480 C.ar      1 8972250     0.0000 
     13 C15         3.9080   20.4880   50.0860 C.ar      1 8972250     0.0000 
     14 C19         2.5430   20.0760   50.1330 C.ar      1 8972250     0.0000 
     15 C20         1.6290   20.5900   51.1570 C.3       1 8972250     0.0000 
     16 C18         2.1780   19.1420   49.1470 C.ar      1 8972250     0.0000 
     17 C16         4.3650   19.0860   48.1960 C.ar      1 8972250     0.0000 
     18 C17         3.0020   18.6730   48.2100 C.ar      1 8972250     0.0000 
     19 C21         2.6100   17.6350   47.2090 C.2       1 8972250     0.0000 
     20 O2          3.2160   16.5030   47.3280 O.2       1 8972250     0.0000 
     21 N2          1.5650   17.8180   46.3810 N.am      1 8972250     0.0000 
     22 C22         1.0140   19.1500   46.0840 C.3       1 8972250     0.0000 
     23 C23         1.3720   19.5630   44.6390 C.3       1 8972250     0.0000 
     24 C24        -0.4870   19.2170   46.3490 C.3       1 8972250     0.0000 
     25 C6          1.0850   16.6340   45.6280 C.3       1 8972250     0.0000 
     26 C5          0.2940   15.7620   46.4550 C.3       1 8972250     0.0000 
     27 C4         -0.1550   14.6060   45.7520 C.2       1 8972250     0.0000 
     28 O1         -1.0490   14.6440   44.9570 O.2       1 8972250     0.0000 
     29 N1          0.4610   13.4620   45.9180 N.am      1 8972250     0.0000 
     30 C3          0.1210   12.1000   45.3820 C.3       1 8972250     0.0000 
     31 C25         0.2140   12.1520   43.8450 C.3       1 8972250     0.0000 
     32 C26        -1.3300   11.7750   45.7700 C.3       1 8972250     0.0000 
     33 C2          1.1600   11.0730   46.0140 C.3       1 8972250     0.0000 
     34 H           8.5185   20.3389   49.5011 H         1 8972250     0.0000 
     35 H           7.5581   23.0469   48.8317 H         1 8972250     0.0000 
     36 H          10.4783   20.7066   48.7168 H         1 8972250     0.0000 
     37 H          12.2466   20.9885   47.0624 H         1 8972250     0.0000 
     38 H          12.4092   23.0269   45.8482 H         1 8972250     0.0000 
     39 H          10.6073   24.5999   45.8212 H         1 8972250     0.0000 
     40 H           8.6838   24.2262   47.2619 H         1 8972250     0.0000 
     41 H           6.2231   22.0657   50.3394 H         1 8972250     0.0000 
     42 H           6.5840   20.4945   51.0749 H         1 8972250     0.0000 
     43 H           4.2242   21.1755   50.8111 H         1 8972250     0.0000 
     44 H           1.1665   18.8039   49.1758 H         1 8972250     0.0000 
     45 H           5.0041   18.7045   47.5100 H         1 8972250     0.0000 
     46 H           1.5013   19.8872   46.7495 H         1 8972250     0.0000 
     47 H           1.9602   16.0931   45.2181 H         1 8972250     0.0000 
     48 H           0.4979   16.9804   44.7551 H         1 8972250     0.0000 
     49 H          -0.5796   16.3255   46.8630 H         1 8972250     0.0000 
     50 H           0.8867   15.4588   47.3517 H         1 8972250     0.0000 
     51 H           1.3703   13.4219   46.5305 H         1 8972250     0.0000 
     52 H           9.8763   21.7127   51.0358 H         1 8972250     0.0000 
     53 H           8.5659   22.4567   51.5976 H         1 8972250     0.0000 
     54 H           8.7752   20.8849   51.8657 H         1 8972250     0.0000 
     55 H           1.9427   20.3677   52.0801 H         1 8972250     0.0000 
     56 H           1.5396   21.5849   51.1094 H         1 8972250     0.0000 
     57 H           0.7099   20.2081   51.0599 H         1 8972250     0.0000 
     58 H           2.3613   19.6039   44.4987 H         1 8972250     0.0000 
     59 H           1.0071   18.9183   43.9673 H         1 8972250     0.0000 
     60 H           1.0058   20.4647   44.4089 H         1 8972250     0.0000 
     61 H          -0.7049   19.0155   47.3039 H         1 8972250     0.0000 
     62 H          -0.8595   20.1231   46.1482 H         1 8972250     0.0000 
     63 H          -0.9927   18.5614   45.7883 H         1 8972250     0.0000 
     64 H           1.1319   12.4020   43.5367 H         1 8972250     0.0000 
     65 H          -0.0043   11.2689   43.4296 H         1 8972250     0.0000 
     66 H          -0.4183   12.8227   43.4572 H         1 8972250     0.0000 
     67 H          -1.6110   10.8751   45.4365 H         1 8972250     0.0000 
     68 H          -1.4577   11.7730   46.7618 H         1 8972250     0.0000 
     69 H          -1.9734   12.4413   45.3930 H         1 8972250     0.0000 
     70 H           2.1029   11.3033   45.7734 H         1 8972250     0.0000 
     71 H           1.1074   11.0586   47.0125 H         1 8972250     0.0000 
     72 H           0.9969   10.1382   45.6984 H         1 8972250     0.0000 
@<TRIPOS>BOND
     1    2    1 1    
     2   52    1 1    
     3   53    1 1    
     4   54    1 1    
     5    3    2 1    
     6   10    2 1    
     7   34    2 1    
     8    4    3 1    
     9   35    3 1    
    10    5    4 ar   
    11    9    4 ar   
    12    6    5 ar   
    13   36    5 1    
    14    7    6 ar   
    15   37    6 1    
    16    8    7 ar   
    17   38    7 1    
    18    9    8 ar   
    19   39    8 1    
    20   40    9 1    
    21   11   10 1    
    22   41   10 1    
    23   42   10 1    
    24   12   11 1    
    25   13   12 ar   
    26   17   12 ar   
    27   14   13 ar   
    28   43   13 1    
    29   15   14 1    
    30   16   14 ar   
    31   55   15 1    
    32   56   15 1    
    33   57   15 1    
    34   18   16 ar   
    35   44   16 1    
    36   18   17 ar   
    37   45   17 1    
    38   19   18 1    
    39   20   19 2    
    40   21   19 am   
    41   22   21 1    
    42   25   21 1    
    43   23   22 1    
    44   24   22 1    
    45   46   22 1    
    46   58   23 1    
    47   59   23 1    
    48   60   23 1    
    49   61   24 1    
    50   62   24 1    
    51   63   24 1    
    52   26   25 1    
    53   47   25 1    
    54   48   25 1    
    55   27   26 1    
    56   49   26 1    
    57   50   26 1    
    58   28   27 2    
    59   29   27 am   
    60   30   29 1    
    61   51   29 1    
    62   31   30 1    
    63   32   30 1    
    64   33   30 1    
    65   64   31 1    
    66   65   31 1    
    67   66   31 1    
    68   67   32 1    
    69   68   32 1    
    70   69   32 1    
    71   70   33 1    
    72   71   33 1    
    73   72   33 1    
@<TRIPOS>SUBSTRUCTURE
     1 8972250     1 GROUP   
@<TRIPOS>SET

