#    Name: 2z4w_749_1_INTS_M
#    Modification time : Tue Mar 25 09:58:52 2014

@<TRIPOS>MOLECULE
2z4w_749_1_INTS_M
   89     0    12     0     0
SMALL
NO_CHARGES


@<TRIPOS>ATOM
      1 CA         30.1540   43.2915   14.2010 C.3       4 GLC5        0.0000 
      2 CA         28.1610   43.3360   14.3430 C.3      12 GLL5        0.0000 
      3 CA         32.1470   43.2470   14.0590 C.3       8 GLP5        0.0000 
      4 CA         27.9980   41.3360   14.5845 C.3       4 GLC5        0.0000 
      5 CA         27.8350   39.3360   14.8260 C.3       8 GLP5        0.0000 
      6 CA         26.0255   45.4140   17.5655 C.3       4 GLC5        0.0000 
      7 CA         26.7440   45.1400   15.6610 C.3      12 GLL5        0.0000 
      8 CA         25.3070   45.6880   19.4700 C.3       8 GLP5        0.0000 
      9 CA         25.2220   45.4735   14.7515 C.3       4 GLC5        0.0000 
     10 CA         23.7000   45.8070   13.8420 C.3       8 GLP5        0.0000 
     11 CA         38.2315   51.2440    9.5460 C.3       4 GLC5        0.0000 
     12 CA         36.5800   51.4700    8.6480 C.3      12 GLL5        0.0000 
     13 CA         39.8830   51.0180   10.4440 C.3       8 GLP5        0.0000 
     14 CA         33.5000   51.8835   11.9545 C.3       4 GLC5        0.0000 
     15 CA         34.4610   51.9500   10.1700 C.3      12 GLL5        0.0000 
     16 CA         32.5390   51.8170   13.7390 C.3       8 GLP5        0.0000 
     17 CA         33.4355   53.3470    9.5485 C.3       4 GLC5        0.0000 
     18 CA         32.4100   54.7440    8.9270 C.3       8 GLP5        0.0000 
     19 CA         31.4190   45.6495   11.9380 C.3       4 GLC5        0.0000 
     20 CA         30.6900   46.5570   10.1500 C.3      12 GLL5        0.0000 
     21 CA         32.1480   44.7420   13.7260 C.3       8 GLP5        0.0000 
     22 CA         32.1700   45.4075    9.4355 C.3       4 GLC5        0.0000 
     23 CA         33.6500   44.2580    8.7210 C.3       8 GLP5        0.0000 
     24 CA         29.6795   51.4265    8.4985 C.3       4 GLC5        0.0000 
     25 CA         30.1640   49.3820    8.4030 C.3      12 GLL5        0.0000 
     26 CA         29.1950   53.4710    8.5940 C.3       8 GLP5        0.0000 
     27 NZ         25.7840   45.6020    5.2160 N.4       2 LYC4        0.0000 
     28 NZ         26.5990   44.5690    6.6150 N.4      10 LYL4        0.0000 
     29 NZ         24.9690   46.6350    3.8170 N.4       6 LYP4        0.0000 
     30 Zn         25.6500   44.0375    6.9515 Zn        3 ZIC7        0.0000 
     31 Zn         26.5990   44.5690    6.6150 Zn       11 ZIL7        0.0000 
     32 Zn         24.7010   43.5060    7.2880 Zn        7 ZIP7        0.0000 
     33 Zn         27.0250   43.7395    6.2030 Zn        3 ZIC7        0.0000 
     34 Zn         27.4510   42.9100    5.7910 Zn        7 ZIP7        0.0000 
     35 NZ         32.2725   44.0555    5.2885 N.4       2 LYC4        0.0000 
     36 NZ         31.3670   45.0940    5.3020 N.4      10 LYL4        0.0000 
     37 NZ         32.9430   41.8830    5.9180 N.4       6 LYP4        0.0000 
     38 N          32.2725   44.0555    5.2885 N.am      1 SEC2        0.0000 
     39 N          31.3670   45.0940    5.3020 N.am      9 SEL2        0.0000 
     40 N          33.1780   43.0170    5.2750 N.am      5 SEP2        0.0000 
     41 NZ         25.0930   47.7685    7.2845 N.4       2 LYC4        0.0000 
     42 NZ         26.4260   47.1580    6.5230 N.4      10 LYL4        0.0000 
     43 NZ         23.7600   48.3790    8.0460 N.4       6 LYP4        0.0000 
     44 NZ         25.6975   46.8965    5.1700 N.4       2 LYC4        0.0000 
     45 N          25.0930   47.7685    7.2845 N.am      1 SEC2        0.0000 
     46 N          26.4260   47.1580    6.5230 N.am      9 SEL2        0.0000 
     47 N          23.7600   48.3790    8.0460 N.am      5 SEP2        0.0000 
     48 N          25.6975   46.8965    5.1700 N.am      1 SEC2        0.0000 
     49 N          24.9690   46.6350    3.8170 N.am      5 SEP2        0.0000 
     50 NZ         25.9900   46.2325    4.1200 N.4       2 LYC4        0.0000 
     51 NZ         27.0110   45.8300    4.4230 N.4      10 LYL4        0.0000 
     52 NZ         30.5660   42.6165    5.8695 N.4       2 LYC4        0.0000 
     53 NZ         29.3610   43.5150    5.2160 N.4      10 LYL4        0.0000 
     54 Zn         28.4060   43.2125    5.5035 Zn        3 ZIC7        0.0000 
     55 Zn         29.3610   43.5150    5.2160 Zn       11 ZIL7        0.0000 
     56 N          30.5660   42.6165    5.8695 N.am      1 SEC2        0.0000 
     57 N          29.3610   43.5150    5.2160 N.am      9 SEL2        0.0000 
     58 N          31.7710   41.7180    6.5230 N.am      5 SEP2        0.0000 
     59 N          29.0330   46.8640    3.1705 N.am      1 SEC2        0.0000 
     60 N          29.4680   45.5580    3.6240 N.am      9 SEL2        0.0000 
     61 N          28.5980   48.1700    2.7170 N.am      5 SEP2        0.0000 
     62 CA         33.7800   50.8490    6.3030 C.3       4 GLC5        0.0000 
     63 CA         34.3200   50.4530    8.1370 C.3      12 GLL5        0.0000 
     64 CA         33.2400   51.2450    4.4690 C.3       8 GLP5        0.0000 
     65 CA         28.6100   43.6875   11.0960 C.3       4 GLC5        0.0000 
     66 CA         28.4980   45.4630   12.2450 C.3      12 GLL5        0.0000 
     67 CA         28.7220   41.9120    9.9470 C.3       8 GLP5        0.0000 
     68 CA         26.8770   47.8955   11.3090 C.3       4 GLC5        0.0000 
     69 CA         28.2890   46.5800   11.2190 C.3      12 GLL5        0.0000 
     70 CA         25.4650   49.2110   11.3990 C.3       8 GLP5        0.0000 
     71 CA         34.2960   53.2675    8.5975 C.3       4 GLC5        0.0000 
     72 CA         35.0940   51.2670    8.9560 C.3      12 GLL5        0.0000 
     73 CA         33.4980   55.2680    8.2390 C.3       8 GLP5        0.0000 
     74 CA         27.6178   46.6765   15.5388 C.3       4 GLC5        0.0000 
     75 CA         27.5650   44.7420   14.4320 C.3      12 GLL5        0.0000 
     76 CA         28.0810   48.4120   16.0310 C.3       8 GLP5        0.0000 
     77 CA         30.1412   45.1530   13.2775 C.3       4 GLC5        0.0000 
     78 CA         27.7710   45.6650   13.4130 C.3      12 GLL5        0.0000 
     79 CA         25.9145   44.6175   13.6636 C.3       4 GLC5        0.0000 
     80 CA         24.0120   44.3830   13.4270 C.3       8 GLP5        0.0000 
     81 CA         31.3578   49.7892    5.8172 C.3       4 GLC5        0.0000 
     82 CA         30.5960   47.8280    6.4430 C.3      12 GLL5        0.0000 
     83 CA         31.8660   51.3300    4.6990 C.3       8 GLP5        0.0000 
     84 CA         32.3280   50.4282    6.2982 C.3       4 GLC5        0.0000 
     85 CA         32.6150   48.8840    7.5200 C.3      12 GLL5        0.0000 
     86 CA         28.2184   47.5635   13.3390 C.3       4 GLC5        0.0000 
     87 CA         28.2250   49.0550   14.6540 C.3       8 GLP5        0.0000 
     88 CA         28.9195   43.9421    9.5431 C.3       4 GLC5        0.0000 
     89 CA         29.1890   46.2910   10.0170 C.3      12 GLL5        0.0000 
@<TRIPOS>BOND
@<TRIPOS>SUBSTRUCTURE
     1 SEC2       38 GROUP        1 X    SEC  0     ROOT SEC X 2
     2 LYC4       27 GROUP        1 X    LYC  0     **** LYC X 4
     3 ZIC7       30 GROUP        1 X    ZIC  0     **** ZIC X 5
     4 GLC5        1 GROUP        1 X    GLC  0     **** GLC X 6
     5 SEP2       40 GROUP        1 Y    SEP  0     ROOT SEP Y 9
     6 LYP4       29 GROUP        1 Y    LYP  0     **** LYP Y 11
     7 ZIP7       32 GROUP        1 Y    ZIP  0     **** ZIP Y 12
     8 GLP5        3 GROUP        1 Y    GLP  0     **** GLP Y 13
     9 SEL2       39 GROUP        1 Z    SEL  0     ROOT SEL Z 16
    10 LYL4       28 GROUP        1 Z    LYL  0     **** LYL Z 18
    11 ZIL7       31 GROUP        1 Z    ZIL  0     **** ZIL Z 19
    12 GLL5        2 GROUP        1 Z    GLL  0     **** GLL Z 20
@<TRIPOS>SET

