#    Name: 2z4w_749_1_ligand
#    Modification time : Tue Mar 25 09:58:52 2014

@<TRIPOS>MOLECULE
2z4w_749_1_ligand
   63    62     1     0     0
SMALL
NO_CHARGES


@<TRIPOS>ATOM
      1 CAA        28.1610   43.3360   14.3430 C.3       1 7491101     0.0000 
      2 CAB        26.7440   45.1400   15.6610 C.3       1 7491101     0.0000 
      3 CAC        36.5800   51.4700    8.6480 C.3       1 7491101     0.0000 
      4 CAD        34.4610   51.9500   10.1700 C.3       1 7491101     0.0000 
      5 CAE        30.6900   46.5570   10.1500 C.3       1 7491101     0.0000 
      6 CAF        30.1640   49.3820    8.4030 C.3       1 7491101     0.0000 
      7 OAG        26.5990   44.5690    6.6150 O.co2     1 7491101     0.0000 
      8 OAH        31.3670   45.0940    5.3020 O.co2     1 7491101     0.0000 
      9 OAI        26.4260   47.1580    6.5230 O.co2     1 7491101     0.0000 
     10 OAJ        27.0110   45.8300    4.4230 O.co2     1 7491101     0.0000 
     11 OAK        29.3610   43.5150    5.2160 O.co2     1 7491101     0.0000 
     12 OAL        29.4680   45.5580    3.6240 O.co2     1 7491101     0.0000 
     13 CAM        27.7710   45.6650   13.4130 C.2       1 7491101     0.0000 
     14 CAN        34.3200   50.4530    8.1370 C.2       1 7491101     0.0000 
     15 CAO        28.6640   45.8140    8.8200 C.2       1 7491101     0.0000 
     16 CAP        30.5960   47.8280    6.4430 C.2       1 7491101     0.0000 
     17 CAQ        28.4980   45.4630   12.2450 C.3       1 7491101     0.0000 
     18 CAR        32.9650   50.1690    8.2750 C.3       1 7491101     0.0000 
     19 CAS        29.4260   45.4930    7.7030 C.3       1 7491101     0.0000 
     20 CAT        29.2580   47.5220    6.2200 C.3       1 7491101     0.0000 
     21 CAU        28.2890   46.5800   11.2190 C.3       1 7491101     0.0000 
     22 CAV        32.6150   48.8840    7.5200 C.3       1 7491101     0.0000 
     23 CAW        27.5650   44.7420   14.4320 C.2       1 7491101     0.0000 
     24 CAX        35.0940   51.2670    8.9560 C.2       1 7491101     0.0000 
     25 CAY        29.1890   46.2910   10.0170 C.2       1 7491101     0.0000 
     26 CAZ        31.1030   48.6690    7.4280 C.2       1 7491101     0.0000 
     27 CBA        28.9740   46.0220    6.3390 C.3       1 7491101     0.0000 
     28 PBB        27.1480   45.8100    6.0260 P.3       1 7491101     0.0000 
     29 PBC        29.9080   45.0190    5.0760 P.3       1 7491101     0.0000 
     30 H          27.3224   46.6341   13.5410 H         1 7491101     0.0000 
     31 H          34.8248   49.9907    7.3030 H         1 7491101     0.0000 
     32 H          27.6147   45.6875    8.7566 H         1 7491101     0.0000 
     33 H          31.3127   47.3670    5.7863 H         1 7491101     0.0000 
     34 H          28.2294   44.5086   11.7391 H         1 7491101     0.0000 
     35 H          29.5933   45.4017   12.4336 H         1 7491101     0.0000 
     36 H          32.3205   50.9669    7.8706 H         1 7491101     0.0000 
     37 H          32.6677   50.0173    9.3258 H         1 7491101     0.0000 
     38 H          29.5337   44.3666    7.5822 H         1 7491101     0.0000 
     39 H          30.5067   45.8273    7.8262 H         1 7491101     0.0000 
     40 H          28.9150   47.8342    5.2094 H         1 7491101     0.0000 
     41 H          28.5811   48.0346    6.9380 H         1 7491101     0.0000 
     42 H          28.5641   47.5244   11.6559 H         1 7491101     0.0000 
     43 H          27.2598   46.5898   10.9040 H         1 7491101     0.0000 
     44 H          33.0675   48.0324    8.0342 H         1 7491101     0.0000 
     45 H          33.0316   48.9371    6.5110 H         1 7491101     0.0000 
     46 H          28.6699   43.2015   13.4928 H         1 7491101     0.0000 
     47 H          28.7936   43.1525   15.0954 H         1 7491101     0.0000 
     48 H          27.4536   42.6300   14.3760 H         1 7491101     0.0000 
     49 H          27.2807   45.0771   16.5024 H         1 7491101     0.0000 
     50 H          26.4101   46.0803   15.5959 H         1 7491101     0.0000 
     51 H          25.9436   44.5523   15.7792 H         1 7491101     0.0000 
     52 H          37.1613   51.1539    9.3978 H         1 7491101     0.0000 
     53 H          36.8611   50.9705    7.8286 H         1 7491101     0.0000 
     54 H          36.7990   52.4334    8.4935 H         1 7491101     0.0000 
     55 H          34.8958   51.6660   11.0246 H         1 7491101     0.0000 
     56 H          34.5387   52.9456   10.1184 H         1 7491101     0.0000 
     57 H          33.4876   51.7358   10.2511 H         1 7491101     0.0000 
     58 H          31.2291   45.7294    9.9938 H         1 7491101     0.0000 
     59 H          31.0057   47.2409    9.4923 H         1 7491101     0.0000 
     60 H          30.9281   46.8944   11.0608 H         1 7491101     0.0000 
     61 H          30.6668   49.9497    9.0549 H         1 7491101     0.0000 
     62 H          29.5205   49.9817    7.9274 H         1 7491101     0.0000 
     63 H          29.6209   48.7338    8.9368 H         1 7491101     0.0000 
@<TRIPOS>BOND
     1   23    1 1    
     2   46    1 1    
     3   47    1 1    
     4   48    1 1    
     5   23    2 1    
     6   49    2 1    
     7   50    2 1    
     8   51    2 1    
     9   24    3 1    
    10   52    3 1    
    11   53    3 1    
    12   54    3 1    
    13   24    4 1    
    14   55    4 1    
    15   56    4 1    
    16   57    4 1    
    17   25    5 1    
    18   58    5 1    
    19   59    5 1    
    20   60    5 1    
    21   26    6 1    
    22   61    6 1    
    23   62    6 1    
    24   63    6 1    
    25   28    7 ar   
    26   29    8 ar   
    27   28    9 ar   
    28   28   10 ar   
    29   29   11 ar   
    30   29   12 ar   
    31   17   13 1    
    32   23   13 2    
    33   30   13 1    
    34   18   14 1    
    35   24   14 2    
    36   31   14 1    
    37   19   15 1    
    38   25   15 2    
    39   32   15 1    
    40   20   16 1    
    41   26   16 2    
    42   33   16 1    
    43   21   17 1    
    44   34   17 1    
    45   35   17 1    
    46   22   18 1    
    47   36   18 1    
    48   37   18 1    
    49   27   19 1    
    50   38   19 1    
    51   39   19 1    
    52   27   20 1    
    53   40   20 1    
    54   41   20 1    
    55   25   21 1    
    56   42   21 1    
    57   43   21 1    
    58   26   22 1    
    59   44   22 1    
    60   45   22 1    
    61   28   27 1    
    62   29   27 1    
@<TRIPOS>SUBSTRUCTURE
     1 7491101     1 GROUP   
@<TRIPOS>SET

