#    Name: 3ewr_APR_1_INTS_M
#    Modification time : Tue Mar 25 02:36:47 2014

@<TRIPOS>MOLECULE
3ewr_APR_1_INTS_M
   84     0     9     0     0
SMALL
NO_CHARGES


@<TRIPOS>ATOM
      1 N          14.6100   -2.6575    8.3020 N.am      2 SEC2        0.0000 
      2 N          14.0690   -3.2840    9.6370 N.am      8 SEL2        0.0000 
      3 N          15.1510   -2.0310    6.9670 N.am      5 SEP2        0.0000 
      4 CA         13.2390   -3.0345    8.1060 C.3       3 GLC5        0.0000 
      5 CA         13.0580   -2.3800    9.7450 C.3       9 GLL5        0.0000 
      6 CA         13.4200   -3.6890    6.4670 C.3       6 GLP5        0.0000 
      7 CA         14.8280   -1.4865    9.4740 C.3       3 GLC5        0.0000 
      8 CA         16.5980   -0.5930    9.2030 C.3       6 GLP5        0.0000 
      9 CA         13.8765   -0.7320   10.7570 C.3       3 GLC5        0.0000 
     10 CA         14.6950    0.9160   11.7690 C.3       6 GLP5        0.0000 
     11 CA         11.3310   -3.4545   10.0165 C.3       3 GLC5        0.0000 
     12 CA          9.6040   -4.5290   10.2880 C.3       6 GLP5        0.0000 
     13 CA         13.4310   -1.5335   13.0300 C.3       3 GLC5        0.0000 
     14 CA         12.5050   -3.0070   11.9650 C.3       9 GLL5        0.0000 
     15 CA         14.3570   -0.0600   14.0950 C.3       6 GLP5        0.0000 
     16 CA         14.5305   -2.5720   12.9955 C.3       3 GLC5        0.0000 
     17 CA         13.5800   -4.0280   11.9150 C.3       9 GLL5        0.0000 
     18 CA         15.4810   -1.1160   14.0760 C.3       6 GLP5        0.0000 
     19 CA         14.3855   -4.5085    8.5350 C.3       3 GLC5        0.0000 
     20 CA         14.3710   -4.1330   10.6570 C.3       9 GLL5        0.0000 
     21 CA         14.4000   -4.8840    6.4130 C.3       6 GLP5        0.0000 
     22 CA         15.4845   -2.3630    9.9300 C.3       3 GLC5        0.0000 
     23 CA         16.2745   -3.5830   10.9055 C.3       3 GLC5        0.0000 
     24 CA         18.1780   -3.0330   11.1540 C.3       6 GLP5        0.0000 
     25 CA         12.6145   -1.2690   14.0125 C.3       3 GLC5        0.0000 
     26 CA         10.8720   -2.4780   13.9300 C.3       9 GLL5        0.0000 
     27 O           7.8550   -4.3225   13.1100 O.2       1 ALC1        0.0000 
     28 O           9.0490   -4.2650   13.9610 O.2       7 ALL1        0.0000 
     29 O           6.6610   -4.3800   12.2590 O.2       4 ALP1        0.0000 
     30 O           7.5625   -3.8560   14.0730 O.2       1 ALC1        0.0000 
     31 O           6.0760   -3.4470   14.1850 O.2       4 ALP1        0.0000 
     32 CA          7.0895   -1.3990   15.6295 C.3       3 GLC5        0.0000 
     33 CA          8.7410   -1.9110   14.5480 C.3       9 GLL5        0.0000 
     34 CA          5.4380   -0.8870   16.7110 C.3       6 GLP5        0.0000 
     35 O           7.1645   -2.9350   12.9900 O.2       1 ALC1        0.0000 
     36 O           7.6680   -1.4900   13.7210 O.2       7 ALL1        0.0000 
     37 O           6.8720   -2.4685   13.9530 O.2       1 ALC1        0.0000 
     38 N          14.2015   -1.7135   16.0705 N.am      2 SEC2        0.0000 
     39 N          13.1710   -1.3730   17.0060 N.am      8 SEL2        0.0000 
     40 N          15.2320   -2.0540   15.1350 N.am      5 SEP2        0.0000 
     41 N          11.1755   -3.3215   19.7820 N.am      2 SEC2        0.0000 
     42 N          11.8930   -2.8360   18.6570 N.am      8 SEL2        0.0000 
     43 N          10.4580   -3.8070   20.9070 N.am      5 SEP2        0.0000 
     44 N           9.5410    2.0400   20.0650 N.am      2 SEC2        0.0000 
     45 N          10.9460    1.5870   20.1880 N.am      8 SEL2        0.0000 
     46 N           8.1360    2.4930   19.9420 N.am      5 SEP2        0.0000 
     47 N           8.9350   -1.6000   19.8850 N.am      2 SEC2        0.0000 
     48 N           9.9250   -0.8660   20.3560 N.am      8 SEL2        0.0000 
     49 N           7.9450   -2.3340   19.4140 N.am      5 SEP2        0.0000 
     50 N          10.0085   -1.5725   21.7350 N.am      2 SEC2        0.0000 
     51 N          10.0920   -2.2790   23.1140 N.am      5 SEP2        0.0000 
     52 N          11.1395   -1.3060   22.1760 N.am      2 SEC2        0.0000 
     53 N          12.1870   -0.3330   21.2380 N.am      8 SEL2        0.0000 
     54 CA         12.3625    1.1505   22.6135 C.3       3 GLC5        0.0000 
     55 CA         13.4360    0.4040   21.2310 C.3       9 GLL5        0.0000 
     56 CA         11.2890    1.8970   23.9960 C.3       6 GLP5        0.0000 
     57 CA         17.2560   -2.8930   19.5040 C.3       3 GLC5        0.0000 
     58 CA         16.2120   -1.2180   20.2280 C.3       9 GLL5        0.0000 
     59 CA         18.3000   -4.5680   18.7800 C.3       6 GLP5        0.0000 
     60 CA         14.7045   -2.8440   20.4055 C.3       3 GLC5        0.0000 
     61 CA         13.1970   -4.4700   20.5830 C.3       6 GLP5        0.0000 
     62 CA         16.5395    2.3970   20.4540 C.3       3 GLC5        0.0000 
     63 CA         16.6470    0.1770   20.7100 C.3       9 GLL5        0.0000 
     64 CA         16.4320    4.6170   20.1980 C.3       6 GLP5        0.0000 
     65 N          17.6790    0.4145   23.4875 N.am      2 SEC2        0.0000 
     66 N          16.4820   -0.1990   23.1420 N.am      8 SEL2        0.0000 
     67 N          18.8760    1.0280   23.8330 N.am      5 SEP2        0.0000 
     68 CA         16.5735    1.5685   23.2795 C.3       3 GLC5        0.0000 
     69 CA         15.8410    0.3940   21.9930 C.3       9 GLL5        0.0000 
     70 CA         17.3060    2.7430   24.5660 C.3       6 GLP5        0.0000 
     71 CA         14.6765    1.0125   23.4850 C.3       3 GLC5        0.0000 
     72 CA         13.5120    1.6310   24.9770 C.3       6 GLP5        0.0000 
     73 CA         13.9725   -2.0580   22.4440 C.3       3 GLC5        0.0000 
     74 CA         14.5870   -0.4450   21.7490 C.3       9 GLL5        0.0000 
     75 CA         13.3580   -3.6710   23.1390 C.3       6 GLP5        0.0000 
     76 CA         13.9075   -0.0635   23.5230 C.3       3 GLC5        0.0000 
     77 CA         13.2280    0.3180   25.2970 C.3       6 GLP5        0.0000 
     78 CA         11.3232   -4.0232   11.1140 C.3       3 GLC5        0.0000 
     79 CA          9.8800   -3.6102   12.0403 C.3       3 GLC5        0.0000 
     80 CA          9.7888    1.1740   14.4735 C.3       3 GLC5        0.0000 
     81 CA          9.7100   -0.7310   14.7530 C.3       9 GLL5        0.0000 
     82 CA          9.7210    2.9210   13.4560 C.3       6 GLP5        0.0000 
     83 CA         17.4438    0.1587   18.9725 C.3       3 GLC5        0.0000 
     84 CA         18.4580    0.8380   17.4760 C.3       6 GLP5        0.0000 
@<TRIPOS>BOND
@<TRIPOS>SUBSTRUCTURE
     1 ALC1       27 GROUP        1 X    ALC  0     ROOT ALC X 1
     2 SEC2        1 GROUP        1 X    SEC  0     **** SEC X 2
     3 GLC5        4 GROUP        1 X    GLC  0     **** GLC X 6
     4 ALP1       29 GROUP        1 Y    ALP  0     ROOT ALP Y 8
     5 SEP2        3 GROUP        1 Y    SEP  0     **** SEP Y 9
     6 GLP5        6 GROUP        1 Y    GLP  0     **** GLP Y 13
     7 ALL1       28 GROUP        1 Z    ALL  0     ROOT ALL Z 15
     8 SEL2        2 GROUP        1 Z    SEL  0     **** SEL Z 16
     9 GLL5        5 GROUP        1 Z    GLL  0     **** GLL Z 20
@<TRIPOS>SET

