#    Name: 3ewr_APR_1_ligand
#    Modification time : Tue Mar 25 02:36:47 2014

@<TRIPOS>MOLECULE
3ewr_APR_1_ligand
   57    60     1     0     0
SMALL
NO_CHARGES


@<TRIPOS>ATOM
      1 N1         14.0690   -3.2840    9.6370 N.ar      1 APR169      0.0000 
      2 C2         13.0580   -2.3800    9.7450 C.ar      1 APR169      0.0000 
      3 N3         12.2910   -2.2380   10.8510 N.ar      1 APR169      0.0000 
      4 C4         12.5050   -3.0070   11.9650 C.ar      1 APR169      0.0000 
      5 C5         13.5800   -4.0280   11.9150 C.ar      1 APR169      0.0000 
      6 C6         14.3710   -4.1330   10.6570 C.ar      1 APR169      0.0000 
      7 N6         15.3770   -5.0440   10.5600 N.pl3     1 APR169      0.0000 
      8 N7         13.6130   -4.6550   13.1140 N.2       1 APR169      0.0000 
      9 C8         12.6370   -4.1280   13.8720 C.2       1 APR169      0.0000 
     10 N9         11.9670   -3.1580   13.1900 N.pl3     1 APR169      0.0000 
     11 C1'        10.8720   -2.4780   13.9300 C.3       1 APR169      0.0000 
     12 C2'         9.4400   -2.9050   13.6550 C.3       1 APR169      0.0000 
     13 O2'         9.0490   -4.2650   13.9610 O.3       1 APR169      0.0000 
     14 C3'         8.7410   -1.9110   14.5480 C.3       1 APR169      0.0000 
     15 O3'         7.6680   -1.4900   13.7210 O.3       1 APR169      0.0000 
     16 O4'        10.9000   -1.0470   14.0270 O.3       1 APR169      0.0000 
     17 C4'         9.7100   -0.7310   14.7530 C.3       1 APR169      0.0000 
     18 C5'        10.0030   -0.4150   16.2290 C.3       1 APR169      0.0000 
     19 O5'        10.5770   -1.5580   16.9060 O.3       1 APR169      0.0000 
     20 PA         11.9070   -1.5680   17.8310 P.3       1 APR169      0.0000 
     21 O1A        13.1710   -1.3730   17.0060 O.co2     1 APR169      0.0000 
     22 O2A        11.8930   -2.8360   18.6570 O.co2     1 APR169      0.0000 
     23 O3A        11.8100   -0.2480   18.7710 O.3       1 APR169      0.0000 
     24 PB         11.0740    0.0750   20.1890 P.3       1 APR169      0.0000 
     25 O1B        10.9460    1.5870   20.1880 O.co2     1 APR169      0.0000 
     26 O2B         9.9250   -0.8660   20.3560 O.co2     1 APR169      0.0000 
     27 O5D        12.1870   -0.3330   21.2380 O.3       1 APR169      0.0000 
     28 C5D        13.4360    0.4040   21.2310 C.3       1 APR169      0.0000 
     29 O4D        14.9220   -1.4850   20.8060 O.3       1 APR169      0.0000 
     30 O1D        17.0890   -2.2490   20.6980 O.3       1 APR169      0.0000 
     31 C1D        16.2120   -1.2180   20.2280 C.3       1 APR169      0.0000 
     32 O2D        18.0650    0.2780   20.8970 O.3       1 APR169      0.0000 
     33 C2D        16.6470    0.1770   20.7100 C.3       1 APR169      0.0000 
     34 O3D        16.4820   -0.1990   23.1420 O.3       1 APR169      0.0000 
     35 C3D        15.8410    0.3940   21.9930 C.3       1 APR169      0.0000 
     36 C4D        14.5870   -0.4450   21.7490 C.3       1 APR169      0.0000 
     37 H          12.8611   -1.7490    8.9094 H         1 APR169      0.0000 
     38 H          15.8519   -5.0831    9.6808 H         1 APR169      0.0000 
     39 H          15.5527   -5.5941   11.3764 H         1 APR169      0.0000 
     40 H          12.4278   -4.3973   14.7901 H         1 APR169      0.0000 
     41 H          11.0102   -2.8337   15.0625 H         1 APR169      0.0000 
     42 H           9.2063   -2.6063   12.6415 H         1 APR169      0.0000 
     43 H           8.4662   -2.3369   15.4259 H         1 APR169      0.0000 
     44 H           9.2316    0.1495   14.3046 H         1 APR169      0.0000 
     45 H           9.0584   -0.1061   16.6981 H         1 APR169      0.0000 
     46 H          10.6826    0.4483   16.2570 H         1 APR169      0.0000 
     47 H          13.3649    1.3047   21.8607 H         1 APR169      0.0000 
     48 H          13.6894    0.7392   20.2130 H         1 APR169      0.0000 
     49 H          16.1464   -1.2047   19.1659 H         1 APR169      0.0000 
     50 H          16.2722    0.8858   19.9773 H         1 APR169      0.0000 
     51 H          15.5753    1.3792   22.1002 H         1 APR169      0.0000 
     52 H          14.2944   -0.8829   22.6980 H         1 APR169      0.0000 
     53 H           8.2051   -4.4137   13.4456 H         1 APR169      0.0000 
     54 H           7.1694   -2.3276   13.4978 H         1 APR169      0.0000 
     55 H          17.9771   -1.8028   20.8083 H         1 APR169      0.0000 
     56 H          18.1867    0.4232   21.8789 H         1 APR169      0.0000 
     57 H          16.2000    0.3672   23.9164 H         1 APR169      0.0000 
@<TRIPOS>BOND
     1    2    1 ar   
     2    6    1 ar   
     3    3    2 ar   
     4   37    2 1    
     5    4    3 ar   
     6    5    4 ar   
     7   10    4 1    
     8    6    5 ar   
     9    8    5 1    
    10    7    6 1    
    11   38    7 1    
    12   39    7 1    
    13    9    8 2    
    14   10    9 1    
    15   40    9 1    
    16   11   10 1    
    17   12   11 1    
    18   16   11 1    
    19   41   11 1    
    20   13   12 1    
    21   14   12 1    
    22   42   12 1    
    23   53   13 1    
    24   15   14 1    
    25   17   14 1    
    26   43   14 1    
    27   54   15 1    
    28   17   16 1    
    29   18   17 1    
    30   44   17 1    
    31   19   18 1    
    32   45   18 1    
    33   46   18 1    
    34   20   19 1    
    35   21   20 ar   
    36   22   20 ar   
    37   23   20 1    
    38   24   23 1    
    39   25   24 ar   
    40   26   24 ar   
    41   27   24 1    
    42   28   27 1    
    43   36   28 1    
    44   47   28 1    
    45   48   28 1    
    46   31   29 1    
    47   36   29 1    
    48   31   30 1    
    49   55   30 1    
    50   33   31 1    
    51   49   31 1    
    52   33   32 1    
    53   56   32 1    
    54   35   33 1    
    55   50   33 1    
    56   35   34 1    
    57   57   34 1    
    58   36   35 1    
    59   51   35 1    
    60   52   36 1    
@<TRIPOS>SUBSTRUCTURE
     1 APR169      1 GROUP   
@<TRIPOS>SET

