#    Name: 2i4w_KGQ_1_INTS_M
#    Modification time : Tue Mar 25 17:27:04 2014

@<TRIPOS>MOLECULE
2i4w_KGQ_1_INTS_M
  110     0     9     0     0
SMALL
NO_CHARGES


@<TRIPOS>ATOM
      1 O          11.9860   22.6420   17.9280 O.2       1 ALC1        0.0000 
      2 O          13.5400   22.0940   17.9760 O.2       7 ALL1        0.0000 
      3 O          10.4320   23.1900   17.8800 O.2       4 ALP1        0.0000 
      4 CA         12.3110   15.8245   18.9645 C.3       3 GLC5        0.0000 
      5 CA         11.9370   17.9440   18.4890 C.3       9 GLL5        0.0000 
      6 CA         12.6850   13.7050   19.4400 C.3       6 GLP5        0.0000 
      7 CA         13.2835   18.6000   11.8235 C.3       3 GLC5        0.0000 
      8 CA         11.9180   17.8280   13.2720 C.3       9 GLL5        0.0000 
      9 CA         14.6490   19.3720   10.3750 C.3       6 GLP5        0.0000 
     10 CA         12.8630   16.2670   14.2275 C.3       3 GLC5        0.0000 
     11 CA         13.8080   14.7060   15.1830 C.3       6 GLP5        0.0000 
     12 CA         13.9375   17.8205   14.2425 C.3       3 GLC5        0.0000 
     13 CA         15.9570   17.8130   15.2130 C.3       6 GLP5        0.0000 
     14 CA         14.8795   16.9765   13.4860 C.3       3 GLC5        0.0000 
     15 CA         13.8020   16.1400   11.7590 C.3       9 GLL5        0.0000 
     16 CA         13.3175   14.0680   11.7330 C.3       3 GLC5        0.0000 
     17 CA         12.8330   11.9960   11.7070 C.3       6 GLP5        0.0000 
     18 CA         16.7020   14.6560   12.0310 C.3       3 GLC5        0.0000 
     19 CA         14.9000   15.0580   11.6560 C.3       9 GLL5        0.0000 
     20 CA         18.5040   14.2540   12.4060 C.3       6 GLP5        0.0000 
     21 CA         14.5025   13.3880   11.4365 C.3       3 GLC5        0.0000 
     22 CA         14.1050   11.7180   11.2170 C.3       6 GLP5        0.0000 
     23 CA         12.0440   17.3275    9.7140 C.3       3 GLC5        0.0000 
     24 CA         10.2550   16.0390   10.0480 C.3       9 GLL5        0.0000 
     25 CA         13.8330   18.6160    9.3800 C.3       6 GLP5        0.0000 
     26 CA         10.7050   23.5190   15.0340 C.3       3 GLC5        0.0000 
     27 CA         12.0690   21.9440   15.0970 C.3       9 GLL5        0.0000 
     28 CA          9.3410   25.0940   14.9710 C.3       6 GLP5        0.0000 
     29 N          13.3785   25.5130   19.6725 N.am      2 SEC2        0.0000 
     30 N          13.9040   24.9200   18.6040 N.am      8 SEL2        0.0000 
     31 N          12.8530   26.1060   20.7410 N.am      5 SEP2        0.0000 
     32 O          13.6435   25.7840   17.5755 O.2       1 ALC1        0.0000 
     33 O          13.9040   24.9200   18.6040 O.2       7 ALL1        0.0000 
     34 O          13.3830   26.6480   16.5470 O.2       4 ALP1        0.0000 
     35 CA         16.1045   26.9695   16.9190 C.3       3 GLC5        0.0000 
     36 CA         16.1220   24.9090   17.6430 C.3       9 GLL5        0.0000 
     37 CA         16.0870   29.0300   16.1950 C.3       6 GLP5        0.0000 
     38 CA         20.8215   22.8295   20.8335 C.3       3 GLC5        0.0000 
     39 CA         19.8470   24.7710   20.5550 C.3       9 GLL5        0.0000 
     40 CA         21.7960   20.8880   21.1120 C.3       6 GLP5        0.0000 
     41 CA         20.1080   24.3560   22.4595 C.3       3 GLC5        0.0000 
     42 CA         20.3690   23.9410   24.3640 C.3       6 GLP5        0.0000 
     43 CA         17.2160   23.1520   22.1665 C.3       3 GLC5        0.0000 
     44 CA         17.8490   23.2470   20.3040 C.3       9 GLL5        0.0000 
     45 CA         16.5830   23.0570   24.0290 C.3       6 GLP5        0.0000 
     46 CA         22.2465   26.3460   13.8650 C.3       3 GLC5        0.0000 
     47 CA         20.9390   26.8780   15.4660 C.3       9 GLL5        0.0000 
     48 CA         23.5540   25.8140   12.2640 C.3       6 GLP5        0.0000 
     49 N          20.2195   30.5045   14.7360 N.am      2 SEC2        0.0000 
     50 N          21.1560   29.1910   14.5000 N.am      8 SEL2        0.0000 
     51 N          19.2830   31.8180   14.9720 N.am      5 SEP2        0.0000 
     52 CA         21.6630   30.5530   16.3095 C.3       3 GLC5        0.0000 
     53 CA         22.2700   29.2850   15.1070 C.3       9 GLL5        0.0000 
     54 CA         21.0560   31.8210   17.5120 C.3       6 GLP5        0.0000 
     55 CA         21.2890   30.7195   13.9365 C.3       3 GLC5        0.0000 
     56 CA         20.3080   32.1540   12.7660 C.3       6 GLP5        0.0000 
     57 CA         23.1500   28.2510   13.5175 C.3       3 GLC5        0.0000 
     58 CA         24.0300   27.2170   11.9280 C.3       6 GLP5        0.0000 
     59 CA         13.1230   17.9365   22.3010 C.3       3 GLC5        0.0000 
     60 CA         12.3310   18.6890   20.6890 C.3       9 GLL5        0.0000 
     61 CA         13.9150   17.1840   23.9130 C.3       6 GLP5        0.0000 
     62 CA         13.2895   16.7530   20.9015 C.3       3 GLC5        0.0000 
     63 CA         14.2480   14.8170   21.1140 C.3       6 GLP5        0.0000 
     64 CA         13.6825   19.7360   21.7970 C.3       3 GLC5        0.0000 
     65 CA         15.0340   20.7830   22.9050 C.3       6 GLP5        0.0000 
     66 N           9.7380   18.9915   21.5890 N.am      2 SEC2        0.0000 
     67 N          10.9350   18.8900   20.5200 N.am      8 SEL2        0.0000 
     68 N           8.5410   19.0930   22.6580 N.am      5 SEP2        0.0000 
     69 CA         10.5085   20.2105   19.9505 C.3       3 GLC5        0.0000 
     70 CA         10.6630   18.0690   19.3880 C.3       9 GLL5        0.0000 
     71 CA         10.3540   22.3520   20.5130 C.3       6 GLP5        0.0000 
     72 CA          8.7185   18.5570   19.7780 C.3       3 GLC5        0.0000 
     73 CA          6.7740   19.0450   20.1680 C.3       6 GLP5        0.0000 
     74 N           9.0310   19.6950   19.5765 N.am      2 SEC2        0.0000 
     75 N           9.5670   18.6060   18.6220 N.am      8 SEL2        0.0000 
     76 N           8.4950   20.7840   20.5310 N.am      5 SEP2        0.0000 
     77 CA         10.2755   20.8460   19.0450 C.3       3 GLC5        0.0000 
     78 CA         10.1970   19.3400   17.5770 C.3       9 GLL5        0.0000 
     79 CA          8.4855   19.1925   18.8725 C.3       3 GLC5        0.0000 
     80 CA         12.7715   22.3717   13.1242 C.3       3 GLC5        0.0000 
     81 CA         13.4240   22.3280   15.1360 C.3       9 GLL5        0.0000 
     82 CA         11.6710   22.7700   11.5160 C.3       6 GLP5        0.0000 
     83 CA         14.2758   23.7315   13.8735 C.3       3 GLC5        0.0000 
     84 CA         14.3200   21.6190   14.3290 C.3       9 GLL5        0.0000 
     85 CA         14.5630   25.2060   12.7940 C.3       6 GLP5        0.0000 
     86 CA         15.0333   19.4505   14.5655 C.3       3 GLC5        0.0000 
     87 CA         15.9638   20.5355   13.3240 C.3       3 GLC5        0.0000 
     88 CA         13.8990   20.5570   13.5070 C.3       9 GLL5        0.0000 
     89 CA         17.8180   19.9830   12.7300 C.3       6 GLP5        0.0000 
     90 CA         13.9312   19.8660   11.9310 C.3       3 GLC5        0.0000 
     91 CA         12.4422   21.5650   12.5015 C.3       3 GLC5        0.0000 
     92 CA         14.0920   17.1075   10.5438 C.3       3 GLC5        0.0000 
     93 CA         14.0795   15.1525   13.4452 C.3       3 GLC5        0.0000 
     94 CA         11.7560   22.0920   13.1037 C.3       3 GLC5        0.0000 
     95 CA         11.6130   20.8840   14.2860 C.3       9 GLL5        0.0000 
     96 CA         18.4240   26.0183   21.8178 C.3       3 GLC5        0.0000 
     97 CA         18.4310   24.6260   19.9720 C.3       9 GLL5        0.0000 
     98 CA         17.7090   27.3380   23.3720 C.3       6 GLP5        0.0000 
     99 CA         18.6478   24.9093   13.5995 C.3       3 GLC5        0.0000 
    100 CA         18.3110   26.7130   15.0240 C.3       9 GLL5        0.0000 
    101 CA         18.7110   23.6570   11.8790 C.3       6 GLP5        0.0000 
    102 CA         17.4506   28.0201   15.5940 C.3       3 GLC5        0.0000 
    103 CA         19.0440   27.8590   14.6660 C.3       9 GLL5        0.0000 
    104 CA         18.6760   27.6009   12.9439 C.3       3 GLC5        0.0000 
    105 CA         18.3520   27.9050   10.9840 C.3       6 GLP5        0.0000 
    106 CA         14.5813   18.3792   20.3867 C.3       3 GLC5        0.0000 
    107 CA         12.9480   18.8260   19.2860 C.3       9 GLL5        0.0000 
    108 CA         16.5230   18.0010   20.7860 C.3       6 GLP5        0.0000 
    109 CA         12.0278   20.4862   20.7918 C.3       3 GLC5        0.0000 
    110 CA         11.4160   22.2150   21.5960 C.3       6 GLP5        0.0000 
@<TRIPOS>BOND
@<TRIPOS>SUBSTRUCTURE
     1 ALC1        1 GROUP        1 X    ALC  0     ROOT ALC X 1
     2 SEC2       29 GROUP        1 X    SEC  0     **** SEC X 2
     3 GLC5        4 GROUP        1 X    GLC  0     **** GLC X 6
     4 ALP1        3 GROUP        1 Y    ALP  0     ROOT ALP Y 8
     5 SEP2       31 GROUP        1 Y    SEP  0     **** SEP Y 9
     6 GLP5        6 GROUP        1 Y    GLP  0     **** GLP Y 13
     7 ALL1        2 GROUP        1 Z    ALL  0     ROOT ALL Z 15
     8 SEL2       30 GROUP        1 Z    SEL  0     **** SEL Z 16
     9 GLL5        5 GROUP        1 Z    GLL  0     **** GLL Z 20
@<TRIPOS>SET

