#    Name: 2i4w_KGQ_1_ligand
#    Modification time : Tue Mar 25 17:27:04 2014

@<TRIPOS>MOLECULE
2i4w_KGQ_1_ligand
   98   101     1     0     0
SMALL
NO_CHARGES


@<TRIPOS>ATOM
      1 N          13.5400   22.0940   17.9760 N.am      1 KGQ300      0.0000 
      2 C          11.9370   17.9440   18.4890 C.3       1 KGQ300      0.0000 
      3 O          12.1090   19.1130   12.6550 O.3       1 KGQ300      0.0000 
      4 C6         14.5510   22.9180   17.3510 C.3       1 KGQ300      0.0000 
      5 C8         13.8900   23.4620   16.0180 C.3       1 KGQ300      0.0000 
      6 C9         13.4240   22.3280   15.1360 C.ar      1 KGQ300      0.0000 
      7 C11        14.3200   21.6190   14.3290 C.ar      1 KGQ300      0.0000 
      8 C13        13.8990   20.5570   13.5070 C.ar      1 KGQ300      0.0000 
      9 C14        12.5280   20.1630   13.4670 C.ar      1 KGQ300      0.0000 
     10 C15        11.9180   17.8280   13.2720 C.3       1 KGQ300      0.0000 
     11 P          11.4020   16.6160   12.0950 P.3       1 KGQ300      0.0000 
     12 O3         12.5330   15.5270   11.9960 O.3       1 KGQ300      0.0000 
     13 C18        13.8020   16.1400   11.7590 C.3       1 KGQ300      0.0000 
     14 C19        14.9000   15.0580   11.6560 C.3       1 KGQ300      0.0000 
     15 O2         10.2080   15.8110   12.7000 O.2       1 KGQ300      0.0000 
     16 O1         10.8120   17.1080   10.8230 O.3       1 KGQ300      0.0000 
     17 C16        10.2550   16.0390   10.0480 C.3       1 KGQ300      0.0000 
     18 C17         9.5640   16.6250    8.7980 C.3       1 KGQ300      0.0000 
     19 C12        11.6130   20.8840   14.2860 C.ar      1 KGQ300      0.0000 
     20 C10        12.0690   21.9440   15.0970 C.ar      1 KGQ300      0.0000 
     21 C7         14.9970   24.0710   18.2830 C.3       1 KGQ300      0.0000 
     22 O8         13.9040   24.9200   18.6040 O.3       1 KGQ300      0.0000 
     23 C20        16.1220   24.9090   17.6430 C.3       1 KGQ300      0.0000 
     24 N1         17.3970   24.1830   17.6460 N.pl3     1 KGQ300      0.0000 
     25 C21        18.3040   25.0060   18.4720 C.3       1 KGQ300      0.0000 
     26 C22        18.4310   24.6260   19.9720 C.3       1 KGQ300      0.0000 
     27 C30        19.8470   24.7710   20.5550 C.3       1 KGQ300      0.0000 
     28 C29        17.8490   23.2470   20.3040 C.3       1 KGQ300      0.0000 
     29 S          17.9450   24.1860   16.0680 S.o2      1 KGQ300      0.0000 
     30 O10        18.8290   22.9500   15.8410 O.2       1 KGQ300      0.0000 
     31 O9         16.7720   24.0010   15.0850 O.2       1 KGQ300      0.0000 
     32 C23        18.8580   25.6100   15.6160 C.ar      1 KGQ300      0.0000 
     33 C28        20.2020   25.7460   15.8180 C.ar      1 KGQ300      0.0000 
     34 C27        20.9390   26.8780   15.4660 C.ar      1 KGQ300      0.0000 
     35 C26        20.3340   27.9020   14.9010 C.ar      1 KGQ300      0.0000 
     36 O5         21.1560   29.1910   14.5000 O.3       1 KGQ300      0.0000 
     37 C31        22.2700   29.2850   15.1070 C.3       1 KGQ300      0.0000 
     38 C25        19.0440   27.8590   14.6660 C.ar      1 KGQ300      0.0000 
     39 C24        18.3110   26.7130   15.0240 C.ar      1 KGQ300      0.0000 
     40 C4         13.9150   20.7900   18.3160 C.2       1 KGQ300      0.0000 
     41 O7         15.0200   20.2890   18.1250 O.2       1 KGQ300      0.0000 
     42 O6         12.8520   20.1890   18.8680 O.3       1 KGQ300      0.0000 
     43 C5         12.9480   18.8260   19.2860 C.3       1 KGQ300      0.0000 
     44 C3         12.3310   18.6890   20.6890 C.3       1 KGQ300      0.0000 
     45 O4         10.9350   18.8900   20.5200 O.3       1 KGQ300      0.0000 
     46 C32        10.6630   18.0690   19.3880 C.3       1 KGQ300      0.0000 
     47 O11         9.5670   18.6060   18.6220 O.3       1 KGQ300      0.0000 
     48 C2         10.1970   19.3400   17.5770 C.3       1 KGQ300      0.0000 
     49 C1         11.3800   18.4670   17.1290 C.3       1 KGQ300      0.0000 
     50 H          12.6303   22.4573   18.1459 H         1 KGQ300      0.0000 
     51 H          12.1969   16.9613   18.4625 H         1 KGQ300      0.0000 
     52 H          15.4003   22.3372   17.0638 H         1 KGQ300      0.0000 
     53 H          14.6347   24.0636   15.5038 H         1 KGQ300      0.0000 
     54 H          13.0524   24.0939   16.3009 H         1 KGQ300      0.0000 
     55 H          15.3238   21.8805   14.3340 H         1 KGQ300      0.0000 
     56 H          14.5789   20.0550   12.9267 H         1 KGQ300      0.0000 
     57 H          11.1211   17.7857   14.0054 H         1 KGQ300      0.0000 
     58 H          12.8151   17.3786   13.6820 H         1 KGQ300      0.0000 
     59 H          14.0877   16.8187   12.5699 H         1 KGQ300      0.0000 
     60 H          13.8147   16.7081   10.8226 H         1 KGQ300      0.0000 
     61 H           9.5029   15.4784   10.6064 H         1 KGQ300      0.0000 
     62 H          11.0213   15.3421    9.7032 H         1 KGQ300      0.0000 
     63 H          10.6245   20.6281   14.2819 H         1 KGQ300      0.0000 
     64 H          11.3843   22.4569   15.6833 H         1 KGQ300      0.0000 
     65 H          15.4109   23.6167   19.1863 H         1 KGQ300      0.0000 
     66 H          16.2050   25.8468   18.2052 H         1 KGQ300      0.0000 
     67 H          15.8163   25.1577   16.6196 H         1 KGQ300      0.0000 
     68 H          17.9936   26.0805   18.4291 H         1 KGQ300      0.0000 
     69 H          19.3363   24.9917   18.0396 H         1 KGQ300      0.0000 
     70 H          17.7895   25.3691   20.5381 H         1 KGQ300      0.0000 
     71 H          20.7315   24.9454   16.2714 H         1 KGQ300      0.0000 
     72 H          21.9586   26.8775   15.6639 H         1 KGQ300      0.0000 
     73 H          18.5288   28.6412   14.2218 H         1 KGQ300      0.0000 
     74 H          17.2737   26.7219   14.8152 H         1 KGQ300      0.0000 
     75 H          13.8644   18.3901   19.2685 H         1 KGQ300      0.0000 
     76 H          12.7838   19.4386   21.3217 H         1 KGQ300      0.0000 
     77 H          12.5656   17.7003   21.0561 H         1 KGQ300      0.0000 
     78 H          10.4234   17.0498   19.7085 H         1 KGQ300      0.0000 
     79 H          10.5923   20.2832   17.9162 H         1 KGQ300      0.0000 
     80 H           9.5511   19.4830   16.7265 H         1 KGQ300      0.0000 
     81 H          11.0349   17.6541   16.5618 H         1 KGQ300      0.0000 
     82 H          12.1098   19.0593   16.6619 H         1 KGQ300      0.0000 
     83 H          15.8013   15.4581   11.4898 H         1 KGQ300      0.0000 
     84 H          14.9692   14.5180   12.4948 H         1 KGQ300      0.0000 
     85 H          14.7214   14.4176   10.9091 H         1 KGQ300      0.0000 
     86 H          10.2060   17.1300    8.2211 H         1 KGQ300      0.0000 
     87 H           9.1581   15.9102    8.2286 H         1 KGQ300      0.0000 
     88 H           8.8292   17.2578    9.0422 H         1 KGQ300      0.0000 
     89 H          20.5070   24.1924   20.0758 H         1 KGQ300      0.0000 
     90 H          20.1806   25.7115   20.4906 H         1 KGQ300      0.0000 
     91 H          19.8791   24.5141   21.5209 H         1 KGQ300      0.0000 
     92 H          18.3060   22.5184   19.7938 H         1 KGQ300      0.0000 
     93 H          17.9431   23.0282   21.2752 H         1 KGQ300      0.0000 
     94 H          16.8750   23.1923   20.0842 H         1 KGQ300      0.0000 
     95 H          22.8630   28.5022   14.9183 H         1 KGQ300      0.0000 
     96 H          22.7728   30.1057   14.8355 H         1 KGQ300      0.0000 
     97 H          22.1500   29.3295   16.0988 H         1 KGQ300      0.0000 
     98 H          13.7921   25.5109   17.8050 H         1 KGQ300      0.0000 
@<TRIPOS>BOND
     1    4    1 1    
     2   40    1 am   
     3   50    1 1    
     4   43    2 1    
     5   46    2 1    
     6   49    2 1    
     7   51    2 1    
     8    9    3 1    
     9   10    3 1    
    10    5    4 1    
    11   21    4 1    
    12   52    4 1    
    13    6    5 1    
    14   53    5 1    
    15   54    5 1    
    16    7    6 ar   
    17   20    6 ar   
    18    8    7 ar   
    19   55    7 1    
    20    9    8 ar   
    21   56    8 1    
    22   19    9 ar   
    23   11   10 1    
    24   57   10 1    
    25   58   10 1    
    26   12   11 1    
    27   15   11 2    
    28   16   11 1    
    29   13   12 1    
    30   14   13 1    
    31   59   13 1    
    32   60   13 1    
    33   83   14 1    
    34   84   14 1    
    35   85   14 1    
    36   17   16 1    
    37   18   17 1    
    38   61   17 1    
    39   62   17 1    
    40   86   18 1    
    41   87   18 1    
    42   88   18 1    
    43   20   19 ar   
    44   63   19 1    
    45   64   20 1    
    46   22   21 1    
    47   23   21 1    
    48   65   21 1    
    49   98   22 1    
    50   24   23 1    
    51   66   23 1    
    52   67   23 1    
    53   25   24 1    
    54   29   24 1    
    55   26   25 1    
    56   68   25 1    
    57   69   25 1    
    58   27   26 1    
    59   28   26 1    
    60   70   26 1    
    61   89   27 1    
    62   90   27 1    
    63   91   27 1    
    64   92   28 1    
    65   93   28 1    
    66   94   28 1    
    67   30   29 2    
    68   31   29 2    
    69   32   29 1    
    70   33   32 ar   
    71   39   32 ar   
    72   34   33 ar   
    73   71   33 1    
    74   35   34 ar   
    75   72   34 1    
    76   36   35 1    
    77   38   35 ar   
    78   37   36 1    
    79   95   37 1    
    80   96   37 1    
    81   97   37 1    
    82   39   38 ar   
    83   73   38 1    
    84   74   39 1    
    85   41   40 2    
    86   42   40 1    
    87   43   42 1    
    88   44   43 1    
    89   75   43 1    
    90   45   44 1    
    91   76   44 1    
    92   77   44 1    
    93   46   45 1    
    94   47   46 1    
    95   78   46 1    
    96   48   47 1    
    97   49   48 1    
    98   79   48 1    
    99   80   48 1    
   100   81   49 1    
   101   82   49 1    
@<TRIPOS>SUBSTRUCTURE
     1 KGQ300      1 GROUP   
@<TRIPOS>SET

