#    Name: 2zhe_13U_1_INTS_M
#    Modification time : Tue Mar 25 10:44:37 2014

@<TRIPOS>MOLECULE
2zhe_13U_1_INTS_M
   66     0     9     0     0
SMALL
NO_CHARGES


@<TRIPOS>ATOM
      1 CA         21.2415  -14.0900   27.6975 C.3       3 GLC5        0.0000 
      2 CA         21.0850  -12.6780   26.1310 C.3       9 GLL5        0.0000 
      3 CA         21.3980  -15.5020   29.2640 C.3       6 GLP5        0.0000 
      4 CA         19.4080  -11.8220   26.6300 C.3       3 GLC5        0.0000 
      5 CA         17.7310  -10.9660   27.1290 C.3       6 GLP5        0.0000 
      6 CA         22.0220  -14.9575   27.1740 C.3       3 GLC5        0.0000 
      7 CA         22.6460  -14.4130   25.0840 C.3       9 GLL5        0.0000 
      8 CA         21.0710  -15.9135   27.1045 C.3       3 GLC5        0.0000 
      9 CA         20.7440  -16.3250   24.9450 C.3       9 GLL5        0.0000 
     10 CA         17.8930  -11.1765   22.7115 C.3       3 GLC5        0.0000 
     11 CA         18.3950  -11.8690   20.8600 C.3       9 GLL5        0.0000 
     12 CA         17.3910  -10.4840   24.5630 C.3       6 GLP5        0.0000 
     13 CA         19.2645   -9.8785   18.8745 C.3       3 GLC5        0.0000 
     14 CA         19.3960  -11.4210   19.8140 C.3       9 GLL5        0.0000 
     15 CA         19.1330   -8.3360   17.9350 C.3       6 GLP5        0.0000 
     16 O          16.6875   -9.6070   21.2505 O.2       1 ALC1        0.0000 
     17 O          16.2460  -10.7420   20.3240 O.2       7 ALL1        0.0000 
     18 O          17.1290   -8.4720   22.1770 O.2       4 ALP1        0.0000 
     19 CA         10.6660   -8.1470   22.2425 C.3       3 GLC5        0.0000 
     20 CA         12.3420   -9.3730   22.2710 C.3       9 GLL5        0.0000 
     21 CA          8.9900   -6.9210   22.2140 C.3       6 GLP5        0.0000 
     22 OD1         9.1070  -10.2300   24.8460 O.co2     2 ASC3        0.0000 
     23 OD1        10.9160  -10.4030   24.0650 O.co2     8 ASL3        0.0000 
     24 OD1         8.0710   -9.0180   25.3620 O.co2     5 ASP3        0.0000 
     25 OD1         7.8260  -11.1200   25.9320 O.co2     5 ASP3        0.0000 
     26 O           9.1070  -10.2300   24.8460 O.2       1 ALC1        0.0000 
     27 O          10.1430  -11.4420   24.3300 O.2       7 ALL1        0.0000 
     28 O           8.0710   -9.0180   25.3620 O.2       4 ALP1        0.0000 
     29 O           8.9845  -11.2810   25.1310 O.2       1 ALC1        0.0000 
     30 O           7.8260  -11.1200   25.9320 O.2       4 ALP1        0.0000 
     31 O          10.2245  -13.0085   24.3750 O.2       1 ALC1        0.0000 
     32 O          10.3060  -14.5750   24.4200 O.2       4 ALP1        0.0000 
     33 O           9.4210   -9.1490   25.0605 O.2       1 ALC1        0.0000 
     34 O          10.7710   -9.2800   24.7590 O.2       7 ALL1        0.0000 
     35 CA         10.7125  -12.7540   21.9245 C.3       3 GLC5        0.0000 
     36 CA         12.5570  -11.7000   22.6460 C.3       9 GLL5        0.0000 
     37 CA          8.8680  -13.8080   21.2030 C.3       6 GLP5        0.0000 
     38 CA         20.4378  -14.7837   27.6910 C.3       3 GLC5        0.0000 
     39 CA         18.9650  -14.4650   25.7180 C.3       9 GLL5        0.0000 
     40 CA         18.3083  -13.1323   26.7655 C.3       3 GLC5        0.0000 
     41 CA         19.9900  -13.6660   26.5180 C.3       9 GLL5        0.0000 
     42 CA         17.1390  -12.1990   27.4130 C.3       6 GLP5        0.0000 
     43 CA         22.9800  -11.9990   26.6300 C.3       3 GLC5        0.0000 
     44 CA         24.4050  -11.1450   27.7040 C.3       6 GLP5        0.0000 
     45 CA         21.2895  -11.3790   24.2295 C.3       3 GLC5        0.0000 
     46 CA         21.0240   -9.9050   22.9030 C.3       6 GLP5        0.0000 
     47 CA         21.9055  -13.4325   19.9498 C.3       3 GLC5        0.0000 
     48 CA         20.5420  -12.3960   19.7010 C.3       9 GLL5        0.0000 
     49 CA         23.4860  -13.8810   19.7760 C.3       6 GLP5        0.0000 
     50 CA         19.4622  -13.9076   18.8064 C.3       3 GLC5        0.0000 
     51 CA         18.8860  -15.0750   17.4610 C.3       6 GLP5        0.0000 
     52 CA         14.8227   -9.9320   22.6557 C.3       3 GLC5        0.0000 
     53 CA         13.8910  -10.6370   20.9430 C.3       9 GLL5        0.0000 
     54 CA         16.0550   -9.8320   24.2050 C.3       6 GLP5        0.0000 
     55 CA         12.6470   -7.5720   21.5333 C.3       3 GLC5        0.0000 
     56 CA         13.2900   -9.4270   21.2700 C.3       9 GLL5        0.0000 
     57 CA         12.4780   -5.7440   21.2960 C.3       6 GLP5        0.0000 
     58 CA         10.5838  -10.3495   21.2978 C.3       3 GLC5        0.0000 
     59 CA          9.0190  -10.7630   19.9710 C.3       6 GLP5        0.0000 
     60 CA         14.1017   -9.8840   23.4147 C.3       3 GLC5        0.0000 
     61 CA         11.9550  -10.4990   22.9780 C.3       9 GLL5        0.0000 
     62 CA         14.5433  -10.7817   23.1758 C.3       3 GLC5        0.0000 
     63 CA         13.3135  -11.8551   24.0787 C.3       3 GLC5        0.0000 
     64 CA         13.5060  -11.7630   21.6470 C.3       9 GLL5        0.0000 
     65 CA         13.7460  -12.2790   25.9280 C.3       6 GLP5        0.0000 
     66 CA         20.3171  -11.1098   21.5666 C.3       3 GLC5        0.0000 
@<TRIPOS>BOND
@<TRIPOS>SUBSTRUCTURE
     1 ALC1       16 GROUP        1 X    ALC  0     ROOT ALC X 1
     2 ASC3       22 GROUP        1 X    ASC  0     **** ASC X 3
     3 GLC5        1 GROUP        1 X    GLC  0     **** GLC X 6
     4 ALP1       18 GROUP        1 Y    ALP  0     ROOT ALP Y 8
     5 ASP3       24 GROUP        1 Y    ASP  0     **** ASP Y 10
     6 GLP5        3 GROUP        1 Y    GLP  0     **** GLP Y 13
     7 ALL1       17 GROUP        1 Z    ALL  0     ROOT ALL Z 15
     8 ASL3       23 GROUP        1 Z    ASL  0     **** ASL Z 17
     9 GLL5        2 GROUP        1 Z    GLL  0     **** GLL Z 20
@<TRIPOS>SET

