#    Name: 2zhe_13U_1_ligand
#    Modification time : Tue Mar 25 10:44:37 2014

@<TRIPOS>MOLECULE
2zhe_13U_1_ligand
   65    67     1     0     0
SMALL
NO_CHARGES


@<TRIPOS>ATOM
      1 C14        18.2430  -13.9280   22.1660 C.2       1 13U501      0.0000 
      2 O32        17.1880  -13.4200   22.5380 O.2       1 13U501      0.0000 
      3 C5         18.9540  -15.2440   22.5110 C.3       1 13U501      0.0000 
      4 N21        18.6940  -15.9310   23.7460 N.4       1 13U501      0.0000 
      5 C49        19.3280  -15.7800   25.0400 C.3       1 13U501      0.0000 
      6 C48        18.9650  -14.4650   25.7180 C.3       1 13U501      0.0000 
      7 C47        19.9900  -13.6660   26.5180 C.3       1 13U501      0.0000 
      8 C46        21.0850  -12.6780   26.1310 C.3       1 13U501      0.0000 
      9 C45        22.0250  -13.0280   24.9810 C.3       1 13U501      0.0000 
     10 C44        22.6460  -14.4130   25.0840 C.3       1 13U501      0.0000 
     11 C43        22.0100  -15.6440   24.4540 C.3       1 13U501      0.0000 
     12 C42        20.7440  -16.3250   24.9450 C.3       1 13U501      0.0000 
     13 N1         18.8880  -13.1280   21.2940 N.am      1 13U501      0.0000 
     14 C1         18.3950  -11.8690   20.8600 C.3       1 13U501      0.0000 
     15 C7         17.0160  -11.7880   20.2780 C.2       1 13U501      0.0000 
     16 O22        16.5400  -12.7740   19.7280 O.2       1 13U501      0.0000 
     17 C2         19.3960  -11.4210   19.8140 C.3       1 13U501      0.0000 
     18 C3         20.5420  -12.3960   19.7010 C.3       1 13U501      0.0000 
     19 C4         20.1080  -13.5720   20.5460 C.3       1 13U501      0.0000 
     20 N23        16.2460  -10.7420   20.3240 N.am      1 13U501      0.0000 
     21 C24        14.9120  -10.6950   19.8670 C.3       1 13U501      0.0000 
     22 C25        13.8910  -10.6370   20.9430 C.ar      1 13U501      0.0000 
     23 C30        13.2900   -9.4270   21.2700 C.ar      1 13U501      0.0000 
     24 C29        12.3420   -9.3730   22.2710 C.ar      1 13U501      0.0000 
     25 C28        11.9550  -10.4990   22.9780 C.ar      1 13U501      0.0000 
     26 C21        10.9160  -10.4030   24.0650 C.cat     1 13U501      0.0000 
     27 N46        10.1430  -11.4420   24.3300 N.pl3     1 13U501      0.0000 
     28 N47        10.7710   -9.2800   24.7590 N.pl3     1 13U501      0.0000 
     29 C27        12.5570  -11.7000   22.6460 C.ar      1 13U501      0.0000 
     30 C26        13.5060  -11.7630   21.6470 C.ar      1 13U501      0.0000 
     31 H          20.0762  -15.0384   22.4067 H         1 13U501      0.0000 
     32 H          18.7713  -15.9481   21.6260 H         1 13U501      0.0000 
     33 H          18.7658  -16.6044   25.6919 H         1 13U501      0.0000 
     34 H          18.0685  -14.6559   26.3940 H         1 13U501      0.0000 
     35 H          18.5256  -13.7734   24.9270 H         1 13U501      0.0000 
     36 H          20.5193  -14.4621   27.2436 H         1 13U501      0.0000 
     37 H          19.3646  -13.1257   27.3883 H         1 13U501      0.0000 
     38 H          21.7091  -12.4671   27.0442 H         1 13U501      0.0000 
     39 H          20.6016  -11.6872   25.9017 H         1 13U501      0.0000 
     40 H          22.8310  -12.2747   24.9376 H         1 13U501      0.0000 
     41 H          21.4685  -12.9531   24.0303 H         1 13U501      0.0000 
     42 H          22.8137  -14.6376   26.1928 H         1 13U501      0.0000 
     43 H          23.7207  -14.3419   24.6995 H         1 13U501      0.0000 
     44 H          22.8322  -16.4557   24.3852 H         1 13U501      0.0000 
     45 H          21.8624  -15.4143   23.3292 H         1 13U501      0.0000 
     46 H          20.6678  -17.3467   24.3607 H         1 13U501      0.0000 
     47 H          20.9982  -16.7752   26.0051 H         1 13U501      0.0000 
     48 H          18.4850  -11.1260   21.6713 H         1 13U501      0.0000 
     49 H          19.7823  -10.4340   20.0849 H         1 13U501      0.0000 
     50 H          18.8923  -11.3366   18.8466 H         1 13U501      0.0000 
     51 H          21.4284  -11.9658   20.1059 H         1 13U501      0.0000 
     52 H          20.6622  -12.7020   18.6878 H         1 13U501      0.0000 
     53 H          19.8688  -14.4050   19.9089 H         1 13U501      0.0000 
     54 H          20.8921  -13.8290   21.2360 H         1 13U501      0.0000 
     55 H          16.6138   -9.8174   20.7351 H         1 13U501      0.0000 
     56 H          14.6805  -11.5825   19.2185 H         1 13U501      0.0000 
     57 H          14.7523   -9.8121   19.1912 H         1 13U501      0.0000 
     58 H          13.5563   -8.5709   20.7609 H         1 13U501      0.0000 
     59 H          11.9009   -8.4545   22.5046 H         1 13U501      0.0000 
     60 H           9.4693  -11.3149   25.0580 H         1 13U501      0.0000 
     61 H          10.3020  -12.2608   23.7784 H         1 13U501      0.0000 
     62 H          10.0932   -9.3013   25.4939 H         1 13U501      0.0000 
     63 H          11.3527   -8.5145   24.4840 H         1 13U501      0.0000 
     64 H          12.2899  -12.5627   23.1560 H         1 13U501      0.0000 
     65 H          13.9440  -12.6802   21.4164 H         1 13U501      0.0000 
@<TRIPOS>BOND
     1    2    1 2    
     2    3    1 1    
     3   13    1 am   
     4    4    3 1    
     5   31    3 1    
     6   32    3 1    
     7    5    4 1    
     8    6    5 1    
     9   12    5 1    
    10   33    5 1    
    11    7    6 1    
    12   34    6 1    
    13   35    6 1    
    14    8    7 1    
    15   36    7 1    
    16   37    7 1    
    17    9    8 1    
    18   38    8 1    
    19   39    8 1    
    20   10    9 1    
    21   40    9 1    
    22   41    9 1    
    23   11   10 1    
    24   42   10 1    
    25   43   10 1    
    26   12   11 1    
    27   44   11 1    
    28   45   11 1    
    29   46   12 1    
    30   47   12 1    
    31   14   13 1    
    32   19   13 1    
    33   15   14 1    
    34   17   14 1    
    35   48   14 1    
    36   16   15 2    
    37   20   15 am   
    38   18   17 1    
    39   49   17 1    
    40   50   17 1    
    41   19   18 1    
    42   51   18 1    
    43   52   18 1    
    44   53   19 1    
    45   54   19 1    
    46   21   20 1    
    47   55   20 1    
    48   22   21 1    
    49   56   21 1    
    50   57   21 1    
    51   23   22 ar   
    52   30   22 ar   
    53   24   23 ar   
    54   58   23 1    
    55   25   24 ar   
    56   59   24 1    
    57   26   25 1    
    58   29   25 ar   
    59   27   26 ar   
    60   28   26 ar   
    61   60   27 1    
    62   61   27 1    
    63   62   28 1    
    64   63   28 1    
    65   30   29 ar   
    66   64   29 1    
    67   65   30 1    
@<TRIPOS>SUBSTRUCTURE
     1 13U501      1 GROUP   
@<TRIPOS>SET

