#    Name: 2QJR_1_CAVITY_N1_ALL.mol2
#    Modification time : Tue Mar 11 08:10:56 2014

@<TRIPOS>MOLECULE
2QJR_1_CAVITY_N1_ALL.mol2
   97     0     7     0     0
SMALL
NO_CHARGES


@<TRIPOS>ATOM
      1 CZ         20.3410   17.6919   34.9934 C.ar      5 PHE5        0.0000 
      2 CZ         19.7043   19.6412   34.4504 C.ar      5 PHE5        0.0000 
      3 CZ         19.0466   18.4457   35.0735 C.ar      5 PHE5        0.0000 
      4 NZ         18.3890   17.2502   35.6966 N.2       4 LYS4        0.0000 
      5 NZ         17.7314   16.0547   36.3198 N.2       4 LYS4        0.0000 
      6 CZ         18.4099   20.3950   34.5305 C.ar      5 PHE5        0.0000 
      7 OG         17.7523   19.1995   35.1536 O.2       1 SER1        0.0000 
      8 OG         17.0946   18.0040   35.7768 O.2       1 SER1        0.0000 
      9 NZ         16.4370   16.8085   36.3999 N.2       4 LYS4        0.0000 
     10 O          15.7794   15.6130   37.0230 O.2       2 ALA2        0.0000 
     11 OG         15.1426   17.5623   36.4800 O.2       1 SER1        0.0000 
     12 OG         14.4850   16.3668   37.1032 O.2       1 SER1        0.0000 
     13 CZ         18.7660   17.7528   37.0587 C.ar      5 PHE5        0.0000 
     14 O          11.7790   14.9200   35.0823 O.2       2 ALA2        0.0000 
     15 O          22.3599   16.0625   26.7764 O.2       2 ALA2        0.0000 
     16 OG         20.4079   15.6208   27.4796 O.2       1 SER1        0.0000 
     17 CZ         18.2257   19.5117   39.8630 C.ar      5 PHE5        0.0000 
     18 CZ         17.5680   18.3162   40.4862 C.ar      5 PHE5        0.0000 
     19 O          16.2737   19.0700   40.5663 O.2       2 ALA2        0.0000 
     20 CZ         19.1430   18.2554   38.4208 C.ar      5 PHE5        0.0000 
     21 CZ         17.8487   19.0092   38.5010 C.ar      5 PHE5        0.0000 
     22 OG         17.1910   17.8137   39.1241 O.2       1 SER1        0.0000 
     23 OG         13.8483   18.3161   36.5602 O.2       1 SER1        0.0000 
     24 CA         23.4910   17.5702   30.8627 C.3       6 GLY6        0.0000 
     25 N          22.8333   16.3747   31.4858 N.2       2 ALA2        0.0000 
     26 N          22.1757   15.1792   32.1089 N.2       2 ALA2        0.0000 
     27 CZ         21.5390   17.1285   31.5659 C.ar      5 PHE5        0.0000 
     28 N          20.8813   15.9330   32.1890 N.2       2 ALA2        0.0000 
     29 CZ         20.2446   17.8823   31.6461 C.ar      5 PHE5        0.0000 
     30 N          19.5870   16.6868   32.2692 N.2       2 ALA2        0.0000 
     31 N          18.9293   15.4913   32.8923 N.2       2 ALA2        0.0000 
     32 CZ         18.9502   18.6361   31.7262 C.ar      5 PHE5        0.0000 
     33 DU         18.2926   17.4406   32.3493 H         7 CUB7        0.0000 
     34 NZ         17.6350   16.2451   32.9725 N.2       4 LYS4        0.0000 
     35 NZ         16.9773   15.0496   33.5956 N.2       4 LYS4        0.0000 
     36 CZ         18.3135   20.5854   31.1832 C.ar      5 PHE5        0.0000 
     37 CZ         17.6559   19.3899   31.8063 C.ar      5 PHE5        0.0000 
     38 DU         16.9982   18.1944   32.4295 H         7 CUB7        0.0000 
     39 DU         16.3406   16.9989   33.0526 H         7 CUB7        0.0000 
     40 O          15.6830   15.8034   33.6757 O.2       2 ALA2        0.0000 
     41 CZ         17.0192   21.3392   31.2633 C.ar      5 PHE5        0.0000 
     42 OG         15.7039   18.9482   32.5096 O.2       1 SER1        0.0000 
     43 DU         15.0462   17.7527   33.1327 H         7 CUB7        0.0000 
     44 O          14.3886   16.5572   33.7559 O.2       2 ALA2        0.0000 
     45 CZ         20.9986   18.8874   34.3702 C.ar      5 PHE5        0.0000 
     46 CA         23.7716   18.2632   28.8774 C.3       6 GLY6        0.0000 
     47 CA         23.1140   17.0677   29.5006 C.3       6 GLY6        0.0000 
     48 OG         22.4563   15.8722   30.1237 O.2       1 SER1        0.0000 
     49 CA         21.8196   17.8215   29.5807 C.3       6 GLY6        0.0000 
     50 OG         21.1620   16.6260   30.2038 O.2       1 SER1        0.0000 
     51 OG         20.5043   15.4305   30.8270 O.2       1 SER1        0.0000 
     52 CZ         20.5252   18.5752   29.6608 C.ar      5 PHE5        0.0000 
     53 DU         19.8676   17.3797   30.2840 H         7 CUB7        0.0000 
     54 DU         19.2100   16.1842   30.9071 H         7 CUB7        0.0000 
     55 CZ         19.2309   19.3290   29.7410 C.ar      5 PHE5        0.0000 
     56 DU         18.5732   18.1335   30.3641 H         7 CUB7        0.0000 
     57 DU         17.2580   15.7425   31.6104 H         7 CUB7        0.0000 
     58 OD1        15.3060   15.3008   32.3136 O.3       3 ASP3        0.0000 
     59 CZ         18.1293   19.7021   36.5157 C.ar      5 PHE5        0.0000 
     60 OG         17.4716   18.5066   37.1389 O.2       1 SER1        0.0000 
     61 OG         16.8140   17.3111   37.7620 O.2       1 SER1        0.0000 
     62 OG         16.1564   16.1156   38.3851 O.2       1 SER1        0.0000 
     63 OG         16.1773   19.2604   37.2190 O.2       1 SER1        0.0000 
     64 CA         15.5196   18.0649   37.8421 C.3       6 GLY6        0.0000 
     65 OG         14.8620   16.8694   38.4653 O.2       1 SER1        0.0000 
     66 OG         12.8136   16.6181   35.8212 O.2       1 SER1        0.0000 
     67 CA         12.1560   15.4226   36.4443 C.3       6 GLY6        0.0000 
     68 CZ         12.8345   19.7628   34.6551 C.ar      5 PHE5        0.0000 
     69 OG         11.5193   17.3718   35.9014 O.2       1 SER1        0.0000 
     70 O          23.3946   17.7606   27.5153 O.2       2 ALA2        0.0000 
     71 O          22.7370   16.5651   28.1385 O.2       2 ALA2        0.0000 
     72 CA         22.1002   18.5144   27.5955 C.3       6 GLY6        0.0000 
     73 OG         21.4426   17.3189   28.2186 O.2       1 SER1        0.0000 
     74 OG         20.7850   16.1234   28.8417 O.2       1 SER1        0.0000 
     75 DU         20.1482   18.0727   28.2987 H         7 CUB7        0.0000 
     76 OG         19.4906   16.8772   28.9219 O.2       1 SER1        0.0000 
     77 OG         16.5543   19.7630   38.5811 O.2       1 SER1        0.0000 
     78 CA         15.8966   18.5675   39.2042 C.3       6 GLY6        0.0000 
     79 O          21.9160   17.6311   32.9280 O.2       2 ALA2        0.0000 
     80 NZ         21.2583   16.4356   33.5511 N.2       4 LYS4        0.0000 
     81 CZ         20.6216   18.3849   33.0081 C.ar      5 PHE5        0.0000 
     82 NZ         19.9640   17.1894   33.6313 N.2       4 LYS4        0.0000 
     83 NZ         19.3063   15.9939   34.2544 N.2       4 LYS4        0.0000 
     84 CZ         19.3273   19.1387   33.0883 C.ar      5 PHE5        0.0000 
     85 DU         18.6696   17.9432   33.7114 H         7 CUB7        0.0000 
     86 NZ         18.0120   16.7477   34.3345 N.2       4 LYS4        0.0000 
     87 CZ         18.0329   19.8925   33.1684 C.ar      5 PHE5        0.0000 
     88 OG         17.3753   18.6970   33.7916 O.2       1 SER1        0.0000 
     89 DU         16.7176   17.5015   34.4147 H         7 CUB7        0.0000 
     90 O          16.0600   16.3060   35.0378 O.2       2 ALA2        0.0000 
     91 OG         16.7385   20.6463   33.2486 O.2       1 SER1        0.0000 
     92 OG         16.0809   19.4508   33.8717 O.2       1 SER1        0.0000 
     93 OG         15.4233   18.2553   34.4948 O.2       1 SER1        0.0000 
     94 O          14.7656   17.0598   35.1179 O.2       2 ALA2        0.0000 
     95 O          14.1080   15.8643   35.7411 O.2       2 ALA2        0.0000 
     96 OG         14.1289   19.0091   34.5750 O.2       1 SER1        0.0000 
     97 OG         13.4713   17.8136   35.1981 O.2       1 SER1        0.0000 
@<TRIPOS>BOND
@<TRIPOS>SUBSTRUCTURE
     1 SER1        7 GROUP   
     2 ALA2       10 GROUP   
     3 ASP3       58 GROUP   
     4 LYS4        4 GROUP   
     5 PHE5        1 GROUP   
     6 GLY6       24 GROUP   
     7 CUB7       33 GROUP   
@<TRIPOS>SET

