#    Name: 2qjr_PZF_1_INTS_M
#    Modification time : Mon Mar 24 22:20:03 2014

@<TRIPOS>MOLECULE
2qjr_PZF_1_INTS_M
   64     0    12     0     0
SMALL
NO_CHARGES


@<TRIPOS>ATOM
      1 CA         24.6510   16.9360   26.7225 C.3       4 GLC5        0.0000 
      2 CA         22.9570   17.5960   25.5770 C.3      12 GLL5        0.0000 
      3 CA         26.3450   16.2760   27.8680 C.3       8 GLP5        0.0000 
      4 CA         14.7590   20.2855   40.9430 C.3       4 GLC5        0.0000 
      5 CA         15.5450   18.3050   41.1930 C.3      12 GLL5        0.0000 
      6 CA         13.9730   22.2660   40.6930 C.3       8 GLP5        0.0000 
      7 CA         17.2985   16.9760   40.8970 C.3       4 GLC5        0.0000 
      8 CA         19.0520   15.6470   40.6010 C.3       8 GLP5        0.0000 
      9 CA         13.7785   15.6940   39.0360 C.3       4 GLC5        0.0000 
     10 CA         15.5660   16.9450   39.2870 C.3      12 GLL5        0.0000 
     11 CA         11.9910   14.4430   38.7850 C.3       8 GLP5        0.0000 
     12 CA         13.8125   15.0590   38.0350 C.3       4 GLC5        0.0000 
     13 CA         15.6340   15.6750   37.2850 C.3      12 GLL5        0.0000 
     14 CA         15.9820   20.7790   39.5105 C.3       4 GLC5        0.0000 
     15 CA         16.9860   18.8910   39.4260 C.3      12 GLL5        0.0000 
     16 CA         14.9780   22.6670   39.5950 C.3       8 GLP5        0.0000 
     17 CA         17.3795   21.6795   40.1470 C.3       4 GLC5        0.0000 
     18 CA         17.4560   19.9960   40.0290 C.3      12 GLL5        0.0000 
     19 CA         17.3030   23.3630   40.2650 C.3       8 GLP5        0.0000 
     20 CA         16.9775   19.4640   42.1450 C.3       4 GLC5        0.0000 
     21 CA         16.4990   18.9320   44.2610 C.3       8 GLP5        0.0000 
     22 CA         18.3150   20.9135   41.4850 C.3       4 GLC5        0.0000 
     23 CA         19.1740   21.8310   42.9410 C.3       8 GLP5        0.0000 
     24 CA         18.7050   18.3095   40.3535 C.3       4 GLC5        0.0000 
     25 CA         19.9540   16.6230   40.6780 C.3       8 GLP5        0.0000 
     26 CA         19.1745   20.3260   39.6670 C.3       4 GLC5        0.0000 
     27 CA         20.8930   20.6560   39.3050 C.3       8 GLP5        0.0000 
     28 OD1        18.4925   14.5540   36.0380 O.co2     3 ASC3        0.0000 
     29 OD1        19.2320   15.5560   36.4710 O.co2    11 ASL3        0.0000 
     30 OD1        17.7530   13.5520   35.6050 O.co2     7 ASP3        0.0000 
     31 OD1        20.5365   15.4585   36.1675 O.co2     3 ASC3        0.0000 
     32 OD1        21.8410   15.3610   35.8640 O.co2     7 ASP3        0.0000 
     33 OD1        20.3785   15.1475   37.2205 O.co2     3 ASC3        0.0000 
     34 OD1        21.5250   14.7390   37.9700 O.co2     7 ASP3        0.0000 
     35 O          18.4925   14.5540   36.0380 O.2       1 ALC1        0.0000 
     36 O          19.2320   15.5560   36.4710 O.2       9 ALL1        0.0000 
     37 O          17.7530   13.5520   35.6050 O.2       5 ALP1        0.0000 
     38 O          20.5365   15.4585   36.1675 O.2       1 ALC1        0.0000 
     39 O          21.8410   15.3610   35.8640 O.2       5 ALP1        0.0000 
     40 O          18.8945   15.4140   37.9165 O.2       1 ALC1        0.0000 
     41 O          18.5570   15.2720   39.3620 O.2       5 ALP1        0.0000 
     42 N          24.0750   16.3765   26.8350 N.am      2 SEC2        0.0000 
     43 N          22.7820   16.8510   26.8180 N.am     10 SEL2        0.0000 
     44 N          25.3680   15.9020   26.8520 N.am      6 SEP2        0.0000 
     45 N          23.7095   15.7600   25.9405 N.am      2 SEC2        0.0000 
     46 N          24.6370   14.6690   25.0630 N.am      6 SEP2        0.0000 
     47 CA         22.5983   19.1155   29.0362 C.3       4 GLC5        0.0000 
     48 CA         21.9340   17.3710   27.7510 C.3      12 GLL5        0.0000 
     49 CA         23.5420   20.2400   30.4360 C.3       8 GLP5        0.0000 
     50 CA         19.1127   19.0555   36.2908 C.3       4 GLC5        0.0000 
     51 CA         17.4330   18.4790   35.1570 C.3      12 GLL5        0.0000 
     52 CA         20.7430   20.2350   36.9610 C.3       8 GLP5        0.0000 
     53 CA         20.4005   18.0887   36.2458 C.3       4 GLC5        0.0000 
     54 CA         18.9820   16.9150   36.1010 C.3      12 GLL5        0.0000 
     55 CA         21.5780   19.1490   37.1120 C.3       8 GLP5        0.0000 
     56 CA         14.0675   18.5117   39.9672 C.3       4 GLC5        0.0000 
     57 CA         16.0490   18.0320   39.9880 C.3      12 GLL5        0.0000 
     58 CA         12.3380   18.8550   39.3440 C.3       8 GLP5        0.0000 
     59 CA         16.1480   18.5502   42.4258 C.3       4 GLC5        0.0000 
     60 CA         14.0750   17.8412   38.9940 C.3       4 GLC5        0.0000 
     61 CA         15.1642   16.4629   41.1629 C.3       4 GLC5        0.0000 
     62 CA         14.6470   15.3690   42.3870 C.3       8 GLP5        0.0000 
     63 CA         21.9499   19.0822   30.1184 C.3       4 GLC5        0.0000 
     64 CA         19.3240   18.7470   30.6860 C.3      12 GLL5        0.0000 
@<TRIPOS>BOND
@<TRIPOS>SUBSTRUCTURE
     1 ALC1       35 GROUP        1 X    ALC  0     ROOT ALC X 1
     2 SEC2       42 GROUP        1 X    SEC  0     **** SEC X 2
     3 ASC3       28 GROUP        1 X    ASC  0     **** ASC X 3
     4 GLC5        1 GROUP        1 X    GLC  0     **** GLC X 6
     5 ALP1       37 GROUP        1 Y    ALP  0     ROOT ALP Y 8
     6 SEP2       44 GROUP        1 Y    SEP  0     **** SEP Y 9
     7 ASP3       30 GROUP        1 Y    ASP  0     **** ASP Y 10
     8 GLP5        3 GROUP        1 Y    GLP  0     **** GLP Y 13
     9 ALL1       36 GROUP        1 Z    ALL  0     ROOT ALL Z 15
    10 SEL2       43 GROUP        1 Z    SEL  0     **** SEL Z 16
    11 ASL3       29 GROUP        1 Z    ASL  0     **** ASL Z 17
    12 GLL5        2 GROUP        1 Z    GLL  0     **** GLL Z 20
@<TRIPOS>SET

