#    Name: 2qjr_PZF_1_ligand
#    Modification time : Mon Mar 24 22:20:03 2014

@<TRIPOS>MOLECULE
2qjr_PZF_1_ligand
   48    51     1     0     0
SMALL
NO_CHARGES


@<TRIPOS>ATOM
      1 N3         21.6840   16.6520   28.8580 N.ar      1 PZF900      0.0000 
      2 C4         21.9340   17.3710   27.7510 C.ar      1 PZF900      0.0000 
      3 C6         20.5200   19.1080   28.4790 C.ar      1 PZF900      0.0000 
      4 C13        17.5320   17.2730   36.0840 C.3       1 PZF900      0.0000 
      5 C21        17.0020   17.5400   37.4380 C.ar      1 PZF900      0.0000 
      6 C8         17.3950   19.9410   31.2920 C.ar      1 PZF900      0.0000 
      7 C16        19.4640   17.1420   34.6580 C.3       1 PZF900      0.0000 
      8 C19        22.9570   17.5960   25.5770 C.3       1 PZF900      0.0000 
      9 C26        17.4270   18.6380   38.1690 C.ar      1 PZF900      0.0000 
     10 F29        15.5450   18.3050   41.1930 F         1 PZF900      0.0000 
     11 C24        16.0490   18.0320   39.9880 C.ar      1 PZF900      0.0000 
     12 C23        15.5660   16.9450   39.2870 C.ar      1 PZF900      0.0000 
     13 C22        16.0580   16.7100   38.0010 C.ar      1 PZF900      0.0000 
     14 F27        15.6340   15.6750   37.2850 F         1 PZF900      0.0000 
     15 C25        16.9860   18.8910   39.4260 C.ar      1 PZF900      0.0000 
     16 F28        17.4560   19.9960   40.0290 F         1 PZF900      0.0000 
     17 C17        18.9820   16.9150   36.1010 C.3       1 PZF900      0.0000 
     18 N20        19.2320   15.5560   36.4710 N.4       1 PZF900      0.0000 
     19 N15        18.4450   18.1010   34.2020 N.3       1 PZF900      0.0000 
     20 C14        17.4330   18.4790   35.1570 C.3       1 PZF900      0.0000 
     21 C12        18.4060   18.5920   32.9060 C.ar      1 PZF900      0.0000 
     22 N7         17.4270   19.4520   32.5390 N.ar      1 PZF900      0.0000 
     23 C11        19.3490   18.1910   31.9540 C.ar      1 PZF900      0.0000 
     24 C10        19.3240   18.7470   30.6860 C.ar      1 PZF900      0.0000 
     25 N9         18.3230   19.5850   30.4090 N.ar      1 PZF900      0.0000 
     26 C1         20.2780   18.3450   29.6160 C.ar      1 PZF900      0.0000 
     27 C5         21.3750   18.6110   27.5220 C.ar      1 PZF900      0.0000 
     28 O18        22.7820   16.8510   26.8180 O.3       1 PZF900      0.0000 
     29 C2         20.8540   17.1120   29.7350 C.ar      1 PZF900      0.0000 
     30 H          20.0697   20.0169   28.3628 H         1 PZF900      0.0000 
     31 H          16.9904   16.4587   35.6124 H         1 PZF900      0.0000 
     32 H          16.6333   20.6067   31.0160 H         1 PZF900      0.0000 
     33 H          19.4038   16.2338   34.1326 H         1 PZF900      0.0000 
     34 H          20.4207   17.5763   34.6835 H         1 PZF900      0.0000 
     35 H          18.1181   19.2925   37.7205 H         1 PZF900      0.0000 
     36 H          14.8673   16.3246   39.6915 H         1 PZF900      0.0000 
     37 H          19.5119   17.6150   36.7175 H         1 PZF900      0.0000 
     38 H          17.6962   19.3438   35.6954 H         1 PZF900      0.0000 
     39 H          16.4713   18.5017   34.7308 H         1 PZF900      0.0000 
     40 H          20.0539   17.4873   32.2003 H         1 PZF900      0.0000 
     41 H          21.5871   19.1357   26.6794 H         1 PZF900      0.0000 
     42 H          20.5898   16.5357   30.5897 H         1 PZF900      0.0000 
     43 H          23.3176   18.5139   25.7426 H         1 PZF900      0.0000 
     44 H          23.5934   17.1387   24.9559 H         1 PZF900      0.0000 
     45 H          22.0937   17.7048   25.0842 H         1 PZF900      0.0000 
     46 H          20.0594   15.1992   36.0373 H         1 PZF900      0.0000 
     47 H          19.3525   15.4561   37.4587 H         1 PZF900      0.0000 
     48 H          18.4789   14.9542   36.2052 H         1 PZF900      0.0000 
@<TRIPOS>BOND
     1    2    1 ar   
     2   29    1 ar   
     3   27    2 ar   
     4   28    2 1    
     5   26    3 ar   
     6   27    3 ar   
     7   30    3 1    
     8    5    4 1    
     9   17    4 1    
    10   20    4 1    
    11   31    4 1    
    12    9    5 ar   
    13   13    5 ar   
    14   22    6 ar   
    15   25    6 ar   
    16   32    6 1    
    17   17    7 1    
    18   19    7 1    
    19   33    7 1    
    20   34    7 1    
    21   28    8 1    
    22   43    8 1    
    23   44    8 1    
    24   45    8 1    
    25   15    9 ar   
    26   35    9 1    
    27   11   10 1    
    28   12   11 ar   
    29   15   11 ar   
    30   13   12 ar   
    31   36   12 1    
    32   14   13 1    
    33   16   15 1    
    34   18   17 1    
    35   37   17 1    
    36   46   18 1    
    37   47   18 1    
    38   48   18 1    
    39   20   19 1    
    40   21   19 1    
    41   38   20 1    
    42   39   20 1    
    43   22   21 ar   
    44   23   21 ar   
    45   24   23 ar   
    46   40   23 1    
    47   25   24 ar   
    48   26   24 1    
    49   29   26 ar   
    50   41   27 1    
    51   42   29 1    
@<TRIPOS>SUBSTRUCTURE
     1 PZF900      1 GROUP   
@<TRIPOS>SET

