#    Name: 2z4z_SC0_1_INTS_M
#    Modification time : Tue Mar 25 10:13:25 2014

@<TRIPOS>MOLECULE
2z4z_SC0_1_INTS_M
   79     0    12     0     0
SMALL
NO_CHARGES


@<TRIPOS>ATOM
      1 CA         37.5915   50.4495    9.1445 C.3       4 GLC5        0.0000 
      2 CA         35.9680   51.0690    8.5200 C.3      12 GLL5        0.0000 
      3 CA         39.2150   49.8300    9.7690 C.3       8 GLP5        0.0000 
      4 CA         36.8385   51.8025    7.0485 C.3       4 GLC5        0.0000 
      5 CA         37.7090   52.5360    5.5770 C.3       8 GLP5        0.0000 
      6 CA         33.4230   53.0655    8.7630 C.3       4 GLC5        0.0000 
      7 CA         34.4970   51.4970    8.5530 C.3      12 GLL5        0.0000 
      8 CA         32.3490   54.6340    8.9730 C.3       8 GLP5        0.0000 
      9 CA         33.7345   51.2970    6.5475 C.3       4 GLC5        0.0000 
     10 CA         32.9720   51.0970    4.5420 C.3       8 GLP5        0.0000 
     11 CA         32.2260   52.6805    8.8815 C.3       4 GLC5        0.0000 
     12 CA         32.1030   50.7270    8.7900 C.3      12 GLL5        0.0000 
     13 CA         31.1700   49.4370   11.0030 C.3       4 GLC5        0.0000 
     14 CA         31.1410   49.5490    8.9690 C.3      12 GLL5        0.0000 
     15 CA         31.1990   49.3250   13.0370 C.3       8 GLP5        0.0000 
     16 NZ         32.2430   43.7580    5.5910 N.4       2 LYC4        0.0000 
     17 NZ         30.9570   44.4510    5.6090 N.4      10 LYL4        0.0000 
     18 NZ         32.9470   41.9230    5.9230 N.4       6 LYP4        0.0000 
     19 N          32.2430   43.7580    5.5910 N.am      1 SEC2        0.0000 
     20 N          30.9570   44.4510    5.6090 N.am      9 SEL2        0.0000 
     21 N          33.5290   43.0650    5.5730 N.am      5 SEP2        0.0000 
     22 N          31.2950   43.1695    5.8735 N.am      1 SEC2        0.0000 
     23 N          31.6330   41.8880    6.1380 N.am      5 SEP2        0.0000 
     24 Zn         28.5460   45.8245    3.4175 Zn        3 ZIC7        0.0000 
     25 Zn         29.3500   45.4280    3.8560 Zn       11 ZIL7        0.0000 
     26 Zn         27.7420   46.2210    2.9790 Zn        7 ZIP7        0.0000 
     27 NZ         25.4770   45.6720    7.7865 N.4       2 LYC4        0.0000 
     28 NZ         26.3360   45.1620    6.7120 N.4      10 LYL4        0.0000 
     29 NZ         24.6180   46.1820    8.8610 N.4       6 LYP4        0.0000 
     30 NZ         25.4080   46.0945    5.2310 N.4       2 LYC4        0.0000 
     31 NZ         24.4800   47.0270    3.7500 N.4       6 LYP4        0.0000 
     32 N          26.5615   43.9395    7.9265 N.am      1 SEC2        0.0000 
     33 N          26.3360   45.1620    6.7120 N.am      9 SEL2        0.0000 
     34 N          26.7870   42.7170    9.1410 N.am      5 SEP2        0.0000 
     35 N          25.4770   45.6720    7.7865 N.am      1 SEC2        0.0000 
     36 N          24.6180   46.1820    8.8610 N.am      5 SEP2        0.0000 
     37 NZ         25.6530   46.9525    7.9675 N.4       2 LYC4        0.0000 
     38 NZ         26.6880   47.7230    7.0740 N.4      10 LYL4        0.0000 
     39 NZ         25.6730   46.8765    4.2445 N.4       2 LYC4        0.0000 
     40 NZ         26.8660   46.7260    4.7390 N.4      10 LYL4        0.0000 
     41 Zn         27.3040   46.4735    3.8590 Zn        3 ZIC7        0.0000 
     42 Zn         26.8660   46.7260    4.7390 Zn       11 ZIL7        0.0000 
     43 N          26.6465   48.3300    4.4600 N.am      1 SEC2        0.0000 
     44 N          26.8660   46.7260    4.7390 N.am      9 SEL2        0.0000 
     45 N          26.4270   49.9340    4.1810 N.am      5 SEP2        0.0000 
     46 N          25.6730   46.8765    4.2445 N.am      1 SEC2        0.0000 
     47 N          24.4800   47.0270    3.7500 N.am      5 SEP2        0.0000 
     48 CA         31.0955   44.9295    8.5405 C.3       4 GLC5        0.0000 
     49 CA         29.2440   45.5190    7.8390 C.3      12 GLL5        0.0000 
     50 CA         32.9470   44.3400    9.2420 C.3       8 GLP5        0.0000 
     51 CA         31.0355   45.1710    9.7015 C.3       4 GLC5        0.0000 
     52 CA         29.1240   46.0020   10.1610 C.3      12 GLL5        0.0000 
     53 CA         29.8265   47.8525   12.1770 C.3       4 GLC5        0.0000 
     54 CA         28.4540   46.3800   11.3170 C.3      12 GLL5        0.0000 
     55 CA         28.5110   43.4580   11.1640 C.3       4 GLC5        0.0000 
     56 CA         28.2730   45.1250   12.1770 C.3      12 GLL5        0.0000 
     57 CA         28.7490   41.7910   10.1510 C.3       8 GLP5        0.0000 
     58 CA         26.7690   45.1395   17.7755 C.3       4 GLC5        0.0000 
     59 CA         27.0790   44.3320   15.7770 C.3      12 GLL5        0.0000 
     60 CA         26.4590   45.9470   19.7740 C.3       8 GLP5        0.0000 
     61 CA         32.2480   50.8685    6.8573 C.3       4 GLC5        0.0000 
     62 CA         31.6630   51.2300    4.9980 C.3       8 GLP5        0.0000 
     63 CA         30.3490   51.4265    8.7823 C.3       4 GLC5        0.0000 
     64 CA         29.0760   52.7150    8.6850 C.3       8 GLP5        0.0000 
     65 CA         31.3773   50.1910    6.6985 C.3       4 GLC5        0.0000 
     66 CA         30.7140   49.5493    5.9260 C.3       4 GLC5        0.0000 
     67 CA         29.8070   48.2660    7.4240 C.3      12 GLL5        0.0000 
     68 CA         28.8723   43.8291    9.7110 C.3       4 GLC5        0.0000 
     69 CA         26.9498   46.7760   10.0243 C.3       4 GLC5        0.0000 
     70 CA         25.2690   47.3750    9.6190 C.3       8 GLP5        0.0000 
     71 CA         27.9681   47.1369   13.6635 C.3       4 GLC5        0.0000 
     72 CA         27.8900   48.6970   14.6630 C.3       8 GLP5        0.0000 
     73 CA         29.7980   44.6955   13.8775 C.3       4 GLC5        0.0000 
     74 CA         27.6410   44.0950   14.3730 C.3      12 GLL5        0.0000 
     75 CA         31.7750   44.7120   14.1290 C.3       8 GLP5        0.0000 
     76 CA         27.6065   46.2223   15.5970 C.3       4 GLC5        0.0000 
     77 CA         27.8530   48.2310   16.1190 C.3       8 GLP5        0.0000 
     78 CA         25.5510   44.3465   14.1310 C.3       4 GLC5        0.0000 
     79 CA         23.7200   44.1530   13.3850 C.3       8 GLP5        0.0000 
@<TRIPOS>BOND
@<TRIPOS>SUBSTRUCTURE
     1 SEC2       19 GROUP        1 X    SEC  0     ROOT SEC X 2
     2 LYC4       16 GROUP        1 X    LYC  0     **** LYC X 4
     3 ZIC7       24 GROUP        1 X    ZIC  0     **** ZIC X 5
     4 GLC5        1 GROUP        1 X    GLC  0     **** GLC X 6
     5 SEP2       21 GROUP        1 Y    SEP  0     ROOT SEP Y 9
     6 LYP4       18 GROUP        1 Y    LYP  0     **** LYP Y 11
     7 ZIP7       26 GROUP        1 Y    ZIP  0     **** ZIP Y 12
     8 GLP5        3 GROUP        1 Y    GLP  0     **** GLP Y 13
     9 SEL2       20 GROUP        1 Z    SEL  0     ROOT SEL Z 16
    10 LYL4       17 GROUP        1 Z    LYL  0     **** LYL Z 18
    11 ZIL7       25 GROUP        1 Z    ZIL  0     **** ZIL Z 19
    12 GLL5        2 GROUP        1 Z    GLL  0     **** GLL Z 20
@<TRIPOS>SET

