#    Name: 2z4z_SC0_1_ligand
#    Modification time : Tue Mar 25 10:13:25 2014

@<TRIPOS>MOLECULE
2z4z_SC0_1_ligand
   55    54     1     0     0
SMALL
NO_CHARGES


@<TRIPOS>ATOM
      1 CAA        35.9680   51.0690    8.5200 C.3       1 SC01201     0.0000 
      2 CAM        34.4970   51.4970    8.5530 C.3       1 SC01201     0.0000 
      3 CAS        33.5630   50.2870    8.6430 C.3       1 SC01201     0.0000 
      4 CAU        32.1030   50.7270    8.7900 C.3       1 SC01201     0.0000 
      5 CAO        31.1410   49.5490    8.9690 C.3       1 SC01201     0.0000 
      6 CAI        31.0420   48.7550    7.8290 C.2       1 SC01201     0.0000 
      7 CAK        29.8070   48.2660    7.4240 C.2       1 SC01201     0.0000 
      8 CAQ        29.7230   47.4710    6.2840 C.3       1 SC01201     0.0000 
      9 CAW        28.9290   46.1770    6.4910 C.3       1 SC01201     0.0000 
     10 PAX        29.4610   44.9060    5.2370 P.3       1 SC01201     0.0000 
     11 OAE        30.9570   44.4510    5.6090 O.co2     1 SC01201     0.0000 
     12 OAF        28.5270   43.6160    5.4830 O.co2     1 SC01201     0.0000 
     13 OAC        29.3500   45.4280    3.8560 O.co2     1 SC01201     0.0000 
     14 PAY        27.1150   46.4610    6.1730 P.3       1 SC01201     0.0000 
     15 OAG        26.3360   45.1620    6.7120 O.co2     1 SC01201     0.0000 
     16 OAH        26.6880   47.7230    7.0740 O.co2     1 SC01201     0.0000 
     17 OAD        26.8660   46.7260    4.7390 O.co2     1 SC01201     0.0000 
     18 CAR        29.2440   45.5190    7.8390 C.3       1 SC01201     0.0000 
     19 CAL        28.4900   45.9460    8.9230 C.2       1 SC01201     0.0000 
     20 CAJ        29.1240   46.0020   10.1610 C.2       1 SC01201     0.0000 
     21 CAP        28.4540   46.3800   11.3170 C.3       1 SC01201     0.0000 
     22 CAV        28.2730   45.1250   12.1770 C.3       1 SC01201     0.0000 
     23 CAT        27.7290   45.4010   13.5810 C.3       1 SC01201     0.0000 
     24 CAN        27.6410   44.0950   14.3730 C.3       1 SC01201     0.0000 
     25 CAB        27.0790   44.3320   15.7770 C.3       1 SC01201     0.0000 
     26 H          34.2679   52.0601    7.6475 H         1 SC01201     0.0000 
     27 H          34.3316   52.1425    9.4164 H         1 SC01201     0.0000 
     28 H          33.8428   49.6814    9.5038 H         1 SC01201     0.0000 
     29 H          33.6667   49.6861    7.7406 H         1 SC01201     0.0000 
     30 H          31.8099   51.2957    7.8991 H         1 SC01201     0.0000 
     31 H          32.0165   51.3941    9.6563 H         1 SC01201     0.0000 
     32 H          30.1594   49.9791    9.2703 H         1 SC01201     0.0000 
     33 H          31.4977   48.9748    9.8535 H         1 SC01201     0.0000 
     34 H          31.8877   48.5311    7.2864 H         1 SC01201     0.0000 
     35 H          28.9615   48.4880    7.9598 H         1 SC01201     0.0000 
     36 H          30.7301   47.1707    5.9044 H         1 SC01201     0.0000 
     37 H          29.2420   48.0079    5.4303 H         1 SC01201     0.0000 
     38 H          30.3499   45.6676    8.0112 H         1 SC01201     0.0000 
     39 H          29.1521   44.4057    7.6752 H         1 SC01201     0.0000 
     40 H          27.5194   46.2063    8.8199 H         1 SC01201     0.0000 
     41 H          30.1350   45.7517   10.2207 H         1 SC01201     0.0000 
     42 H          27.4584   46.7842   11.1216 H         1 SC01201     0.0000 
     43 H          29.0097   47.1047   11.9159 H         1 SC01201     0.0000 
     44 H          29.2440   44.6106   12.2651 H         1 SC01201     0.0000 
     45 H          27.5886   44.4337   11.6585 H         1 SC01201     0.0000 
     46 H          26.7408   45.8409   13.5026 H         1 SC01201     0.0000 
     47 H          28.3928   46.0882   14.0941 H         1 SC01201     0.0000 
     48 H          28.6363   43.6573   14.4548 H         1 SC01201     0.0000 
     49 H          26.9944   43.3961   13.8417 H         1 SC01201     0.0000 
     50 H          36.5824   51.8556    8.4592 H         1 SC01201     0.0000 
     51 H          36.2250   50.5592    9.3410 H         1 SC01201     0.0000 
     52 H          36.1662   50.4810    7.7358 H         1 SC01201     0.0000 
     53 H          27.0203   43.4828   16.3018 H         1 SC01201     0.0000 
     54 H          27.6487   44.9631   16.3035 H         1 SC01201     0.0000 
     55 H          26.1589   44.7227   15.7477 H         1 SC01201     0.0000 
@<TRIPOS>BOND
     1    2    1 1    
     2   50    1 1    
     3   51    1 1    
     4   52    1 1    
     5    3    2 1    
     6   26    2 1    
     7   27    2 1    
     8    4    3 1    
     9   28    3 1    
    10   29    3 1    
    11    5    4 1    
    12   30    4 1    
    13   31    4 1    
    14    6    5 1    
    15   32    5 1    
    16   33    5 1    
    17    7    6 2    
    18   34    6 1    
    19    8    7 1    
    20   35    7 1    
    21    9    8 1    
    22   36    8 1    
    23   37    8 1    
    24   10    9 1    
    25   14    9 1    
    26   18    9 1    
    27   11   10 ar   
    28   12   10 ar   
    29   13   10 ar   
    30   15   14 ar   
    31   16   14 ar   
    32   17   14 ar   
    33   19   18 1    
    34   38   18 1    
    35   39   18 1    
    36   20   19 2    
    37   40   19 1    
    38   21   20 1    
    39   41   20 1    
    40   22   21 1    
    41   42   21 1    
    42   43   21 1    
    43   23   22 1    
    44   44   22 1    
    45   45   22 1    
    46   24   23 1    
    47   46   23 1    
    48   47   23 1    
    49   25   24 1    
    50   48   24 1    
    51   49   24 1    
    52   53   25 1    
    53   54   25 1    
    54   55   25 1    
@<TRIPOS>SUBSTRUCTURE
     1 SC01201     1 GROUP   
@<TRIPOS>SET

