#    Name: 3fv5_1EU_2_INTS_M
#    Modification time : Tue Mar 25 06:37:32 2014

@<TRIPOS>MOLECULE
3fv5_1EU_2_INTS_M
   47     0     6     0     0
SMALL
NO_CHARGES


@<TRIPOS>ATOM
      1 CA         18.5425   21.2355   40.0915 C.3       2 GLC5        0.0000 
      2 CA         19.9880   19.9940   40.0560 C.3       6 GLL5        0.0000 
      3 CA         17.0970   22.4770   40.1270 C.3       4 GLP5        0.0000 
      4 CA         21.3890   20.5215   43.4185 C.3       2 GLC5        0.0000 
      5 CA         20.8140   20.1100   41.3420 C.3       6 GLL5        0.0000 
      6 CA         21.9640   20.9330   45.4950 C.3       4 GLP5        0.0000 
      7 CA         20.6250   22.2505   41.4895 C.3       2 GLC5        0.0000 
      8 CA         20.4360   24.3910   41.6370 C.3       4 GLP5        0.0000 
      9 O          22.6350   21.8755   40.2960 O.2       1 ALC1        0.0000 
     10 O          22.0740   20.7900   41.0320 O.2       5 ALL1        0.0000 
     11 O          23.1960   22.9610   39.5600 O.2       3 ALP1        0.0000 
     12 O          23.7770   22.0485   40.4090 O.2       1 ALC1        0.0000 
     13 O          24.3580   21.1360   41.2580 O.2       5 ALL1        0.0000 
     14 CA         28.3410   16.3765   45.3920 C.3       2 GLC5        0.0000 
     15 CA         28.4290   18.0030   46.1400 C.3       6 GLL5        0.0000 
     16 CA         28.2530   14.7500   44.6440 C.3       4 GLP5        0.0000 
     17 CA         31.1935   18.8335   42.2820 C.3       2 GLC5        0.0000 
     18 CA         31.5540   20.6740   42.6970 C.3       6 GLL5        0.0000 
     19 CA         30.8330   16.9930   41.8670 C.3       4 GLP5        0.0000 
     20 CA         31.8470   21.9155   39.9245 C.3       2 GLC5        0.0000 
     21 CA         32.1970   20.6360   41.4150 C.3       6 GLL5        0.0000 
     22 CA         31.4970   23.1950   38.4340 C.3       4 GLP5        0.0000 
     23 CA         33.2675   22.6750   40.6590 C.3       2 GLC5        0.0000 
     24 CA         33.5910   20.8240   41.3310 C.3       6 GLL5        0.0000 
     25 CA         32.9440   24.5260   39.9870 C.3       4 GLP5        0.0000 
     26 CA         32.3355   18.9100   43.0020 C.3       2 GLC5        0.0000 
     27 CA         32.3660   20.9030   43.8440 C.3       6 GLL5        0.0000 
     28 CA         32.3050   16.9170   42.1600 C.3       4 GLP5        0.0000 
     29 CA         18.8930   19.5580   41.6230 C.3       2 GLC5        0.0000 
     30 CA         17.3850   19.0640   42.5470 C.3       4 GLP5        0.0000 
     31 CA         21.9695   19.0740   39.6590 C.3       2 GLC5        0.0000 
     32 CA         23.5380   18.0960   38.6190 C.3       4 GLP5        0.0000 
     33 CA         20.1715   18.2275   40.4955 C.3       2 GLC5        0.0000 
     34 CA         19.9420   16.4030   40.2920 C.3       4 GLP5        0.0000 
     35 CA         28.5270   19.1680   40.9960 C.3       2 GLC5        0.0000 
     36 CA         27.7910   20.9030   41.9900 C.3       6 GLL5        0.0000 
     37 CA         28.5640   17.3340   40.0520 C.3       4 GLP5        0.0000 
     38 CA         29.6643   18.9750   41.6562 C.3       2 GLC5        0.0000 
     39 CA         29.1890   21.1010   41.8900 C.3       6 GLL5        0.0000 
     40 CA         26.9958   18.3598   42.3518 C.3       2 GLC5        0.0000 
     41 CA         28.1320   19.4340   43.9630 C.3       6 GLL5        0.0000 
     42 CA         26.2960   16.9660   41.2120 C.3       4 GLP5        0.0000 
     43 CA         29.9011   18.3691   42.7575 C.3       2 GLC5        0.0000 
     44 CA         27.3792   22.3997   42.0590 C.3       2 GLC5        0.0000 
     45 CA         27.2590   20.0730   43.0200 C.3       6 GLL5        0.0000 
     46 CA         26.8840   24.2620   41.6380 C.3       4 GLP5        0.0000 
     47 CA         32.5995   18.8235   41.7665 C.3       2 GLC5        0.0000 
@<TRIPOS>BOND
@<TRIPOS>SUBSTRUCTURE
     1 ALC1        9 GROUP        1 X    ALC  0     ROOT ALC X 1
     2 GLC5        1 GROUP        1 X    GLC  0     **** GLC X 6
     3 ALP1       11 GROUP        1 Y    ALP  0     ROOT ALP Y 8
     4 GLP5        3 GROUP        1 Y    GLP  0     **** GLP Y 13
     5 ALL1       10 GROUP        1 Z    ALL  0     ROOT ALL Z 15
     6 GLL5        2 GROUP        1 Z    GLL  0     **** GLL Z 20
@<TRIPOS>SET

