#    Name: 3fv5_1EU_2_ligand
#    Modification time : Tue Mar 25 06:37:32 2014

@<TRIPOS>MOLECULE
3fv5_1EU_2_ligand
   41    43     1     0     0
SMALL
NO_CHARGES


@<TRIPOS>ATOM
      1 C1         19.9880   19.9940   40.0560 C.3       1 1EU1        0.0000 
      2 C2         20.8140   20.1100   41.3420 C.3       1 1EU1        0.0000 
      3 N3         22.0740   20.7900   41.0320 N.am      1 1EU1        0.0000 
      4 C4         23.2440   20.4520   41.6230 C.2       1 1EU1        0.0000 
      5 O5         23.2930   19.5460   42.4600 O.2       1 1EU1        0.0000 
      6 N6         24.3580   21.1360   41.2580 N.am      1 1EU1        0.0000 
      7 C7         25.6200   20.8730   41.7700 C.2       1 1EU1        0.0000 
      8 N8         26.7320   21.3550   41.2690 N.pl3     1 1EU1        0.0000 
      9 C9         27.7910   20.9030   41.9900 C.ar      1 1EU1        0.0000 
     10 C10        29.1890   21.1010   41.8900 C.ar      1 1EU1        0.0000 
     11 C11        30.0710   20.4720   42.8160 C.ar      1 1EU1        0.0000 
     12 C12        29.5420   19.6410   43.8500 C.ar      1 1EU1        0.0000 
     13 C13        28.1320   19.4340   43.9630 C.ar      1 1EU1        0.0000 
     14 C14        27.5590   18.5670   45.0320 C.2       1 1EU1        0.0000 
     15 O15        26.3700   18.2990   45.0210 O.2       1 1EU1        0.0000 
     16 C16        28.4290   18.0030   46.1400 C.3       1 1EU1        0.0000 
     17 C17        27.2590   20.0730   43.0200 C.ar      1 1EU1        0.0000 
     18 N18        25.8950   20.0800   42.8490 N.2       1 1EU1        0.0000 
     19 C20        31.5540   20.6740   42.6970 C.ar      1 1EU1        0.0000 
     20 C21        32.1970   20.6360   41.4150 C.ar      1 1EU1        0.0000 
     21 C22        33.5910   20.8240   41.3310 C.ar      1 1EU1        0.0000 
     22 C23        34.3190   21.0440   42.5130 C.ar      1 1EU1        0.0000 
     23 N24        33.6960   21.0760   43.7080 N.ar      1 1EU1        0.0000 
     24 C25        32.3660   20.9030   43.8440 C.ar      1 1EU1        0.0000 
     25 H          20.9941   19.1086   41.7241 H         1 1EU1        0.0000 
     26 H          20.2355   20.6722   42.0703 H         1 1EU1        0.0000 
     27 H          22.0187   21.5527   40.3271 H         1 1EU1        0.0000 
     28 H          24.2720   21.9143   40.5451 H         1 1EU1        0.0000 
     29 H          26.8147   21.9503   40.4959 H         1 1EU1        0.0000 
     30 H          29.5707   21.6953   41.1540 H         1 1EU1        0.0000 
     31 H          30.1732   19.1923   44.5119 H         1 1EU1        0.0000 
     32 H          31.6418   20.4741   40.5814 H         1 1EU1        0.0000 
     33 H          34.0600   20.8006   40.4313 H         1 1EU1        0.0000 
     34 H          35.3450   21.1803   42.4383 H         1 1EU1        0.0000 
     35 H          31.9038   20.9306   44.7655 H         1 1EU1        0.0000 
     36 H          20.4708   19.4759   39.3500 H         1 1EU1        0.0000 
     37 H          19.1162   19.5307   40.2151 H         1 1EU1        0.0000 
     38 H          19.7766   20.8912   39.6682 H         1 1EU1        0.0000 
     39 H          29.1605   17.4241   45.7796 H         1 1EU1        0.0000 
     40 H          28.8647   18.7269   46.6750 H         1 1EU1        0.0000 
     41 H          27.9006   17.4439   46.7789 H         1 1EU1        0.0000 
@<TRIPOS>BOND
     1    2    1 1    
     2   36    1 1    
     3   37    1 1    
     4   38    1 1    
     5    3    2 1    
     6   25    2 1    
     7   26    2 1    
     8    4    3 am   
     9   27    3 1    
    10    5    4 2    
    11    6    4 am   
    12    7    6 1    
    13   28    6 1    
    14    8    7 1    
    15   18    7 2    
    16    9    8 1    
    17   29    8 1    
    18   10    9 ar   
    19   17    9 ar   
    20   11   10 ar   
    21   30   10 1    
    22   12   11 ar   
    23   19   11 1    
    24   13   12 ar   
    25   31   12 1    
    26   14   13 1    
    27   17   13 ar   
    28   15   14 2    
    29   16   14 1    
    30   39   16 1    
    31   40   16 1    
    32   41   16 1    
    33   18   17 1    
    34   20   19 ar   
    35   24   19 ar   
    36   21   20 ar   
    37   32   20 1    
    38   22   21 ar   
    39   33   21 1    
    40   23   22 ar   
    41   34   22 1    
    42   24   23 ar   
    43   35   24 1    
@<TRIPOS>SUBSTRUCTURE
     1 1EU1        1 GROUP   
@<TRIPOS>SET

