#    Name: 1X29_1_CAVITY_N1_ALL.mol2
#    Modification time : Mon Mar 10 17:21:47 2014

@<TRIPOS>MOLECULE
1X29_1_CAVITY_N1_ALL.mol2
   50     0     7     0     0
SMALL
NO_CHARGES


@<TRIPOS>ATOM
      1 O          36.4703   72.2094   -2.9468 O.2       2 ALA2        0.0000 
      2 OG         34.3859   72.2115   -3.3409 O.2       1 SER1        0.0000 
      3 O          35.6124   71.8408   -4.1208 O.2       2 ALA2        0.0000 
      4 O          37.4265   73.9839   -2.2861 O.2       2 ALA2        0.0000 
      5 OG         32.8890   74.7272   -1.1205 O.2       1 SER1        0.0000 
      6 OG         34.1156   74.3566   -1.9004 O.2       1 SER1        0.0000 
      7 O          35.3421   73.9860   -2.6802 O.2       2 ALA2        0.0000 
      8 DU         36.5687   73.6154   -3.4601 H         7 CUB7        0.0000 
      9 CA         37.7953   73.2448   -4.2399 C.3       6 GLY6        0.0000 
     10 OG         33.2578   73.9881   -3.0744 O.2       1 SER1        0.0000 
     11 OD1        34.4843   73.6175   -3.8543 O.3       3 ASP3        0.0000 
     12 O          35.7109   73.2468   -4.6341 O.2       2 ALA2        0.0000 
     13 CA         36.9375   72.8762   -5.4140 C.3       6 GLY6        0.0000 
     14 N          34.8531   72.8783   -5.8081 N.2       2 ALA2        0.0000 
     15 CZ         32.6187   76.8724    0.3200 C.ar      5 PHE5        0.0000 
     16 CZ         33.8453   76.5018   -0.4598 C.ar      5 PHE5        0.0000 
     17 O          37.5250   75.3899   -2.7994 O.2       2 ALA2        0.0000 
     18 CA         38.7515   75.0193   -3.5792 C.3       6 GLY6        0.0000 
     19 CA         31.7609   76.5039   -0.8540 C.3       6 GLY6        0.0000 
     20 DU         32.9875   76.1332   -1.6338 H         7 CUB7        0.0000 
     21 CZ         34.2140   75.7626   -2.4137 C.ar      5 PHE5        0.0000 
     22 O          35.4406   75.3920   -3.1936 O.2       2 ALA2        0.0000 
     23 DU         36.6672   75.0214   -3.9734 H         7 CUB7        0.0000 
     24 CA         37.8937   74.6508   -4.7533 C.3       6 GLY6        0.0000 
     25 CA         32.1297   75.7647   -2.8079 C.3       6 GLY6        0.0000 
     26 CA         33.3562   75.3941   -3.5877 C.3       6 GLY6        0.0000 
     27 OG         34.5828   75.0234   -4.3676 O.2       1 SER1        0.0000 
     28 OG         35.8094   74.6528   -5.1474 O.2       1 SER1        0.0000 
     29 CZ         37.0359   74.2822   -5.9273 C.ar      5 PHE5        0.0000 
     30 NZ         31.4906   78.6490    0.5866 N.2       4 LYS4        0.0000 
     31 CZ         32.7172   78.2784   -0.1933 C.ar      5 PHE5        0.0000 
     32 O          37.6234   76.7959   -3.3127 O.2       2 ALA2        0.0000 
     33 O          38.8500   76.4253   -4.0926 O.2       2 ALA2        0.0000 
     34 NZ         30.6328   78.2805   -0.5874 N.2       4 LYS4        0.0000 
     35 CA         31.8594   77.9098   -1.3673 C.3       6 GLY6        0.0000 
     36 CZ         33.0859   77.5392   -2.1472 C.ar      5 PHE5        0.0000 
     37 CZ         34.3125   77.1686   -2.9270 C.ar      5 PHE5        0.0000 
     38 OG         35.5391   76.7980   -3.7069 O.2       1 SER1        0.0000 
     39 OG         36.7656   76.4274   -4.4867 O.2       1 SER1        0.0000 
     40 CA         37.9922   76.0568   -5.2666 C.3       6 GLY6        0.0000 
     41 CA         31.0016   77.5413   -2.5413 C.3       6 GLY6        0.0000 
     42 CA         32.2281   77.1707   -3.3212 C.3       6 GLY6        0.0000 
     43 OG         33.4547   76.8000   -4.1010 O.2       1 SER1        0.0000 
     44 O          31.9578   79.3158   -1.8806 O.2       2 ALA2        0.0000 
     45 OG         33.1844   78.9452   -2.6605 O.2       1 SER1        0.0000 
     46 OG         34.4110   78.5746   -3.4403 O.2       1 SER1        0.0000 
     47 OG         35.6375   78.2040   -4.2202 O.2       1 SER1        0.0000 
     48 OG         36.8641   77.8334   -5.0000 O.2       1 SER1        0.0000 
     49 CA         31.1000   78.9473   -3.0546 C.3       6 GLY6        0.0000 
     50 OG         32.3266   78.5767   -3.8345 O.2       1 SER1        0.0000 
@<TRIPOS>BOND
@<TRIPOS>SUBSTRUCTURE
     1 SER1        2 GROUP   
     2 ALA2        1 GROUP   
     3 ASP3       11 GROUP   
     4 LYS4       30 GROUP   
     5 PHE5       15 GROUP   
     6 GLY6        9 GROUP   
     7 CUB7        8 GROUP   
@<TRIPOS>SET

