#    Name: 1x29_PMG_1_INTS_M
#    Modification time : Tue Mar 25 09:33:51 2014

@<TRIPOS>MOLECULE
1x29_PMG_1_INTS_M
  108     0    12     0     0
SMALL
NO_CHARGES


@<TRIPOS>ATOM
      1 N          31.2225   77.5790    2.0650 N.am      2 SEC2        0.0000 
      2 N          31.8220   77.0030    1.0280 N.am     10 SEL2        0.0000 
      3 N          30.6230   78.1550    3.1020 N.am      6 SEP2        0.0000 
      4 CA         32.0915   75.9485    3.9090 C.3       4 GLC5        0.0000 
      5 CA         31.5920   74.8970    2.2420 C.3      12 GLL5        0.0000 
      6 CA         32.5910   77.0000    5.5760 C.3       8 GLP5        0.0000 
      7 CA         32.1010   72.9760    2.4565 C.3       4 GLC5        0.0000 
      8 CA         32.6100   71.0550    2.6710 C.3       8 GLP5        0.0000 
      9 CA         30.7380   73.5305    0.7195 C.3       4 GLC5        0.0000 
     10 CA         29.8840   72.1640   -0.8030 C.3       8 GLP5        0.0000 
     11 N          33.5235   72.7750    0.3580 N.am      2 SEC2        0.0000 
     12 N          32.8620   73.7460   -0.2900 N.am     10 SEL2        0.0000 
     13 N          34.1850   71.8040    1.0060 N.am      6 SEP2        0.0000 
     14 O          32.4090   72.8905   -1.1265 O.2       1 ALC1        0.0000 
     15 O          32.8620   73.7460   -0.2900 O.2       9 ALL1        0.0000 
     16 O          31.9560   72.0350   -1.9630 O.2       5 ALP1        0.0000 
     17 CA         35.0645   76.5915   -1.5500 C.3       4 GLC5        0.0000 
     18 CA         33.6870   75.4520   -2.7690 C.3      12 GLL5        0.0000 
     19 CA         36.4420   77.7310   -0.3310 C.3       8 GLP5        0.0000 
     20 CA         32.1655   79.5965    1.2660 C.3       4 GLC5        0.0000 
     21 CA         32.1280   77.9300    0.0260 C.3      12 GLL5        0.0000 
     22 CA         32.2030   81.2630    2.5060 C.3       8 GLP5        0.0000 
     23 CA         31.6240   80.1845   -2.3625 C.3       4 GLC5        0.0000 
     24 CA         32.9940   78.5320   -2.1670 C.3      12 GLL5        0.0000 
     25 CA         30.2540   81.8370   -2.5580 C.3       8 GLP5        0.0000 
     26 CA         33.3475   80.6935   -1.7515 C.3       4 GLC5        0.0000 
     27 CA         33.7010   82.8550   -1.3360 C.3       8 GLP5        0.0000 
     28 CA         34.4145   78.7020   -1.0185 C.3       4 GLC5        0.0000 
     29 CA         35.8350   78.8720    0.1300 C.3       8 GLP5        0.0000 
     30 N          31.0820   80.7940   -4.6280 N.am      2 SEC2        0.0000 
     31 N          31.5340   79.5970   -5.3090 N.am     10 SEL2        0.0000 
     32 N          30.6300   81.9910   -3.9470 N.am      6 SEP2        0.0000 
     33 N          30.2770   79.1085   -5.2525 N.am      2 SEC2        0.0000 
     34 N          29.0200   78.6200   -5.1960 N.am      6 SEP2        0.0000 
     35 N          31.3065   79.1185   -6.5780 N.am      2 SEC2        0.0000 
     36 N          31.0790   78.6400   -7.8470 N.am      6 SEP2        0.0000 
     37 NZ         33.8070   79.6955   -6.7115 N.4       3 LYC4        0.0000 
     38 NZ         33.8020   78.5450   -5.5370 N.4      11 LYL4        0.0000 
     39 NZ         34.5770   81.8420   -7.4540 N.4       7 LYP4        0.0000 
     40 N          33.8070   79.6955   -6.7115 N.am      2 SEC2        0.0000 
     41 N          33.8020   78.5450   -5.5370 N.am     10 SEL2        0.0000 
     42 N          33.8120   80.8460   -7.8860 N.am      6 SEP2        0.0000 
     43 N          33.9105   77.3635   -6.1410 N.am      2 SEC2        0.0000 
     44 N          34.0190   76.1820   -6.7450 N.am      6 SEP2        0.0000 
     45 NZ         34.1160   81.2890   -5.1685 N.4       3 LYC4        0.0000 
     46 NZ         33.4390   80.5970   -4.1770 N.4      11 LYL4        0.0000 
     47 N          33.0165   81.4435   -3.1405 N.am      2 SEC2        0.0000 
     48 N          33.4390   80.5970   -4.1770 N.am     10 SEL2        0.0000 
     49 N          32.5940   82.2900   -2.1040 N.am      6 SEP2        0.0000 
     50 N          34.3510   80.9035   -3.1870 N.am      2 SEC2        0.0000 
     51 N          35.2630   81.2100   -2.1970 N.am      6 SEP2        0.0000 
     52 N          34.1160   81.2890   -5.1685 N.am      2 SEC2        0.0000 
     53 N          34.7930   81.9810   -6.1600 N.am      6 SEP2        0.0000 
     54 CA         32.3970   72.1000   -3.0740 C.3       4 GLC5        0.0000 
     55 CA         34.1970   72.3460   -4.2070 C.3      12 GLL5        0.0000 
     56 CA         30.5970   71.8540   -1.9410 C.3       8 GLP5        0.0000 
     57 CA         39.0290   73.3920   -3.5860 C.3       4 GLC5        0.0000 
     58 CA         37.3950   74.5640   -4.4460 C.3      12 GLL5        0.0000 
     59 CA         40.6630   72.2200   -2.7260 C.3       8 GLP5        0.0000 
     60 CA         39.2715   75.1410   -5.0345 C.3       4 GLC5        0.0000 
     61 CA         41.1480   75.7180   -5.6230 C.3       8 GLP5        0.0000 
     62 NZ         38.3900   77.5010   -2.9835 N.4       3 LYC4        0.0000 
     63 NZ         37.2600   76.6480   -3.3600 N.4      11 LYL4        0.0000 
     64 NZ         40.4350   77.9770   -1.7320 N.4       7 LYP4        0.0000 
     65 N          38.3900   77.5010   -2.9835 N.am      2 SEC2        0.0000 
     66 N          37.2600   76.6480   -3.3600 N.am     10 SEL2        0.0000 
     67 N          39.5200   78.3540   -2.6070 N.am      6 SEP2        0.0000 
     68 NZ         39.3070   75.8580   -1.7440 N.4       3 LYC4        0.0000 
     69 NZ         38.2380   74.9550   -2.2810 N.4      11 LYL4        0.0000 
     70 N          37.5695   75.1460   -0.9950 N.am      2 SEC2        0.0000 
     71 N          38.2380   74.9550   -2.2810 N.am     10 SEL2        0.0000 
     72 N          36.9010   75.3370    0.2910 N.am      6 SEP2        0.0000 
     73 N          39.3070   75.8580   -1.7440 N.am      2 SEC2        0.0000 
     74 N          40.3760   76.7610   -1.2070 N.am      6 SEP2        0.0000 
     75 NZ         37.6475   70.4445   -2.5500 N.4       3 LYC4        0.0000 
     76 NZ         37.0740   71.6950   -3.3190 N.4      11 LYL4        0.0000 
     77 NZ         37.5320   68.8900   -0.6880 N.4       7 LYP4        0.0000 
     78 N          36.9050   70.7710   -4.3485 N.am      2 SEC2        0.0000 
     79 N          37.0740   71.6950   -3.3190 N.am     10 SEL2        0.0000 
     80 N          36.7360   69.8470   -5.3780 N.am      6 SEP2        0.0000 
     81 N          37.6475   70.4445   -2.5500 N.am      2 SEC2        0.0000 
     82 N          38.2210   69.1940   -1.7810 N.am      6 SEP2        0.0000 
     83 NZ         36.4290   71.0690   -0.7775 N.4       3 LYC4        0.0000 
     84 NZ         36.0740   72.3190   -1.4500 N.4      11 LYL4        0.0000 
     85 N          35.1295   72.0615   -0.2220 N.am      2 SEC2        0.0000 
     86 N          36.0740   72.3190   -1.4500 N.am     10 SEL2        0.0000 
     87 N          36.4290   71.0690   -0.7775 N.am      2 SEC2        0.0000 
     88 N          36.7840   69.8190   -0.1050 N.am      6 SEP2        0.0000 
     89 CA         33.5622   75.0025    2.5852 C.3       4 GLC5        0.0000 
     90 CA         32.0590   75.5690    0.9530 C.3      12 GLL5        0.0000 
     91 CA         35.2990   74.7720    3.5730 C.3       8 GLP5        0.0000 
     92 CA         30.5775   75.5865   -0.4982 C.3       4 GLC5        0.0000 
     93 CA         28.7830   75.8530   -1.3130 C.3       8 GLP5        0.0000 
     94 CA         32.4230   74.9803   -3.6750 C.3       4 GLC5        0.0000 
     95 CA         33.0450   75.9670   -1.4430 C.3      12 GLL5        0.0000 
     96 CA         31.4800   74.2510   -5.2440 C.3       8 GLP5        0.0000 
     97 CA         30.6445   76.5819   -0.9771 C.3       4 GLC5        0.0000 
     98 CA         35.0267   71.1407   -4.6810 C.3       4 GLC5        0.0000 
     99 CA         35.2260   73.2710   -3.5110 C.3      12 GLL5        0.0000 
    100 CA         35.3420   69.4730   -5.5030 C.3       8 GLP5        0.0000 
    101 CA         34.5157   70.9592   -3.1905 C.3       4 GLC5        0.0000 
    102 CA         34.3200   69.1100   -2.5220 C.3       8 GLP5        0.0000 
    103 CA         37.5485   73.0885   -5.8035 C.3       4 GLC5        0.0000 
    104 CA         35.9230   74.2160   -4.5600 C.3      12 GLL5        0.0000 
    105 CA         38.4380   71.7870   -7.1040 C.3       8 GLP5        0.0000 
    106 CA         33.3986   73.8816   -4.7267 C.3       4 GLC5        0.0000 
    107 CA         36.1925   74.7490   -6.2605 C.3       4 GLC5        0.0000 
    108 CA         35.7260   75.1080   -8.0180 C.3       8 GLP5        0.0000 
@<TRIPOS>BOND
@<TRIPOS>SUBSTRUCTURE
     1 ALC1       14 GROUP        1 X    ALC  0     ROOT ALC X 1
     2 SEC2        1 GROUP        1 X    SEC  0     **** SEC X 2
     3 LYC4       37 GROUP        1 X    LYC  0     **** LYC X 4
     4 GLC5        4 GROUP        1 X    GLC  0     **** GLC X 6
     5 ALP1       16 GROUP        1 Y    ALP  0     ROOT ALP Y 8
     6 SEP2        3 GROUP        1 Y    SEP  0     **** SEP Y 9
     7 LYP4       39 GROUP        1 Y    LYP  0     **** LYP Y 11
     8 GLP5        6 GROUP        1 Y    GLP  0     **** GLP Y 13
     9 ALL1       15 GROUP        1 Z    ALL  0     ROOT ALL Z 15
    10 SEL2        2 GROUP        1 Z    SEL  0     **** SEL Z 16
    11 LYL4       38 GROUP        1 Z    LYL  0     **** LYL Z 18
    12 GLL5        5 GROUP        1 Z    GLL  0     **** GLL Z 20
@<TRIPOS>SET

