#    Name: 1x29_PMG_1_ligand
#    Modification time : Tue Mar 25 09:33:51 2014

@<TRIPOS>MOLECULE
1x29_PMG_1_ligand
   42    42     1     0     0
SMALL
NO_CHARGES


@<TRIPOS>ATOM
      1 N1         31.8220   77.0030    1.0280 N.ar      1 PMG413      0.0000 
      2 C2         32.0590   75.5690    0.9530 C.ar      1 PMG413      0.0000 
      3 C2A        31.5920   74.8970    2.2420 C.3       1 PMG413      0.0000 
      4 C3         32.6850   75.0710   -0.3200 C.ar      1 PMG413      0.0000 
      5 O3         32.8620   73.7460   -0.2900 O.3       1 PMG413      0.0000 
      6 C4         33.0450   75.9670   -1.4430 C.ar      1 PMG413      0.0000 
      7 C4A        33.6870   75.4520   -2.7690 C.3       1 PMG413      0.0000 
      8 C5         32.7230   77.4160   -1.1740 C.ar      1 PMG413      0.0000 
      9 C6         32.1280   77.9300    0.0260 C.ar      1 PMG413      0.0000 
     10 C5A        32.9940   78.5320   -2.1670 C.3       1 PMG413      0.0000 
     11 OP4        32.6370   78.2930   -3.4670 O.3       1 PMG413      0.0000 
     12 P          32.8120   79.2900   -4.7000 P.3       1 PMG413      0.0000 
     13 OP1        31.5340   79.5970   -5.3090 O.co2     1 PMG413      0.0000 
     14 OP2        33.8020   78.5450   -5.5370 O.co2     1 PMG413      0.0000 
     15 OP3        33.4390   80.5970   -4.1770 O.co2     1 PMG413      0.0000 
     16 N          34.4930   74.0990   -2.5380 N.4       1 PMG413      0.0000 
     17 CA         35.2260   73.2710   -3.5110 C.3       1 PMG413      0.0000 
     18 CB2        34.1970   72.3460   -4.2070 C.3       1 PMG413      0.0000 
     19 CB1        35.9230   74.2160   -4.5600 C.3       1 PMG413      0.0000 
     20 CG         37.3950   74.5640   -4.4460 C.3       1 PMG413      0.0000 
     21 CD         37.6500   75.4600   -3.2770 C.2       1 PMG413      0.0000 
     22 OE1        37.2600   76.6480   -3.3600 O.co2     1 PMG413      0.0000 
     23 OE2        38.2380   74.9550   -2.2810 O.co2     1 PMG413      0.0000 
     24 C          36.2140   72.3500   -2.7030 C.2       1 PMG413      0.0000 
     25 O          37.0740   71.6950   -3.3190 O.co2     1 PMG413      0.0000 
     26 OXT        36.0740   72.3190   -1.4500 O.co2     1 PMG413      0.0000 
     27 H          34.3752   76.1946   -3.1476 H         1 PMG413      0.0000 
     28 H          32.9092   75.2619   -3.4951 H         1 PMG413      0.0000 
     29 H          31.9476   78.9063    0.1248 H         1 PMG413      0.0000 
     30 H          34.0950   78.7829   -2.0678 H         1 PMG413      0.0000 
     31 H          32.4870   79.4562   -1.7500 H         1 PMG413      0.0000 
     32 H          35.3205   75.1743   -4.5858 H         1 PMG413      0.0000 
     33 H          35.7303   73.7669   -5.5814 H         1 PMG413      0.0000 
     34 H          37.7165   75.0574   -5.3695 H         1 PMG413      0.0000 
     35 H          37.9719   73.6392   -4.3382 H         1 PMG413      0.0000 
     36 H          31.7396   73.9082    2.2199 H         1 PMG413      0.0000 
     37 H          32.0791   75.2483    3.0415 H         1 PMG413      0.0000 
     38 H          30.6164   75.0441    2.4052 H         1 PMG413      0.0000 
     39 H          34.6303   71.7525   -4.8853 H         1 PMG413      0.0000 
     40 H          33.7301   71.7512   -3.5526 H         1 PMG413      0.0000 
     41 H          33.4904   72.8689   -4.6837 H         1 PMG413      0.0000 
     42 H          32.5493   73.4230   -1.1832 H         1 PMG413      0.0000 
@<TRIPOS>BOND
     1    2    1 ar   
     2    9    1 ar   
     3    3    2 1    
     4    4    2 ar   
     5   36    3 1    
     6   37    3 1    
     7   38    3 1    
     8    5    4 1    
     9    6    4 ar   
    10   42    5 1    
    11    7    6 1    
    12    8    6 ar   
    13   16    7 1    
    14   27    7 1    
    15   28    7 1    
    16    9    8 ar   
    17   10    8 1    
    18   29    9 1    
    19   11   10 1    
    20   30   10 1    
    21   31   10 1    
    22   12   11 1    
    23   13   12 ar   
    24   14   12 ar   
    25   15   12 ar   
    26   17   16 1    
    27   18   17 1    
    28   19   17 1    
    29   24   17 1    
    30   39   18 1    
    31   40   18 1    
    32   41   18 1    
    33   20   19 1    
    34   32   19 1    
    35   33   19 1    
    36   21   20 1    
    37   34   20 1    
    38   35   20 1    
    39   22   21 ar   
    40   23   21 ar   
    41   25   24 ar   
    42   26   24 ar   
@<TRIPOS>SUBSTRUCTURE
     1 PMG413      1 GROUP   
@<TRIPOS>SET

