#    Name: 3bab_3BD_2_INTS_M
#    Modification time : Mon Mar 24 19:13:06 2014

@<TRIPOS>MOLECULE
3bab_3BD_2_INTS_M
   65     0     9     0     0
SMALL
NO_CHARGES


@<TRIPOS>ATOM
      1 CA         24.0555   33.0215   52.9920 C.3       3 GLC5        0.0000 
      2 CA         24.8580   33.4300   51.2730 C.3       9 GLL5        0.0000 
      3 CA         23.2530   32.6130   54.7110 C.3       6 GLP5        0.0000 
      4 CA         25.7500   37.7485   53.8610 C.3       3 GLC5        0.0000 
      5 CA         23.5970   37.3980   53.5330 C.3       9 GLL5        0.0000 
      6 CA         27.9030   38.0990   54.1890 C.3       6 GLP5        0.0000 
      7 CA         24.0010   37.2855   55.6415 C.3       3 GLC5        0.0000 
      8 CA         24.4050   37.1730   57.7500 C.3       6 GLP5        0.0000 
      9 CA         20.9745   37.7735   50.7915 C.3       3 GLC5        0.0000 
     10 CA         21.5250   38.4410   52.6520 C.3       9 GLL5        0.0000 
     11 CA         20.4240   37.1060   48.9310 C.3       6 GLP5        0.0000 
     12 CA         20.2645   39.5575   51.3940 C.3       3 GLC5        0.0000 
     13 CA         19.0040   40.6740   50.1360 C.3       6 GLP5        0.0000 
     14 CA         22.0535   35.1890   55.3025 C.3       3 GLC5        0.0000 
     15 CA         21.4390   37.0200   54.7050 C.3       9 GLL5        0.0000 
     16 CA         22.6680   33.3580   55.9000 C.3       6 GLP5        0.0000 
     17 CA         19.5400   36.4190   54.4260 C.3       3 GLC5        0.0000 
     18 CA         17.6410   35.8180   54.1470 C.3       6 GLP5        0.0000 
     19 CA         22.9220   37.0965   56.2275 C.3       3 GLC5        0.0000 
     20 CA         21.1330   36.2825   56.6045 C.3       3 GLC5        0.0000 
     21 CA         20.8270   35.5450   58.5040 C.3       6 GLP5        0.0000 
     22 CA         26.3850   33.6405   47.9655 C.3       3 GLC5        0.0000 
     23 CA         24.6990   32.4320   48.5470 C.3       9 GLL5        0.0000 
     24 CA         28.0710   34.8490   47.3840 C.3       6 GLP5        0.0000 
     25 N          17.4105   29.6770   48.5330 N.am      2 SEC2        0.0000 
     26 N          17.6870   31.0150   48.7550 N.am      8 SEL2        0.0000 
     27 N          17.1340   28.3390   48.3110 N.am      5 SEP2        0.0000 
     28 CA         17.5090   34.8415   49.7245 C.3       3 GLC5        0.0000 
     29 CA         18.3680   33.2050   50.5400 C.3       9 GLL5        0.0000 
     30 CA         16.6500   36.4780   48.9090 C.3       6 GLP5        0.0000 
     31 CA         19.3655   33.6050   53.1910 C.3       3 GLC5        0.0000 
     32 CA         20.1440   34.5530   51.4520 C.3       9 GLL5        0.0000 
     33 CA         18.5870   32.6570   54.9300 C.3       6 GLP5        0.0000 
     34 CA         18.8925   35.1855   52.7995 C.3       3 GLC5        0.0000 
     35 CA         22.5195   34.2800   53.5695 C.3       3 GLC5        0.0000 
     36 CA         21.7860   35.9470   52.4280 C.3       9 GLL5        0.0000 
     37 CA         19.7135   35.8825   53.2875 C.3       3 GLC5        0.0000 
     38 N          18.0490   35.2840   52.0400 N.am      2 SEC2        0.0000 
     39 N          18.8220   34.2840   51.2890 N.am      8 SEL2        0.0000 
     40 N          17.2760   36.2840   52.7910 N.am      5 SEP2        0.0000 
     41 CA         22.3570   32.9495   52.5510 C.3       3 GLC5        0.0000 
     42 CA         22.5230   34.1110   51.0910 C.3       9 GLL5        0.0000 
     43 CA         22.1910   31.7880   54.0110 C.3       6 GLP5        0.0000 
     44 O          15.9280   34.0805   50.9220 O.2       1 ALC1        0.0000 
     45 O          16.9840   33.0160   50.4390 O.2       7 ALL1        0.0000 
     46 O          14.8720   35.1450   51.4050 O.2       4 ALP1        0.0000 
     47 O          19.7005   29.1640   47.7160 O.2       1 ALC1        0.0000 
     48 O          19.8770   30.2780   48.7460 O.2       7 ALL1        0.0000 
     49 O          19.5240   28.0500   46.6860 O.2       4 ALP1        0.0000 
     50 CA         22.3305   34.8955   48.5105 C.3       3 GLC5        0.0000 
     51 CA         23.7960   33.5600   49.0720 C.3       9 GLL5        0.0000 
     52 CA         20.8650   36.2310   47.9490 C.3       6 GLP5        0.0000 
     53 CA         27.4900   33.1460   48.1170 C.3       3 GLC5        0.0000 
     54 CA         26.9090   31.4430   48.8500 C.3       9 GLL5        0.0000 
     55 CA         26.7422   33.3755   52.2975 C.3       3 GLC5        0.0000 
     56 CA         25.7650   32.2940   50.8130 C.3       9 GLL5        0.0000 
     57 CA         28.1730   33.8890   53.5520 C.3       6 GLP5        0.0000 
     58 CA         21.4399   38.7597   55.2373 C.3       3 GLC5        0.0000 
     59 CA         21.2570   40.1040   56.6290 C.3       6 GLP5        0.0000 
     60 CA         24.3487   33.5940   47.1247 C.3       3 GLC5        0.0000 
     61 CA         24.4500   34.1920   45.4400 C.3       6 GLP5        0.0000 
     62 CA         19.0302   31.7123   51.7570 C.3       3 GLC5        0.0000 
     63 CA         20.6760   32.6220   50.0780 C.3       9 GLL5        0.0000 
     64 CA         18.3070   30.7280   53.3630 C.3       6 GLP5        0.0000 
     65 CA         21.3589   32.8271   52.4850 C.3       3 GLC5        0.0000 
@<TRIPOS>BOND
@<TRIPOS>SUBSTRUCTURE
     1 ALC1       44 GROUP        1 X    ALC  0     ROOT ALC X 1
     2 SEC2       25 GROUP        1 X    SEC  0     **** SEC X 2
     3 GLC5        1 GROUP        1 X    GLC  0     **** GLC X 6
     4 ALP1       46 GROUP        1 Y    ALP  0     ROOT ALP Y 8
     5 SEP2       27 GROUP        1 Y    SEP  0     **** SEP Y 9
     6 GLP5        3 GROUP        1 Y    GLP  0     **** GLP Y 13
     7 ALL1       45 GROUP        1 Z    ALL  0     ROOT ALL Z 15
     8 SEL2       26 GROUP        1 Z    SEL  0     **** SEL Z 16
     9 GLL5        2 GROUP        1 Z    GLL  0     **** GLL Z 20
@<TRIPOS>SET

