#    Name: 3bab_3BD_2_ligand
#    Modification time : Mon Mar 24 19:13:06 2014

@<TRIPOS>MOLECULE
3bab_3BD_2_ligand
   55    58     1     0     0
SMALL
NO_CHARGES


@<TRIPOS>ATOM
      1 C12        18.8680   31.1550   49.0860 C.2       1 3BD501      0.0000 
      2 C13        24.8580   33.4300   51.2730 C.3       1 3BD501      0.0000 
      3 C8         22.0880   37.1810   53.3200 C.3       1 3BD501      0.0000 
      4 C9         23.5970   37.3980   53.5330 C.3       1 3BD501      0.0000 
      5 C10        21.5250   38.4410   52.6520 C.3       1 3BD501      0.0000 
      6 C11        21.4390   37.0200   54.7050 C.3       1 3BD501      0.0000 
      7 C14        25.7650   32.2940   50.8130 C.3       1 3BD501      0.0000 
      8 C15        24.6990   32.4320   48.5470 C.3       1 3BD501      0.0000 
      9 O1         17.6870   31.0150   48.7550 O.2       1 3BD501      0.0000 
     10 N3         20.4640   35.6220   52.2100 N.ar      1 3BD501      0.0000 
     11 C1         18.3680   33.2050   50.5400 C.ar      1 3BD501      0.0000 
     12 C2         19.2940   32.3370   49.9080 C.ar      1 3BD501      0.0000 
     13 C3         20.6760   32.6220   50.0780 C.ar      1 3BD501      0.0000 
     14 C4         20.1440   34.5530   51.4520 C.ar      1 3BD501      0.0000 
     15 C7         21.7860   35.9470   52.4280 C.ar      1 3BD501      0.0000 
     16 N1         18.8220   34.2840   51.2890 N.ar      1 3BD501      0.0000 
     17 N2         22.8230   35.2200   51.8840 N.ar      1 3BD501      0.0000 
     18 C5         21.1430   33.7370   50.8540 C.ar      1 3BD501      0.0000 
     19 C6         22.5230   34.1110   51.0910 C.ar      1 3BD501      0.0000 
     20 N4         16.9840   33.0160   50.4390 N.pl3     1 3BD501      0.0000 
     21 N5         19.8770   30.2780   48.7460 N.am      1 3BD501      0.0000 
     22 N6         23.5730   33.3410   50.5310 N.3       1 3BD501      0.0000 
     23 N7         25.9570   32.3900   49.3440 N.3       1 3BD501      0.0000 
     24 C16        23.7960   33.5600   49.0720 C.3       1 3BD501      0.0000 
     25 C17        26.9090   31.4430   48.8500 C.ar      1 3BD501      0.0000 
     26 N8         26.9180   31.1130   47.5060 N.ar      1 3BD501      0.0000 
     27 C18        27.8490   30.2110   47.0600 C.ar      1 3BD501      0.0000 
     28 C19        28.7990   29.5970   47.8810 C.ar      1 3BD501      0.0000 
     29 C20        28.7350   29.9710   49.2200 C.ar      1 3BD501      0.0000 
     30 N9         27.8230   30.8700   49.7180 N.ar      1 3BD501      0.0000 
     31 H          25.3484   34.3755   51.0687 H         1 3BD501      0.0000 
     32 H          24.6868   33.3327   52.3395 H         1 3BD501      0.0000 
     33 H          25.3001   31.3469   51.0737 H         1 3BD501      0.0000 
     34 H          26.7192   32.3775   51.3265 H         1 3BD501      0.0000 
     35 H          24.1626   31.4911   48.6340 H         1 3BD501      0.0000 
     36 H          24.9187   32.6239   47.5003 H         1 3BD501      0.0000 
     37 H          21.3757   32.0083   49.6294 H         1 3BD501      0.0000 
     38 H          16.4121   33.7074   50.8805 H         1 3BD501      0.0000 
     39 H          16.6862   32.2058   49.9340 H         1 3BD501      0.0000 
     40 H          19.6117   29.5030   48.1724 H         1 3BD501      0.0000 
     41 H          20.7860   30.4935   49.1027 H         1 3BD501      0.0000 
     42 H          22.8572   33.5301   48.5364 H         1 3BD501      0.0000 
     43 H          24.2898   34.5068   48.9020 H         1 3BD501      0.0000 
     44 H          27.8579   29.9566   46.0323 H         1 3BD501      0.0000 
     45 H          29.4621   28.9493   47.5353 H         1 3BD501      0.0000 
     46 H          29.4304   29.5348   49.8858 H         1 3BD501      0.0000 
     47 H          24.0274   36.6091   53.9716 H         1 3BD501      0.0000 
     48 H          24.0760   37.5502   52.6685 H         1 3BD501      0.0000 
     49 H          23.7798   38.1918   54.1131 H         1 3BD501      0.0000 
     50 H          21.6603   39.2538   53.2186 H         1 3BD501      0.0000 
     51 H          21.9627   38.6216   51.7712 H         1 3BD501      0.0000 
     52 H          20.5428   38.3633   52.4807 H         1 3BD501      0.0000 
     53 H          21.8181   36.2410   55.2045 H         1 3BD501      0.0000 
     54 H          21.5766   37.8294   55.2760 H         1 3BD501      0.0000 
     55 H          20.4521   36.8730   54.6379 H         1 3BD501      0.0000 
@<TRIPOS>BOND
     1    9    1 2    
     2   12    1 1    
     3   21    1 am   
     4    7    2 1    
     5   22    2 1    
     6   31    2 1    
     7   32    2 1    
     8    4    3 1    
     9    5    3 1    
    10    6    3 1    
    11   15    3 1    
    12   47    4 1    
    13   48    4 1    
    14   49    4 1    
    15   50    5 1    
    16   51    5 1    
    17   52    5 1    
    18   53    6 1    
    19   54    6 1    
    20   55    6 1    
    21   23    7 1    
    22   33    7 1    
    23   34    7 1    
    24   23    8 1    
    25   24    8 1    
    26   35    8 1    
    27   36    8 1    
    28   14   10 ar   
    29   15   10 ar   
    30   12   11 ar   
    31   16   11 ar   
    32   20   11 1    
    33   13   12 ar   
    34   18   13 ar   
    35   37   13 1    
    36   16   14 ar   
    37   18   14 ar   
    38   17   15 ar   
    39   19   17 ar   
    40   19   18 ar   
    41   22   19 1    
    42   38   20 1    
    43   39   20 1    
    44   40   21 1    
    45   41   21 1    
    46   24   22 1    
    47   25   23 1    
    48   42   24 1    
    49   43   24 1    
    50   26   25 ar   
    51   30   25 ar   
    52   27   26 ar   
    53   28   27 ar   
    54   44   27 1    
    55   29   28 ar   
    56   45   28 1    
    57   30   29 ar   
    58   46   29 1    
@<TRIPOS>SUBSTRUCTURE
     1 3BD501      1 GROUP   
@<TRIPOS>SET

