#    Name: 2zfx_YR3_1_INTS_M
#    Modification time : Tue Mar 25 10:42:34 2014

@<TRIPOS>MOLECULE
2zfx_YR3_1_INTS_M
  116     0     9     0     0
SMALL
NO_CHARGES


@<TRIPOS>ATOM
      1 CA          8.4535   11.1045    9.1530 C.3       3 GLC5        0.0000 
      2 CA          9.8880   11.9550    9.9850 C.3       9 GLL5        0.0000 
      3 CA          7.0190   10.2540    8.3210 C.3       6 GLP5        0.0000 
      4 CA         14.9765    8.8900   11.0190 C.3       3 GLC5        0.0000 
      5 CA         14.0060   10.1690    9.9650 C.3       9 GLL5        0.0000 
      6 CA         15.9470    7.6110   12.0730 C.3       6 GLP5        0.0000 
      7 CA         16.0655    9.7040    9.4170 C.3       3 GLC5        0.0000 
      8 CA         18.1250    9.2390    8.8690 C.3       6 GLP5        0.0000 
      9 CA         12.9515   13.2675    9.7250 C.3       3 GLC5        0.0000 
     10 CA         14.2560   11.6820    9.8360 C.3       9 GLL5        0.0000 
     11 CA         11.6470   14.8530    9.6140 C.3       6 GLP5        0.0000 
     12 CA         15.6675   13.0305    9.9915 C.3       3 GLC5        0.0000 
     13 CA         17.0790   14.3790   10.1470 C.3       6 GLP5        0.0000 
     14 CA         10.5350    6.9300    7.1590 C.3       3 GLC5        0.0000 
     15 CA         12.0980    7.0980    8.4590 C.3       9 GLL5        0.0000 
     16 CA          8.9720    6.7620    5.8590 C.3       6 GLP5        0.0000 
     17 CA         11.3655    5.4700    9.2480 C.3       3 GLC5        0.0000 
     18 CA         10.6330    3.8420   10.0370 C.3       6 GLP5        0.0000 
     19 CA         16.2300    9.6185    7.9985 C.3       3 GLC5        0.0000 
     20 CA         14.3350    9.9980    7.1280 C.3       9 GLL5        0.0000 
     21 CA         14.8760    9.8305    3.2915 C.3       3 GLC5        0.0000 
     22 CA         13.3580   10.2840    4.8830 C.3       9 GLL5        0.0000 
     23 CA         16.3940    9.3770    1.7000 C.3       6 GLP5        0.0000 
     24 N          15.1800   11.4720    1.3465 N.am      2 SEC2        0.0000 
     25 N          14.0820   12.2650    1.4160 N.am      8 SEL2        0.0000 
     26 N          16.2780   10.6790    1.2770 N.am      5 SEP2        0.0000 
     27 N          14.8995   13.2025    1.9875 N.am      2 SEC2        0.0000 
     28 N          15.7170   14.1400    2.5590 N.am      5 SEP2        0.0000 
     29 CA         12.6440    9.1650    1.0875 C.3       3 GLC5        0.0000 
     30 CA         12.9280   11.3790    1.3590 C.3       9 GLL5        0.0000 
     31 CA         12.3600    6.9510    0.8160 C.3       6 GLP5        0.0000 
     32 CA          8.7430   11.3275    0.9935 C.3       3 GLC5        0.0000 
     33 CA         10.5270   11.1740    0.6260 C.3       9 GLL5        0.0000 
     34 CA          6.9590   11.4810    1.3610 C.3       6 GLP5        0.0000 
     35 CA         12.1775   14.5695   -0.8360 C.3       3 GLC5        0.0000 
     36 CA         11.5770   13.4180    0.6020 C.3       9 GLL5        0.0000 
     37 CA         12.7780   15.7210   -2.2740 C.3       6 GLP5        0.0000 
     38 CA         10.3795   14.9640    0.0515 C.3       3 GLC5        0.0000 
     39 CA          9.1820   16.5100   -0.4990 C.3       6 GLP5        0.0000 
     40 CA         11.9280   15.0945    1.5025 C.3       3 GLC5        0.0000 
     41 CA         12.2790   16.7710    2.4030 C.3       6 GLP5        0.0000 
     42 CA         13.1775   13.4510   -1.4125 C.3       3 GLC5        0.0000 
     43 CA         12.3530   11.6920   -0.9890 C.3       9 GLL5        0.0000 
     44 CA         14.0020   15.2100   -1.8360 C.3       6 GLP5        0.0000 
     45 CA         12.9730   11.5735   -2.6660 C.3       3 GLC5        0.0000 
     46 CA         13.5930   11.4550   -4.3430 C.3       6 GLP5        0.0000 
     47 CA         11.2345   12.0460    3.9825 C.3       3 GLC5        0.0000 
     48 CA         12.4440   11.0700    2.7810 C.3       9 GLL5        0.0000 
     49 CA         10.0250   13.0220    5.1840 C.3       6 GLP5        0.0000 
     50 CA         16.0090    8.6125    5.0525 C.3       3 GLC5        0.0000 
     51 CA         15.9210   10.4380    5.2130 C.3       9 GLL5        0.0000 
     52 CA         16.0970    6.7870    4.8920 C.3       6 GLP5        0.0000 
     53 CA         16.1575    9.9075    3.4565 C.3       3 GLC5        0.0000 
     54 CA         17.7465   10.6485    4.5655 C.3       3 GLC5        0.0000 
     55 CA         19.5720   10.8590    3.9180 C.3       6 GLP5        0.0000 
     56 CA         17.0230    9.8385    7.0410 C.3       3 GLC5        0.0000 
     57 CA         16.4320   12.0940    4.1315 C.3       3 GLC5        0.0000 
     58 CA         16.9430   13.7500    3.0500 C.3       6 GLP5        0.0000 
     59 CA         10.6755    9.0335    4.5185 C.3       3 GLC5        0.0000 
     60 CA         12.0860   10.0980    5.4310 C.3       9 GLL5        0.0000 
     61 CA          9.2650    7.9690    3.6060 C.3       6 GLP5        0.0000 
     62 CA         10.4550    8.3190    6.3235 C.3       3 GLC5        0.0000 
     63 CA         11.9380    9.8760    6.7880 C.3       9 GLL5        0.0000 
     64 CA          8.6155    9.1330   10.6385 C.3       3 GLC5        0.0000 
     65 CA          9.3400    9.2260   12.7060 C.3       9 GLL5        0.0000 
     66 CA          7.8910    9.0400    8.5710 C.3       6 GLP5        0.0000 
     67 CA         11.0015   10.3850   13.1865 C.3       3 GLC5        0.0000 
     68 CA         12.6630   11.5440   13.6670 C.3       6 GLP5        0.0000 
     69 CA         10.4155    7.5230   13.1865 C.3       3 GLC5        0.0000 
     70 CA         11.4910    5.8200   13.6670 C.3       6 GLP5        0.0000 
     71 CA          8.1240    8.1700   13.4575 C.3       3 GLC5        0.0000 
     72 CA          6.9080    7.1140   14.2090 C.3       6 GLP5        0.0000 
     73 CA          9.0295    7.2695   11.7395 C.3       3 GLC5        0.0000 
     74 CA          8.7190    5.3130   10.7730 C.3       6 GLP5        0.0000 
     75 CA         10.2930   12.1220   14.0370 C.3       3 GLC5        0.0000 
     76 CA          8.5240   12.2630   13.0500 C.3       9 GLL5        0.0000 
     77 CA         12.0620   11.9810   15.0240 C.3       6 GLP5        0.0000 
     78 N           6.9875   15.4465   13.4085 N.am      2 SEC2        0.0000 
     79 N           7.4800   14.4050   12.6520 N.am      8 SEL2        0.0000 
     80 N           6.4950   16.4880   14.1650 N.am      5 SEP2        0.0000 
     81 O           7.3860   14.4205   11.2620 O.2       1 ALC1        0.0000 
     82 O           7.4800   14.4050   12.6520 O.2       7 ALL1        0.0000 
     83 O           7.2920   14.4360    9.8720 O.2       4 ALP1        0.0000 
     84 CA          5.5995   11.0510   15.2345 C.3       3 GLC5        0.0000 
     85 CA          6.1680   12.6530   13.7650 C.3       9 GLL5        0.0000 
     86 CA          5.0310    9.4490   16.7040 C.3       6 GLP5        0.0000 
     87 CA          5.0525   11.0950   13.0215 C.3       3 GLC5        0.0000 
     88 CA          3.9370    9.5370   12.2780 C.3       6 GLP5        0.0000 
     89 CA          4.3140   13.4040   12.7925 C.3       3 GLC5        0.0000 
     90 CA          2.4600   14.1550   11.8200 C.3       6 GLP5        0.0000 
     91 CA         11.0503   13.2635    9.6430 C.3       3 GLC5        0.0000 
     92 CA          8.7508    9.8420    9.9352 C.3       3 GLC5        0.0000 
     93 CA          9.3080   11.2860   11.0620 C.3       9 GLL5        0.0000 
     94 CA         11.1367   11.0940   12.4832 C.3       3 GLC5        0.0000 
     95 CA         11.9850   10.6910   11.9973 C.3       3 GLC5        0.0000 
     96 CA         11.0290    9.5130   10.8800 C.3       9 GLL5        0.0000 
     97 CA          9.5270    9.8277    9.2071 C.3       3 GLC5        0.0000 
     98 CA         13.3330    6.4825   10.2980 C.3       3 GLC5        0.0000 
     99 CA         14.1440    5.4090   11.6980 C.3       6 GLP5        0.0000 
    100 CA         13.7270    6.6125    7.8280 C.3       3 GLC5        0.0000 
    101 CA         12.9460    8.0140    9.3370 C.3       9 GLL5        0.0000 
    102 CA         14.9320    5.6690    6.7580 C.3       6 GLP5        0.0000 
    103 CA         13.3970   11.2348   11.7837 C.3       3 GLC5        0.0000 
    104 CA         14.9971    8.4940    5.2797 C.3       3 GLC5        0.0000 
    105 CA         14.5400   10.3008    1.8850 C.3       3 GLC5        0.0000 
    106 CA         10.8986   10.4276   -1.3521 C.3       3 GLC5        0.0000 
    107 CA         11.8440   11.9270    0.4230 C.3       9 GLL5        0.0000 
    108 CA         10.0280    9.2340   -2.4720 C.3       6 GLP5        0.0000 
    109 CA         10.4011   12.4146   -1.4999 C.3       3 GLC5        0.0000 
    110 CA          8.9350   12.7410   -2.7870 C.3       6 GLP5        0.0000 
    111 CA         11.1775   11.5278    5.5783 C.3       3 GLC5        0.0000 
    112 CA          9.0475   14.3588   13.8302 C.3       3 GLC5        0.0000 
    113 CA         10.0630   15.9360   14.3540 C.3       6 GLP5        0.0000 
    114 CA          7.0500   13.3008   15.5860 C.3       3 GLC5        0.0000 
    115 CA          7.5400   13.3000   13.5630 C.3       9 GLL5        0.0000 
    116 CA          7.2460   13.6250   17.5080 C.3       6 GLP5        0.0000 
@<TRIPOS>BOND
@<TRIPOS>SUBSTRUCTURE
     1 ALC1       81 GROUP        1 X    ALC  0     ROOT ALC X 1
     2 SEC2       24 GROUP        1 X    SEC  0     **** SEC X 2
     3 GLC5        1 GROUP        1 X    GLC  0     **** GLC X 6
     4 ALP1       83 GROUP        1 Y    ALP  0     ROOT ALP Y 8
     5 SEP2       26 GROUP        1 Y    SEP  0     **** SEP Y 9
     6 GLP5        3 GROUP        1 Y    GLP  0     **** GLP Y 13
     7 ALL1       82 GROUP        1 Z    ALL  0     ROOT ALL Z 15
     8 SEL2       25 GROUP        1 Z    SEL  0     **** SEL Z 16
     9 GLL5        2 GROUP        1 Z    GLL  0     **** GLL Z 20
@<TRIPOS>SET

