#    Name: 2zfx_YR3_1_ligand
#    Modification time : Tue Mar 25 10:42:34 2014

@<TRIPOS>MOLECULE
2zfx_YR3_1_ligand
   75    76     1     0     0
SMALL
NO_CHARGES


@<TRIPOS>ATOM
      1 C1          9.8880   11.9550    9.9850 C.ar      1 YR31        0.0000 
      2 C2          9.3080   11.2860   11.0620 C.ar      1 YR31        0.0000 
      3 C3          9.9130   10.0020   11.5370 C.ar      1 YR31        0.0000 
      4 C4         11.0290    9.5130   10.8800 C.ar      1 YR31        0.0000 
      5 C5         11.5850   10.1630    9.7750 C.ar      1 YR31        0.0000 
      6 C6         11.0190   11.3930    9.3590 C.ar      1 YR31        0.0000 
      7 C7         12.8470    9.5550    9.1370 C.3       1 YR31        0.0000 
      8 C8         13.0410    9.8230    7.6510 C.ar      1 YR31        0.0000 
      9 C9         12.9460    8.0140    9.3370 C.3       1 YR31        0.0000 
     10 C10        14.0060   10.1690    9.9650 C.3       1 YR31        0.0000 
     11 C11        14.2560   11.6820    9.8360 C.3       1 YR31        0.0000 
     12 C12        12.0980    7.0980    8.4590 C.3       1 YR31        0.0000 
     13 C13        14.3350    9.9980    7.1280 C.ar      1 YR31        0.0000 
     14 C14        14.5380   10.2380    5.7760 C.ar      1 YR31        0.0000 
     15 C15        13.3580   10.2840    4.8830 C.ar      1 YR31        0.0000 
     16 O33        14.0820   12.2650    1.4160 O.3       1 YR31        0.0000 
     17 C22        12.9280   11.3790    1.3590 C.3       1 YR31        0.0000 
     18 C23        11.8440   11.9270    0.4230 C.3       1 YR31        0.0000 
     19 C26        10.5270   11.1740    0.6260 C.3       1 YR31        0.0000 
     20 C25        11.5770   13.4180    0.6020 C.3       1 YR31        0.0000 
     21 C24        12.3530   11.6920   -0.9890 C.3       1 YR31        0.0000 
     22 C21        12.4440   11.0700    2.7810 C.3       1 YR31        0.0000 
     23 O20        13.5300   10.5170    3.5370 O.3       1 YR31        0.0000 
     24 C18        15.9210   10.4380    5.2130 C.3       1 YR31        0.0000 
     25 C16        12.0860   10.0980    5.4310 C.ar      1 YR31        0.0000 
     26 C17        11.9380    9.8760    6.7880 C.ar      1 YR31        0.0000 
     27 C19         9.3400    9.2260   12.7060 C.3       1 YR31        0.0000 
     28 O27         8.2310   11.7970   11.7300 O.3       1 YR31        0.0000 
     29 C28         8.5240   12.2630   13.0500 C.3       1 YR31        0.0000 
     30 C29         7.5400   13.3000   13.5630 C.3       1 YR31        0.0000 
     31 O32         7.4800   14.4050   12.6520 O.3       1 YR31        0.0000 
     32 C30         6.1680   12.6530   13.7650 C.3       1 YR31        0.0000 
     33 O31         5.1590   13.6410   14.0270 O.3       1 YR31        0.0000 
     34 H           9.5055   12.8368    9.6504 H         1 YR31        0.0000 
     35 H          11.4734    8.6312   11.2164 H         1 YR31        0.0000 
     36 H          11.4555   11.8971    8.5632 H         1 YR31        0.0000 
     37 H          12.7153    7.7966   10.4139 H         1 YR31        0.0000 
     38 H          14.0250    7.7261    9.2225 H         1 YR31        0.0000 
     39 H          14.9459    9.6298    9.6980 H         1 YR31        0.0000 
     40 H          13.8285    9.9289   11.0403 H         1 YR31        0.0000 
     41 H          15.1451    9.9454    7.7694 H         1 YR31        0.0000 
     42 H          13.2668   10.4065    0.9251 H         1 YR31        0.0000 
     43 H          11.6069   10.3726    2.7042 H         1 YR31        0.0000 
     44 H          12.0783   12.0015    3.2186 H         1 YR31        0.0000 
     45 H          11.2597   10.1275    4.8167 H         1 YR31        0.0000 
     46 H          10.9864    9.7439    7.1862 H         1 YR31        0.0000 
     47 H           9.5416   12.7120   13.0995 H         1 YR31        0.0000 
     48 H           8.5353   11.4212   13.7785 H         1 YR31        0.0000 
     49 H           7.8952   13.6285   14.5419 H         1 YR31        0.0000 
     50 H           6.2554   11.9366   14.5969 H         1 YR31        0.0000 
     51 H           5.9361   12.0713   12.8591 H         1 YR31        0.0000 
     52 H          15.0224   11.9816   10.4042 H         1 YR31        0.0000 
     53 H          14.4688   11.9443    8.8948 H         1 YR31        0.0000 
     54 H          13.4578   12.2155   10.1156 H         1 YR31        0.0000 
     55 H          12.3082    7.2150    7.4884 H         1 YR31        0.0000 
     56 H          12.2462    6.1333    8.6768 H         1 YR31        0.0000 
     57 H          11.1205    7.2769    8.5709 H         1 YR31        0.0000 
     58 H          10.6247   10.1971    0.4361 H         1 YR31        0.0000 
     59 H          10.1919   11.2581    1.5644 H         1 YR31        0.0000 
     60 H           9.8057   11.5187    0.0252 H         1 YR31        0.0000 
     61 H          12.3956   13.9654    0.4280 H         1 YR31        0.0000 
     62 H          10.8673   13.7457   -0.0216 H         1 YR31        0.0000 
     63 H          11.2731   13.6321    1.5303 H         1 YR31        0.0000 
     64 H          13.2183   12.1649   -1.1554 H         1 YR31        0.0000 
     65 H          12.5100   10.7212   -1.1704 H         1 YR31        0.0000 
     66 H          11.7041   12.0175   -1.6767 H         1 YR31        0.0000 
     67 H          16.3813   11.2226    5.6285 H         1 YR31        0.0000 
     68 H          16.5040    9.6404    5.3679 H         1 YR31        0.0000 
     69 H          15.9006   10.5990    4.2263 H         1 YR31        0.0000 
     70 H           9.8621    8.3933   12.8907 H         1 YR31        0.0000 
     71 H           9.3426    9.7663   13.5475 H         1 YR31        0.0000 
     72 H           8.3940    8.9479   12.5392 H         1 YR31        0.0000 
     73 H          14.1397   12.6736    0.5051 H         1 YR31        0.0000 
     74 H           7.4128   13.9892   11.7450 H         1 YR31        0.0000 
     75 H           5.4112   14.4250   13.4599 H         1 YR31        0.0000 
@<TRIPOS>BOND
     1    2    1 ar   
     2    6    1 ar   
     3   34    1 1    
     4    3    2 ar   
     5   28    2 1    
     6    4    3 ar   
     7   27    3 1    
     8    5    4 ar   
     9   35    4 1    
    10    6    5 ar   
    11    7    5 1    
    12   36    6 1    
    13    8    7 1    
    14    9    7 1    
    15   10    7 1    
    16   13    8 ar   
    17   26    8 ar   
    18   12    9 1    
    19   37    9 1    
    20   38    9 1    
    21   11   10 1    
    22   39   10 1    
    23   40   10 1    
    24   52   11 1    
    25   53   11 1    
    26   54   11 1    
    27   55   12 1    
    28   56   12 1    
    29   57   12 1    
    30   14   13 ar   
    31   41   13 1    
    32   15   14 ar   
    33   24   14 1    
    34   23   15 1    
    35   25   15 ar   
    36   17   16 1    
    37   73   16 1    
    38   18   17 1    
    39   22   17 1    
    40   42   17 1    
    41   19   18 1    
    42   20   18 1    
    43   21   18 1    
    44   58   19 1    
    45   59   19 1    
    46   60   19 1    
    47   61   20 1    
    48   62   20 1    
    49   63   20 1    
    50   64   21 1    
    51   65   21 1    
    52   66   21 1    
    53   23   22 1    
    54   43   22 1    
    55   44   22 1    
    56   67   24 1    
    57   68   24 1    
    58   69   24 1    
    59   26   25 ar   
    60   45   25 1    
    61   46   26 1    
    62   70   27 1    
    63   71   27 1    
    64   72   27 1    
    65   29   28 1    
    66   30   29 1    
    67   47   29 1    
    68   48   29 1    
    69   31   30 1    
    70   32   30 1    
    71   49   30 1    
    72   74   31 1    
    73   33   32 1    
    74   50   32 1    
    75   51   32 1    
    76   75   33 1    
@<TRIPOS>SUBSTRUCTURE
     1 YR31        1 GROUP   
@<TRIPOS>SET

