#    Name: 2z77_HE7_3_INTS_M
#    Modification time : Tue Mar 25 10:18:59 2014

@<TRIPOS>MOLECULE
2z77_HE7_3_INTS_M
   62     0     6     0     0
SMALL
NO_CHARGES


@<TRIPOS>ATOM
      1 N          31.7175    7.5860   -0.6895 N.am      1 SEC2        0.0000 
      2 N          30.9550    6.8020    0.5190 N.am      5 SEL2        0.0000 
      3 N          32.4800    8.3700   -1.8980 N.am      3 SEP2        0.0000 
      4 N          31.7100    7.1975   -1.7090 N.am      1 SEC2        0.0000 
      5 N          30.9400    6.0250   -1.5200 N.am      5 SEL2        0.0000 
      6 N          30.1970    5.5710   -2.2280 N.am      1 SEC2        0.0000 
      7 N          29.4540    5.1170   -2.9360 N.am      3 SEP2        0.0000 
      8 CA         31.5580    4.0240   -1.3795 C.3       2 GLC5        0.0000 
      9 CA         30.5250    4.4490    0.2410 C.3       6 GLL5        0.0000 
     10 CA         32.5910    3.5990   -3.0000 C.3       4 GLP5        0.0000 
     11 CA         29.7315    2.8790   -0.9180 C.3       2 GLC5        0.0000 
     12 CA         28.9380    1.3090   -2.0770 C.3       4 GLP5        0.0000 
     13 CA         29.0200    2.6835    2.3180 C.3       2 GLC5        0.0000 
     14 CA         29.7050    4.4370    1.5350 C.3       6 GLL5        0.0000 
     15 CA         28.3350    0.9300    3.1010 C.3       4 GLP5        0.0000 
     16 CA         32.0215    2.8330    5.5295 C.3       2 GLC5        0.0000 
     17 CA         30.3810    4.0840    5.2470 C.3       6 GLL5        0.0000 
     18 CA         33.6620    1.5820    5.8120 C.3       4 GLP5        0.0000 
     19 CA         30.0775    2.2730    4.2270 C.3       2 GLC5        0.0000 
     20 CA         29.7740    0.4620    3.2070 C.3       4 GLP5        0.0000 
     21 CA         27.4315    5.8250    8.1790 C.3       2 GLC5        0.0000 
     22 CA         28.5070    5.3170    6.3210 C.3       6 GLL5        0.0000 
     23 CA         26.3560    6.3330   10.0370 C.3       4 GLP5        0.0000 
     24 CA         28.3365    6.9880    6.8305 C.3       2 GLC5        0.0000 
     25 CA         28.1660    8.6590    7.3400 C.3       4 GLP5        0.0000 
     26 CA         33.1285    4.3275    5.2735 C.3       2 GLC5        0.0000 
     27 CA         31.4160    5.0780    5.8170 C.3       6 GLL5        0.0000 
     28 CA         34.8410    3.5770    4.7300 C.3       4 GLP5        0.0000 
     29 CA         33.0445    3.8160    6.6695 C.3       2 GLC5        0.0000 
     30 CA         31.3270    4.9650    7.3700 C.3       6 GLL5        0.0000 
     31 CA         34.7620    2.6670    5.9690 C.3       4 GLP5        0.0000 
     32 CA         28.3575    1.8645    4.7385 C.3       2 GLC5        0.0000 
     33 CA         28.3800    2.7990    6.3760 C.3       6 GLL5        0.0000 
     34 CA         24.1850    0.9750   12.5650 C.3       2 GLC5        0.0000 
     35 CA         25.8900    1.8880   11.5620 C.3       6 GLL5        0.0000 
     36 CA         22.4800    0.0620   13.5680 C.3       4 GLP5        0.0000 
     37 CA         25.5410    0.1365   11.2950 C.3       2 GLC5        0.0000 
     38 CA         25.1920   -1.6150   11.0280 C.3       4 GLP5        0.0000 
     39 CA         28.5680    5.0200    0.1370 C.3       2 GLC5        0.0000 
     40 CA         27.0210    5.5970   -0.6140 C.3       4 GLP5        0.0000 
     41 CA         32.4432    6.5237    6.8468 C.3       2 GLC5        0.0000 
     42 CA         33.5150    8.0260    7.1000 C.3       4 GLP5        0.0000 
     43 CA         27.2958    4.6771    9.1639 C.3       2 GLC5        0.0000 
     44 CA         29.3830    3.9760    8.8820 C.3       6 GLL5        0.0000 
     45 CA         26.0053    2.6855    6.8803 C.3       2 GLC5        0.0000 
     46 CA         27.5450    2.6950    7.6830 C.3       6 GLL5        0.0000 
     47 CA         24.0480    2.6240    6.7310 C.3       4 GLP5        0.0000 
     48 CA         30.3783    6.0448   10.7007 C.3       2 GLC5        0.0000 
     49 CA         30.3310    3.9870   10.0640 C.3       6 GLL5        0.0000 
     50 CA         30.8160    8.0060   10.6920 C.3       4 GLP5        0.0000 
     51 CA         31.4952    3.9397   11.7993 C.3       2 GLC5        0.0000 
     52 CA         29.5500    4.1800   11.3550 C.3       6 GLL5        0.0000 
     53 CA         33.0500    3.7960   12.8890 C.3       4 GLP5        0.0000 
     54 CA         26.7610    4.3125   10.1595 C.3       2 GLC5        0.0000 
     55 CA         27.7620    2.6460   10.2330 C.3       6 GLL5        0.0000 
     56 CA         26.7745    0.4945   10.0005 C.3       2 GLC5        0.0000 
     57 CA         26.3830   -1.3030    9.7190 C.3       4 GLP5        0.0000 
     58 CA         27.3047    4.9310   11.0020 C.3       2 GLC5        0.0000 
     59 CA         27.5960    3.3020   12.5750 C.3       6 GLL5        0.0000 
     60 CA         25.0505    3.3529   12.5076 C.3       2 GLC5        0.0000 
     61 CA         26.4080    2.5770   12.6860 C.3       6 GLL5        0.0000 
     62 CA         23.6550    4.2920   12.9190 C.3       4 GLP5        0.0000 
@<TRIPOS>BOND
@<TRIPOS>SUBSTRUCTURE
     1 SEC2        1 GROUP        1 X    SEC  0     ROOT SEC X 2
     2 GLC5        8 GROUP        1 X    GLC  0     **** GLC X 6
     3 SEP2        3 GROUP        1 Y    SEP  0     ROOT SEP Y 9
     4 GLP5       10 GROUP        1 Y    GLP  0     **** GLP Y 13
     5 SEL2        2 GROUP        1 Z    SEL  0     ROOT SEL Z 16
     6 GLL5        9 GROUP        1 Z    GLL  0     **** GLL Z 20
@<TRIPOS>SET

