#    Name: 2z77_HE7_3_ligand
#    Modification time : Tue Mar 25 10:18:59 2014

@<TRIPOS>MOLECULE
2z77_HE7_3_ligand
   54    57     1     0     0
SMALL
NO_CHARGES


@<TRIPOS>ATOM
      1 OAB        30.9550    6.8020    0.5190 O.co2     1 HE7200      0.0000 
      2 CAR        30.8250    5.8550   -0.2800 C.2       1 HE7200      0.0000 
      3 OAC        30.9400    6.0250   -1.5200 O.co2     1 HE7200      0.0000 
      4 CAI        30.5250    4.4490    0.2410 C.3       1 HE7200      0.0000 
      5 CAK        29.7050    4.4370    1.5350 C.3       1 HE7200      0.0000 
      6 CAV        30.5680    4.6200    2.7890 C.2       1 HE7200      0.0000 
      7 OAE        31.7420    3.8170    2.7970 O.2       1 HE7200      0.0000 
      8 OAQ        29.7780    4.3630    3.9590 O.3       1 HE7200      0.0000 
      9 CAW        30.3810    4.0840    5.2470 C.3       1 HE7200      0.0000 
     10 CBA        29.3030    4.0250    6.3550 C.3       1 HE7200      0.0000 
     11 CAA        28.5070    5.3170    6.3210 C.3       1 HE7200      0.0000 
     12 CAM        31.4160    5.0780    5.8170 C.3       1 HE7200      0.0000 
     13 CAO        31.3270    4.9650    7.3700 C.3       1 HE7200      0.0000 
     14 CAZ        30.1870    3.9600    7.5950 C.3       1 HE7200      0.0000 
     15 CAY        29.3830    3.9760    8.8820 C.3       1 HE7200      0.0000 
     16 CAX        28.4690    2.7190    8.9150 C.3       1 HE7200      0.0000 
     17 CAN        27.5450    2.6950    7.6830 C.3       1 HE7200      0.0000 
     18 CAP        28.3800    2.7990    6.3760 C.3       1 HE7200      0.0000 
     19 CAL        30.3310    3.9870   10.0640 C.3       1 HE7200      0.0000 
     20 CAJ        29.5500    4.1800   11.3550 C.3       1 HE7200      0.0000 
     21 CAT        28.2720    3.3320   11.3630 C.ar      1 HE7200      0.0000 
     22 CAU        27.7620    2.6460   10.2330 C.ar      1 HE7200      0.0000 
     23 CAH        27.5960    3.3020   12.5750 C.ar      1 HE7200      0.0000 
     24 CAS        26.4080    2.5770   12.6860 C.ar      1 HE7200      0.0000 
     25 OAD        25.7830    2.5240   13.8970 O.3       1 HE7200      0.0000 
     26 CAF        25.8900    1.8880   11.5620 C.ar      1 HE7200      0.0000 
     27 CAG        26.5700    1.9380   10.3310 C.ar      1 HE7200      0.0000 
     28 H          31.4745    3.9218    0.4162 H         1 HE7200      0.0000 
     29 H          29.9781    3.8896   -0.5324 H         1 HE7200      0.0000 
     30 H          29.1666    3.4846    1.6084 H         1 HE7200      0.0000 
     31 H          28.9604    5.2409    1.4940 H         1 HE7200      0.0000 
     32 H          30.8547    3.0902    5.2698 H         1 HE7200      0.0000 
     33 H          31.1610    6.0700    5.5245 H         1 HE7200      0.0000 
     34 H          32.3945    4.7981    5.5026 H         1 HE7200      0.0000 
     35 H          31.0655    5.9054    7.7709 H         1 HE7200      0.0000 
     36 H          32.2339    4.5734    7.7409 H         1 HE7200      0.0000 
     37 H          30.6791    2.9295    7.5162 H         1 HE7200      0.0000 
     38 H          28.7653    4.8464    8.9011 H         1 HE7200      0.0000 
     39 H          29.1517    1.8513    8.8342 H         1 HE7200      0.0000 
     40 H          26.8613    3.5334    7.7292 H         1 HE7200      0.0000 
     41 H          26.9873    1.7669    7.6691 H         1 HE7200      0.0000 
     42 H          28.9818    1.8913    6.2747 H         1 HE7200      0.0000 
     43 H          27.6922    2.8494    5.5271 H         1 HE7200      0.0000 
     44 H          31.0444    4.7997    9.9505 H         1 HE7200      0.0000 
     45 H          30.8694    3.0433   10.1072 H         1 HE7200      0.0000 
     46 H          29.2789    5.2308   11.4623 H         1 HE7200      0.0000 
     47 H          30.1722    3.8916   12.2029 H         1 HE7200      0.0000 
     48 H          27.9643    3.8086   13.3869 H         1 HE7200      0.0000 
     49 H          25.0226    1.3560   11.6492 H         1 HE7200      0.0000 
     50 H          26.1828    1.4534    9.5175 H         1 HE7200      0.0000 
     51 H          29.0885    6.1156    6.4761 H         1 HE7200      0.0000 
     52 H          28.0540    5.4510    5.4396 H         1 HE7200      0.0000 
     53 H          27.7943    5.3327    7.0223 H         1 HE7200      0.0000 
     54 H          26.3586    3.0662   14.5091 H         1 HE7200      0.0000 
@<TRIPOS>BOND
     1    2    1 ar   
     2    3    2 ar   
     3    4    2 1    
     4    5    4 1    
     5   28    4 1    
     6   29    4 1    
     7    6    5 1    
     8   30    5 1    
     9   31    5 1    
    10    7    6 2    
    11    8    6 1    
    12    9    8 1    
    13   10    9 1    
    14   12    9 1    
    15   32    9 1    
    16   11   10 1    
    17   14   10 1    
    18   18   10 1    
    19   51   11 1    
    20   52   11 1    
    21   53   11 1    
    22   13   12 1    
    23   33   12 1    
    24   34   12 1    
    25   14   13 1    
    26   35   13 1    
    27   36   13 1    
    28   15   14 1    
    29   37   14 1    
    30   16   15 1    
    31   19   15 1    
    32   38   15 1    
    33   17   16 1    
    34   22   16 1    
    35   39   16 1    
    36   18   17 1    
    37   40   17 1    
    38   41   17 1    
    39   42   18 1    
    40   43   18 1    
    41   20   19 1    
    42   44   19 1    
    43   45   19 1    
    44   21   20 1    
    45   46   20 1    
    46   47   20 1    
    47   22   21 ar   
    48   23   21 ar   
    49   27   22 ar   
    50   24   23 ar   
    51   48   23 1    
    52   25   24 1    
    53   26   24 ar   
    54   54   25 1    
    55   27   26 ar   
    56   49   26 1    
    57   50   27 1    
@<TRIPOS>SUBSTRUCTURE
     1 HE7200      1 GROUP   
@<TRIPOS>SET

