#    Name: 3g9e_RO7_1_INTS_M
#    Modification time : Tue Mar 25 07:23:25 2014

@<TRIPOS>MOLECULE
3g9e_RO7_1_INTS_M
   80     0     6     0     0
SMALL
NO_CHARGES


@<TRIPOS>ATOM
      1 CA         10.3800   27.0110   17.6870 C.3       2 GLC5        0.0000 
      2 CA          8.6760   27.4020   16.8050 C.3       6 GLL5        0.0000 
      3 CA         12.0840   26.6200   18.5690 C.3       4 GLP5        0.0000 
      4 CA          9.5650   28.6080   15.4450 C.3       2 GLC5        0.0000 
      5 CA         10.4540   29.8140   14.0850 C.3       4 GLP5        0.0000 
      6 CA          8.2150   29.4545   16.5705 C.3       2 GLC5        0.0000 
      7 CA          7.7540   31.5070   16.3360 C.3       4 GLP5        0.0000 
      8 CA          8.5900   23.2425   15.3695 C.3       2 GLC5        0.0000 
      9 CA          6.8410   23.5540   14.2800 C.3       6 GLL5        0.0000 
     10 CA         10.3390   22.9310   16.4590 C.3       4 GLP5        0.0000 
     11 CA          8.0845   21.8890   15.4730 C.3       2 GLC5        0.0000 
     12 CA          6.1470   22.3510   14.5440 C.3       6 GLL5        0.0000 
     13 CA         10.0220   21.4270   16.4020 C.3       4 GLP5        0.0000 
     14 CA          9.0980   24.4440   12.3455 C.3       2 GLC5        0.0000 
     15 CA          7.1610   23.9060   12.9700 C.3       6 GLL5        0.0000 
     16 CA         11.0350   24.9820   11.7210 C.3       4 GLP5        0.0000 
     17 CA          5.6015   23.6185   19.6075 C.3       2 GLC5        0.0000 
     18 CA          7.3280   24.8050   18.9150 C.3       6 GLL5        0.0000 
     19 CA          3.8750   22.4320   20.3000 C.3       4 GLP5        0.0000 
     20 CA          8.8335   23.8680   17.6870 C.3       2 GLC5        0.0000 
     21 CA          9.3640   25.7200   20.2230 C.3       2 GLC5        0.0000 
     22 CA          7.3100   25.9360   19.7640 C.3       6 GLL5        0.0000 
     23 CA         11.4180   25.5040   20.6820 C.3       4 GLP5        0.0000 
     24 CA          3.9590   24.4350   20.1700 C.3       2 GLC5        0.0000 
     25 CA          4.0430   26.4380   20.0400 C.3       6 GLL5        0.0000 
     26 CA          0.9375   26.2345   20.4625 C.3       2 GLC5        0.0000 
     27 CA          2.7830   26.9990   20.3740 C.3       6 GLL5        0.0000 
     28 CA         -0.9080   25.4700   20.5510 C.3       4 GLP5        0.0000 
     29 CA          6.4595   32.1285   20.8595 C.3       2 GLC5        0.0000 
     30 CA          5.5570   30.9400   19.6120 C.3       6 GLL5        0.0000 
     31 CA          7.3620   33.3170   22.1070 C.3       4 GLP5        0.0000 
     32 CA         -0.0940   29.3745   22.3090 C.3       2 GLC5        0.0000 
     33 CA          1.3790   29.0180   20.8410 C.3       6 GLL5        0.0000 
     34 CA         -1.5670   29.7310   23.7770 C.3       4 GLP5        0.0000 
     35 CA          2.1755   30.0770   22.2845 C.3       2 GLC5        0.0000 
     36 CA          2.9720   31.1360   23.7280 C.3       4 GLP5        0.0000 
     37 CA          0.3255   31.0940   15.9175 C.3       2 GLC5        0.0000 
     38 CA          0.5930   30.0560   17.4000 C.3       6 GLL5        0.0000 
     39 CA          0.0580   32.1320   14.4350 C.3       4 GLP5        0.0000 
     40 CA          1.8970   28.6995   16.9950 C.3       2 GLC5        0.0000 
     41 CA          3.2010   27.3430   16.5900 C.3       4 GLP5        0.0000 
     42 CA         -0.7410   28.7275   16.3680 C.3       2 GLC5        0.0000 
     43 CA         -2.0750   27.3990   15.3360 C.3       4 GLP5        0.0000 
     44 N          -0.5355   31.9510   19.9020 N.am      1 SEC2        0.0000 
     45 N          -1.3170   30.7370   19.9340 N.am      5 SEL2        0.0000 
     46 N           0.2460   33.1650   19.8700 N.am      3 SEP2        0.0000 
     47 N          -2.1420   31.3395   20.8260 N.am      1 SEC2        0.0000 
     48 N          -2.9670   31.9420   21.7180 N.am      3 SEP2        0.0000 
     49 N          -1.5835   27.4750   21.0610 N.am      1 SEC2        0.0000 
     50 N          -1.6310   28.7040   20.6010 N.am      5 SEL2        0.0000 
     51 N          -1.5360   26.2460   21.5210 N.am      3 SEP2        0.0000 
     52 N          -2.1205   29.0035   21.7925 N.am      1 SEC2        0.0000 
     53 N          -2.6100   29.3030   22.9840 N.am      3 SEP2        0.0000 
     54 CA          9.0497   24.2488   16.7523 C.3       2 GLC5        0.0000 
     55 CA          8.0010   26.0540   16.6370 C.3       6 GLL5        0.0000 
     56 CA          4.6880   23.3308   13.8685 C.3       2 GLC5        0.0000 
     57 CA          2.8820   23.7090   13.3250 C.3       4 GLP5        0.0000 
     58 CA          4.4160   22.6977   13.0687 C.3       2 GLC5        0.0000 
     59 CA          5.7850   21.5090   13.4830 C.3       6 GLL5        0.0000 
     60 CA          6.2107   25.2868   11.6657 C.3       2 GLC5        0.0000 
     61 CA          6.8080   23.0710   11.8810 C.3       6 GLL5        0.0000 
     62 CA          5.4370   27.0850   10.9060 C.3       4 GLP5        0.0000 
     63 CA          4.9332   23.5987   12.8753 C.3       2 GLC5        0.0000 
     64 CA          6.4301   26.8098   16.6698 C.3       2 GLC5        0.0000 
     65 CA          4.9310   27.7160   16.2520 C.3       4 GLP5        0.0000 
     66 CA          7.8305   25.9928   21.0557 C.3       2 GLC5        0.0000 
     67 CA          8.3420   26.6150   22.7720 C.3       4 GLP5        0.0000 
     68 CA          6.1797   28.4375   21.4345 C.3       2 GLC5        0.0000 
     69 CA          5.1160   27.2920   19.7290 C.3       6 GLL5        0.0000 
     70 CA          7.3130   28.8870   23.1230 C.3       4 GLP5        0.0000 
     71 CA          3.3070   27.0307   18.3985 C.3       2 GLC5        0.0000 
     72 CA          5.2281   28.2690   17.9530 C.3       2 GLC5        0.0000 
     73 CA          6.5468   29.5925   21.3550 C.3       2 GLC5        0.0000 
     74 CA          6.0040   29.6560   19.5620 C.3       6 GLL5        0.0000 
     75 CA          6.7672   30.9025   17.9615 C.3       2 GLC5        0.0000 
     76 CA          3.1940   28.0797   18.4025 C.3       2 GLC5        0.0000 
     77 CA          3.7380   29.2420   20.0230 C.3       6 GLL5        0.0000 
     78 CA          0.0030   27.2960   20.3897 C.3       2 GLC5        0.0000 
     79 CA          2.2241   27.6517   22.6159 C.3       2 GLC5        0.0000 
     80 CA          2.4040   26.9470   24.6160 C.3       4 GLP5        0.0000 
@<TRIPOS>BOND
@<TRIPOS>SUBSTRUCTURE
     1 SEC2       44 GROUP        1 X    SEC  0     ROOT SEC X 2
     2 GLC5        1 GROUP        1 X    GLC  0     **** GLC X 6
     3 SEP2       46 GROUP        1 Y    SEP  0     ROOT SEP Y 9
     4 GLP5        3 GROUP        1 Y    GLP  0     **** GLP Y 13
     5 SEL2       45 GROUP        1 Z    SEL  0     ROOT SEL Z 16
     6 GLL5        2 GROUP        1 Z    GLL  0     **** GLL Z 20
@<TRIPOS>SET

