#    Name: 3g9e_RO7_1_ligand
#    Modification time : Tue Mar 25 07:23:25 2014

@<TRIPOS>MOLECULE
3g9e_RO7_1_ligand
   53    56     1     0     0
SMALL
NO_CHARGES


@<TRIPOS>ATOM
      1 C25         8.6760   27.4020   16.8050 C.3       1 RO71        0.0000 
      2 C7          8.0010   26.0540   16.6370 C.2       1 RO71        0.0000 
      3 O3          7.7850   25.6650   15.3460 O.3       1 RO71        0.0000 
      4 C2          7.2280   24.4250   15.4530 C.2       1 RO71        0.0000 
      5 C16         6.8410   23.5540   14.2800 C.ar      1 RO71        0.0000 
      6 C26         6.1470   22.3510   14.5440 C.ar      1 RO71        0.0000 
      7 C29         5.7850   21.5090   13.4830 C.ar      1 RO71        0.0000 
      8 C31         6.1150   21.8640   12.1420 C.ar      1 RO71        0.0000 
      9 C30         6.8080   23.0710   11.8810 C.ar      1 RO71        0.0000 
     10 C27         7.1610   23.9060   12.9700 C.ar      1 RO71        0.0000 
     11 N1          7.0920   24.0920   16.7170 N.2       1 RO71        0.0000 
     12 C4          7.5200   25.0790   17.4540 C.2       1 RO71        0.0000 
     13 C20         7.3280   24.8050   18.9150 C.3       1 RO71        0.0000 
     14 C23         7.3100   25.9360   19.7640 C.3       1 RO71        0.0000 
     15 O22         6.4130   26.9610   19.3420 O.3       1 RO71        0.0000 
     16 C13         5.1160   27.2920   19.7290 C.ar      1 RO71        0.0000 
     17 C19         4.0430   26.4380   20.0400 C.ar      1 RO71        0.0000 
     18 C17         2.7830   26.9990   20.3740 C.ar      1 RO71        0.0000 
     19 C5          4.9770   28.6840   19.7630 C.ar      1 RO71        0.0000 
     20 C15         6.0040   29.6560   19.5620 C.2       1 RO71        0.0000 
     21 C12         5.5570   30.9400   19.6120 C.2       1 RO71        0.0000 
     22 C6          3.7380   29.2420   20.0230 C.ar      1 RO71        0.0000 
     23 S9          3.8430   30.9980   19.8180 S.3       1 RO71        0.0000 
     24 C8          2.6360   28.3910   20.4070 C.ar      1 RO71        0.0000 
     25 C11         1.3790   29.0180   20.8410 C.3       1 RO71        0.0000 
     26 C14         0.4490   29.2260   19.6160 C.3       1 RO71        0.0000 
     27 O24         0.9730   30.2260   18.7800 O.3       1 RO71        0.0000 
     28 C28         0.5930   30.0560   17.4000 C.3       1 RO71        0.0000 
     29 C10        -0.9340   29.5870   20.0830 C.2       1 RO71        0.0000 
     30 O21        -1.3170   30.7370   19.9340 O.co2     1 RO71        0.0000 
     31 O18        -1.6310   28.7040   20.6010 O.co2     1 RO71        0.0000 
     32 H           5.9126   22.1009   15.5056 H         1 RO71        0.0000 
     33 H           5.2834   20.6367   13.6601 H         1 RO71        0.0000 
     34 H           5.8509   21.2478   11.3765 H         1 RO71        0.0000 
     35 H           7.0471   23.3329   10.9337 H         1 RO71        0.0000 
     36 H           7.6628   24.7865   12.7796 H         1 RO71        0.0000 
     37 H           8.1326   24.0805   19.2316 H         1 RO71        0.0000 
     38 H           6.3773   24.2078   19.0248 H         1 RO71        0.0000 
     39 H           8.3481   26.3617   19.8570 H         1 RO71        0.0000 
     40 H           7.0530   25.6225   20.8143 H         1 RO71        0.0000 
     41 H           4.1626   25.4291   20.0274 H         1 RO71        0.0000 
     42 H           1.9976   26.3870   20.5865 H         1 RO71        0.0000 
     43 H           6.9368   29.3869   19.4047 H         1 RO71        0.0000 
     44 H           5.9486   31.7774   19.5624 H         1 RO71        0.0000 
     45 H           1.5609   29.9918   21.2911 H         1 RO71        0.0000 
     46 H           0.8530   28.3891   21.5564 H         1 RO71        0.0000 
     47 H           0.3948   28.2662   19.1026 H         1 RO71        0.0000 
     48 H           9.5791   27.4212   16.3760 H         1 RO71        0.0000 
     49 H           8.1403   28.1394   16.3936 H         1 RO71        0.0000 
     50 H           8.8044   27.6355   17.7688 H         1 RO71        0.0000 
     51 H           0.9708   30.7771   16.8192 H         1 RO71        0.0000 
     52 H           0.9144   29.1839   17.0310 H         1 RO71        0.0000 
     53 H          -0.3999   30.0756   17.2831 H         1 RO71        0.0000 
@<TRIPOS>BOND
     1    2    1 1    
     2   48    1 1    
     3   49    1 1    
     4   50    1 1    
     5    3    2 1    
     6   12    2 2    
     7    4    3 1    
     8    5    4 1    
     9   11    4 2    
    10    6    5 ar   
    11   10    5 ar   
    12    7    6 ar   
    13   32    6 1    
    14    8    7 ar   
    15   33    7 1    
    16    9    8 ar   
    17   34    8 1    
    18   10    9 ar   
    19   35    9 1    
    20   36   10 1    
    21   12   11 1    
    22   13   12 1    
    23   14   13 1    
    24   37   13 1    
    25   38   13 1    
    26   15   14 1    
    27   39   14 1    
    28   40   14 1    
    29   16   15 1    
    30   17   16 ar   
    31   19   16 ar   
    32   18   17 ar   
    33   41   17 1    
    34   24   18 ar   
    35   42   18 1    
    36   20   19 1    
    37   22   19 ar   
    38   21   20 2    
    39   43   20 1    
    40   23   21 1    
    41   44   21 1    
    42   23   22 1    
    43   24   22 ar   
    44   25   24 1    
    45   26   25 1    
    46   45   25 1    
    47   46   25 1    
    48   27   26 1    
    49   29   26 1    
    50   47   26 1    
    51   28   27 1    
    52   51   28 1    
    53   52   28 1    
    54   53   28 1    
    55   30   29 ar   
    56   31   29 ar   
@<TRIPOS>SUBSTRUCTURE
     1 RO71        1 GROUP   
@<TRIPOS>SET

