#    Name: 1dj2_GDP_1_INTS_M
#    Modification time : Mon Mar 24 22:00:46 2014

@<TRIPOS>MOLECULE
1dj2_GDP_1_INTS_M
   50     0    12     0     0
SMALL
NO_CHARGES


@<TRIPOS>ATOM
      1 NZ         26.5670   72.7680   51.9095 N.4       3 LYC4        0.0000 
      2 NZ         27.4270   73.7030   51.8070 N.4      11 LYL4        0.0000 
      3 NZ         25.7070   71.8330   52.0120 N.4       7 LYP4        0.0000 
      4 NZ         27.2170   72.4215   50.8780 N.4       3 LYC4        0.0000 
      5 NZ         28.7270   73.0100   49.7440 N.4      11 LYL4        0.0000 
      6 N          28.4835   71.9065   49.0275 N.am      2 SEC2        0.0000 
      7 N          28.7270   73.0100   49.7440 N.am     10 SEL2        0.0000 
      8 N          28.2400   70.8030   48.3110 N.am      6 SEP2        0.0000 
      9 NZ         26.1465   73.0075   50.7725 N.4       3 LYC4        0.0000 
     10 NZ         26.5860   74.1820   49.5330 N.4      11 LYL4        0.0000 
     11 N          26.7700   73.3875   48.0455 N.am      2 SEC2        0.0000 
     12 N          26.5860   74.1820   49.5330 N.am     10 SEL2        0.0000 
     13 N          26.9540   72.5930   46.5580 N.am      6 SEP2        0.0000 
     14 N          29.3030   76.8900   47.6765 N.am      2 SEC2        0.0000 
     15 N          29.8630   75.7970   48.3710 N.am     10 SEL2        0.0000 
     16 N          28.7430   77.9830   46.9820 N.am      6 SEP2        0.0000 
     17 CA         31.3805   72.6775   49.2525 C.3       4 GLC5        0.0000 
     18 CA         32.1950   74.1480   49.6850 C.3      12 GLL5        0.0000 
     19 CA         30.5660   71.2070   48.8200 C.3       8 GLP5        0.0000 
     20 N          35.7550   74.3030   49.6975 N.am      2 SEC2        0.0000 
     21 N          34.4480   74.9090   49.1490 N.am     10 SEL2        0.0000 
     22 N          37.0620   73.6970   50.2460 N.am      6 SEP2        0.0000 
     23 CA         31.9610   77.1140   47.0980 C.3       4 GLC5        0.0000 
     24 CA         32.8980   75.3000   47.4390 C.3      12 GLL5        0.0000 
     25 CA         31.0240   78.9280   46.7570 C.3       8 GLP5        0.0000 
     26 CA         35.7515   73.8320   49.5610 C.3       4 GLC5        0.0000 
     27 CA         35.1210   74.8190   47.8650 C.3      12 GLL5        0.0000 
     28 CA         36.3820   72.8450   51.2570 C.3       8 GLP5        0.0000 
     29 N          37.0765   68.7110   47.4090 N.am      2 SEC2        0.0000 
     30 N          37.2320   69.4630   46.0820 N.am     10 SEL2        0.0000 
     31 N          36.9210   67.9590   48.7360 N.am      6 SEP2        0.0000 
     32 N          38.2995   69.7435   45.0185 N.am      2 SEC2        0.0000 
     33 N          39.3670   70.0240   43.9550 N.am      6 SEP2        0.0000 
     34 O          40.2065   71.0475   46.4450 O.2       1 ALC1        0.0000 
     35 O          38.5150   71.1810   46.8680 O.2       9 ALL1        0.0000 
     36 O          41.8980   70.9140   46.0220 O.2       5 ALP1        0.0000 
     37 O          39.6620   70.3245   47.0480 O.2       1 ALC1        0.0000 
     38 O          40.8090   69.4680   47.2280 O.2       5 ALP1        0.0000 
     39 O          40.9200   71.8615   46.8310 O.2       1 ALC1        0.0000 
     40 O          39.9420   72.8090   47.6400 O.2       9 ALL1        0.0000 
     41 N          37.3785   73.5030   48.9135 N.am      2 SEC2        0.0000 
     42 N          37.6950   73.3090   47.5810 N.am     10 SEL2        0.0000 
     43 CA         35.9762   75.3693   45.8623 C.3       4 GLC5        0.0000 
     44 CA         37.2450   75.5340   44.3490 C.3       8 GLP5        0.0000 
     45 CA         36.6973   71.3868   48.6442 C.3       4 GLC5        0.0000 
     46 CA         36.4710   72.7860   47.2580 C.3      12 GLL5        0.0000 
     47 CA         37.0660   70.6120   50.2860 C.3       8 GLP5        0.0000 
     48 CA         36.5922   73.1728   45.3777 C.3       4 GLC5        0.0000 
     49 CA         36.1860   71.5370   46.7470 C.3      12 GLL5        0.0000 
     50 CA         36.8560   74.1840   43.7530 C.3       8 GLP5        0.0000 
@<TRIPOS>BOND
@<TRIPOS>SUBSTRUCTURE
     1 ALC1       34 GROUP        1 X    ALC  0     ROOT ALC X 1
     2 SEC2        6 GROUP        1 X    SEC  0     **** SEC X 2
     3 LYC4        1 GROUP        1 X    LYC  0     **** LYC X 4
     4 GLC5       17 GROUP        1 X    GLC  0     **** GLC X 6
     5 ALP1       36 GROUP        1 Y    ALP  0     ROOT ALP Y 8
     6 SEP2        8 GROUP        1 Y    SEP  0     **** SEP Y 9
     7 LYP4        3 GROUP        1 Y    LYP  0     **** LYP Y 11
     8 GLP5       19 GROUP        1 Y    GLP  0     **** GLP Y 13
     9 ALL1       35 GROUP        1 Z    ALL  0     ROOT ALL Z 15
    10 SEL2        7 GROUP        1 Z    SEL  0     **** SEL Z 16
    11 LYL4        2 GROUP        1 Z    LYL  0     **** LYL Z 18
    12 GLL5       18 GROUP        1 Z    GLL  0     **** GLL Z 20
@<TRIPOS>SET

