#    Name: 1dj2_GDP_1_ligand
#    Modification time : Mon Mar 24 22:00:46 2014

@<TRIPOS>MOLECULE
1dj2_GDP_1_ligand
   40    42     1     0     0
SMALL
NO_CHARGES


@<TRIPOS>ATOM
      1 PB         27.8360   73.9420   50.4100 P.3       1 GDP500      0.0000 
      2 O1B        27.4270   73.7030   51.8070 O.co2     1 GDP500      0.0000 
      3 O2B        28.7270   73.0100   49.7440 O.co2     1 GDP500      0.0000 
      4 O3B        26.5860   74.1820   49.5330 O.co2     1 GDP500      0.0000 
      5 O3A        28.5520   75.3660   50.4270 O.3       1 GDP500      0.0000 
      6 PA         29.9780   75.8410   49.8690 P.3       1 GDP500      0.0000 
      7 O1A        29.8630   75.7970   48.3710 O.co2     1 GDP500      0.0000 
      8 O2A        30.3480   77.0570   50.5870 O.co2     1 GDP500      0.0000 
      9 O5'        30.9550   74.6240   50.3910 O.3       1 GDP500      0.0000 
     10 C5'        32.1950   74.1480   49.6850 C.3       1 GDP500      0.0000 
     11 C4'        33.0530   75.2450   48.9760 C.3       1 GDP500      0.0000 
     12 O4'        34.4480   74.9090   49.1490 O.3       1 GDP500      0.0000 
     13 C3'        32.8980   75.3000   47.4390 C.3       1 GDP500      0.0000 
     14 O3'        31.9490   76.2310   47.0330 O.3       1 GDP500      0.0000 
     15 C2'        34.2940   75.5900   46.8860 C.3       1 GDP500      0.0000 
     16 O2'        34.7060   76.9620   46.7550 O.3       1 GDP500      0.0000 
     17 C1'        35.1210   74.8190   47.8650 C.3       1 GDP500      0.0000 
     18 N9         35.2690   73.4310   47.3700 N.pl3     1 GDP500      0.0000 
     19 C8         34.3480   72.5320   46.9270 C.2       1 GDP500      0.0000 
     20 N7         34.8120   71.3870   46.5450 N.2       1 GDP500      0.0000 
     21 C5         36.1860   71.5370   46.7470 C.2       1 GDP500      0.0000 
     22 C6         37.2750   70.6130   46.5190 C.2       1 GDP500      0.0000 
     23 O6         37.2320   69.4630   46.0820 O.2       1 GDP500      0.0000 
     24 N1         38.5150   71.1810   46.8680 N.am      1 GDP500      0.0000 
     25 C2         38.6970   72.4520   47.3700 C.2       1 GDP500      0.0000 
     26 N2         39.9420   72.8090   47.6400 N.pl3     1 GDP500      0.0000 
     27 N3         37.6950   73.3090   47.5810 N.2       1 GDP500      0.0000 
     28 C4         36.4710   72.7860   47.2580 C.2       1 GDP500      0.0000 
     29 H          31.9227   73.3904   48.9178 H         1 GDP500      0.0000 
     30 H          32.8578   73.6204   50.4053 H         1 GDP500      0.0000 
     31 H          32.8439   76.1939   49.3835 H         1 GDP500      0.0000 
     32 H          32.6483   74.2784   47.1277 H         1 GDP500      0.0000 
     33 H          34.3638   75.0365   45.9395 H         1 GDP500      0.0000 
     34 H          36.0920   75.2942   47.9176 H         1 GDP500      0.0000 
     35 H          33.3553   72.7800   46.9104 H         1 GDP500      0.0000 
     36 H          39.3763   70.5695   46.7286 H         1 GDP500      0.0000 
     37 H          40.6537   72.3766   47.0862 H         1 GDP500      0.0000 
     38 H          40.0585   73.4788   48.3733 H         1 GDP500      0.0000 
     39 H          31.0670   75.7862   47.1890 H         1 GDP500      0.0000 
     40 H          35.6719   76.9679   47.0140 H         1 GDP500      0.0000 
@<TRIPOS>BOND
     1    2    1 ar   
     2    3    1 ar   
     3    4    1 ar   
     4    5    1 1    
     5    6    5 1    
     6    7    6 ar   
     7    8    6 ar   
     8    9    6 1    
     9   10    9 1    
    10   11   10 1    
    11   29   10 1    
    12   30   10 1    
    13   12   11 1    
    14   13   11 1    
    15   31   11 1    
    16   17   12 1    
    17   14   13 1    
    18   15   13 1    
    19   32   13 1    
    20   39   14 1    
    21   16   15 1    
    22   17   15 1    
    23   33   15 1    
    24   40   16 1    
    25   18   17 1    
    26   34   17 1    
    27   19   18 1    
    28   28   18 1    
    29   20   19 2    
    30   35   19 1    
    31   21   20 1    
    32   22   21 1    
    33   28   21 2    
    34   23   22 2    
    35   24   22 am   
    36   25   24 1    
    37   36   24 1    
    38   26   25 1    
    39   27   25 2    
    40   37   26 1    
    41   38   26 1    
    42   28   27 1    
@<TRIPOS>SUBSTRUCTURE
     1 GDP500      1 GROUP   
@<TRIPOS>SET

