#    Name: 2b9j_ADP_1_INTS_M
#    Modification time : Mon Mar 24 20:24:32 2014

@<TRIPOS>MOLECULE
2b9j_ADP_1_INTS_M
   67     0    15     0     0
SMALL
NO_CHARGES


@<TRIPOS>ATOM
      1 NZ         37.3905    2.5005   42.6480 N.4       3 LYC4        0.0000 
      2 NZ         36.8210    4.0260   43.2470 N.4      13 LYL4        0.0000 
      3 NZ         37.9600    0.9750   42.0490 N.4       8 LYP4        0.0000 
      4 N          35.9495    2.9805   42.9415 N.am      2 SEC2        0.0000 
      5 N          36.8210    4.0260   43.2470 N.am     12 SEL2        0.0000 
      6 N          35.0780    1.9350   42.6360 N.am      7 SEP2        0.0000 
      7 Zn         35.0800    5.4485   41.2075 Zn        4 ZIC7        0.0000 
      8 Zn         35.9790    5.7570   41.5930 Zn       14 ZIL7        0.0000 
      9 Zn         34.1810    5.1400   40.8220 Zn        9 ZIP7        0.0000 
     10 NZ         37.4690    1.4665   40.7740 N.4       3 LYC4        0.0000 
     11 NZ         36.9780    1.9580   39.4990 N.4      13 LYL4        0.0000 
     12 N          37.4690    1.4665   40.7740 N.am      2 SEC2        0.0000 
     13 N          36.9780    1.9580   39.4990 N.am     12 SEL2        0.0000 
     14 N          37.9600    0.9750   42.0490 N.am      7 SEP2        0.0000 
     15 Zn         34.7900    4.5635   40.2075 Zn        4 ZIC7        0.0000 
     16 Zn         35.3990    3.9870   39.5930 Zn       14 ZIL7        0.0000 
     17 N          37.7430    2.3915   41.5100 N.am      2 SEC2        0.0000 
     18 N          37.5260    3.8080   40.9710 N.am     12 SEL2        0.0000 
     19 CA         39.6615    4.3110   38.4375 C.3       5 GLC5        0.0000 
     20 CA         37.9240    5.4750   38.2820 C.3      15 GLL5        0.0000 
     21 CA         41.3990    3.1470   38.5930 C.3      10 GLP5        0.0000 
     22 CA         39.8460    6.9295   37.0965 C.3       5 GLC5        0.0000 
     23 CA         38.0170    5.8180   36.7940 C.3      15 GLL5        0.0000 
     24 CA         41.6750    8.0410   37.3990 C.3      10 GLP5        0.0000 
     25 O          34.5820    5.9245   35.9225 O.2       1 ALC1        0.0000 
     26 O          35.8190    6.4010   35.9360 O.2      11 ALL1        0.0000 
     27 O          33.3450    5.4480   35.9090 O.2       6 ALP1        0.0000 
     28 CA         35.8585    5.6455   33.4605 C.3       5 GLC5        0.0000 
     29 CA         37.5270    5.1570   34.5730 C.3      15 GLL5        0.0000 
     30 CA         34.1900    6.1340   32.3480 C.3      10 GLP5        0.0000 
     31 O          36.6465    7.1525   33.3845 O.2       1 ALC1        0.0000 
     32 O          37.6710    6.3690   33.8400 O.2      11 ALL1        0.0000 
     33 O          35.6220    7.9360   32.9290 O.2       6 ALP1        0.0000 
     34 CA         40.8060    5.2140   34.2310 C.3       5 GLC5        0.0000 
     35 CA         38.9080    4.6310   34.9150 C.3      15 GLL5        0.0000 
     36 CA         42.7040    5.7970   33.5470 C.3      10 GLP5        0.0000 
     37 CA         40.6150    3.5725   35.6200 C.3       5 GLC5        0.0000 
     38 CA         42.3220    2.5140   36.3250 C.3      10 GLP5        0.0000 
     39 CA         38.1620   -0.6550   31.6375 C.3       5 GLC5        0.0000 
     40 CA         39.3880   -0.0470   33.3550 C.3      15 GLL5        0.0000 
     41 CA         36.9360   -1.2630   29.9200 C.3      10 GLP5        0.0000 
     42 O          39.1205   -1.9360   34.7920 O.2       1 ALC1        0.0000 
     43 O          39.3140   -1.3040   33.6310 O.2      11 ALL1        0.0000 
     44 O          38.9270   -2.5680   35.9530 O.2       6 ALP1        0.0000 
     45 O          39.6745   -2.3395   32.6400 O.2       1 ALC1        0.0000 
     46 O          40.0350   -3.3750   31.6490 O.2       6 ALP1        0.0000 
     47 N          39.7335   -0.1000   30.6810 N.am      2 SEC2        0.0000 
     48 N          39.7380    0.3790   32.0660 N.am     12 SEL2        0.0000 
     49 N          39.7290   -0.5790   29.2960 N.am      7 SEP2        0.0000 
     50 CA         41.5170    2.7440   31.9670 C.3       5 GLC5        0.0000 
     51 CA         39.8210    1.7050   31.7240 C.3      15 GLL5        0.0000 
     52 CA         43.2130    3.7830   32.2100 C.3      10 GLP5        0.0000 
     53 CA         41.3350    0.2985   32.5545 C.3       5 GLC5        0.0000 
     54 CA         42.8490   -1.1080   33.3850 C.3      10 GLP5        0.0000 
     55 CA         41.4715    1.2485   30.8710 C.3       5 GLC5        0.0000 
     56 CA         43.1220    0.7920   30.0180 C.3      10 GLP5        0.0000 
     57 CA         38.6165    0.8870   30.5260 C.3       5 GLC5        0.0000 
     58 CA         37.4120    0.0690   29.3280 C.3      10 GLP5        0.0000 
     59 CA         37.3690    2.3070   33.6005 C.3       5 GLC5        0.0000 
     60 CA         39.2430    2.3240   33.8160 C.3      15 GLL5        0.0000 
     61 CA         35.4950    2.2900   33.3850 C.3      10 GLP5        0.0000 
     62 CA         36.7709    3.6193   34.2316 C.3       5 GLC5        0.0000 
     63 CA         40.7542    2.0957   35.1870 C.3       5 GLC5        0.0000 
     64 CA         41.0540   -0.3080   33.6017 C.3       5 GLC5        0.0000 
     65 CA         39.1300    1.0310   34.2820 C.3      15 GLL5        0.0000 
     66 CA         37.6170    0.1820   33.7702 C.3       5 GLC5        0.0000 
     67 CA         35.9750   -0.1280   33.7220 C.3      10 GLP5        0.0000 
@<TRIPOS>BOND
@<TRIPOS>SUBSTRUCTURE
     1 ALC1       25 GROUP        1 X    ALC  0     ROOT ALC X 1
     2 SEC2        4 GROUP        1 X    SEC  0     **** SEC X 2
     3 LYC4        1 GROUP        1 X    LYC  0     **** LYC X 4
     4 ZIC7        7 GROUP        1 X    ZIC  0     **** ZIC X 5
     5 GLC5       19 GROUP        1 X    GLC  0     **** GLC X 6
     6 ALP1       27 GROUP        1 Y    ALP  0     ROOT ALP Y 8
     7 SEP2        6 GROUP        1 Y    SEP  0     **** SEP Y 9
     8 LYP4        3 GROUP        1 Y    LYP  0     **** LYP Y 11
     9 ZIP7        9 GROUP        1 Y    ZIP  0     **** ZIP Y 12
    10 GLP5       21 GROUP        1 Y    GLP  0     **** GLP Y 13
    11 ALL1       26 GROUP        1 Z    ALL  0     ROOT ALL Z 15
    12 SEL2        5 GROUP        1 Z    SEL  0     **** SEL Z 16
    13 LYL4        2 GROUP        1 Z    LYL  0     **** LYL Z 18
    14 ZIL7        8 GROUP        1 Z    ZIL  0     **** ZIL Z 19
    15 GLL5       20 GROUP        1 Z    GLL  0     **** GLL Z 20
@<TRIPOS>SET

