#    Name: 2b9j_ADP_1_ligand
#    Modification time : Mon Mar 24 20:24:33 2014

@<TRIPOS>MOLECULE
2b9j_ADP_1_ligand
   39    41     1     0     0
SMALL
NO_CHARGES


@<TRIPOS>ATOM
      1 PB         37.1960    4.8900   42.0780 P.3       1 ADP500      0.0000 
      2 O1B        38.4270    5.6740   42.3020 O.co2     1 ADP500      0.0000 
      3 O2B        36.8210    4.0260   43.2470 O.co2     1 ADP500      0.0000 
      4 O3B        35.9790    5.7570   41.5930 O.co2     1 ADP500      0.0000 
      5 PA         36.8380    3.4650   39.6410 P.3       1 ADP500      0.0000 
      6 O1A        36.9780    1.9580   39.4990 O.co2     1 ADP500      0.0000 
      7 O2A        35.3990    3.9870   39.5930 O.co2     1 ADP500      0.0000 
      8 O3A        37.5260    3.8080   40.9710 O.3       1 ADP500      0.0000 
      9 O5'        37.7830    4.0420   38.5090 O.3       1 ADP500      0.0000 
     10 C5'        37.9240    5.4750   38.2820 C.3       1 ADP500      0.0000 
     11 C4'        38.0170    5.8180   36.7940 C.3       1 ADP500      0.0000 
     12 O4'        39.1280    5.0810   36.2530 O.3       1 ADP500      0.0000 
     13 C3'        36.8440    5.3750   35.9100 C.3       1 ADP500      0.0000 
     14 O3'        35.8190    6.4010   35.9360 O.3       1 ADP500      0.0000 
     15 C2'        37.5270    5.1570   34.5730 C.3       1 ADP500      0.0000 
     16 O2'        37.6710    6.3690   33.8400 O.3       1 ADP500      0.0000 
     17 C1'        38.9080    4.6310   34.9150 C.3       1 ADP500      0.0000 
     18 N9         38.9380    3.1290   34.8830 N.pl3     1 ADP500      0.0000 
     19 C8         38.6620    2.2820   35.9150 C.2       1 ADP500      0.0000 
     20 N7         38.7690    1.0080   35.5800 N.2       1 ADP500      0.0000 
     21 C5         39.1300    1.0310   34.2820 C.ar      1 ADP500      0.0000 
     22 C6         39.3880   -0.0470   33.3550 C.ar      1 ADP500      0.0000 
     23 N6         39.3140   -1.3040   33.6310 N.pl3     1 ADP500      0.0000 
     24 N1         39.7380    0.3790   32.0660 N.ar      1 ADP500      0.0000 
     25 C2         39.8210    1.7050   31.7240 C.ar      1 ADP500      0.0000 
     26 N3         39.5820    2.6960   32.5700 N.ar      1 ADP500      0.0000 
     27 C4         39.2430    2.3240   33.8160 C.ar      1 ADP500      0.0000 
     28 H          38.8296    5.8627   38.7770 H         1 ADP500      0.0000 
     29 H          37.0666    6.0247   38.7041 H         1 ADP500      0.0000 
     30 H          38.1810    6.8616   36.6608 H         1 ADP500      0.0000 
     31 H          36.5135    4.4356   36.2876 H         1 ADP500      0.0000 
     32 H          37.0081    4.4010   34.0376 H         1 ADP500      0.0000 
     33 H          39.6108    5.0404   34.2460 H         1 ADP500      0.0000 
     34 H          38.4074    2.6118   36.8218 H         1 ADP500      0.0000 
     35 H          39.5105   -1.9321   32.8781 H         1 ADP500      0.0000 
     36 H          39.0669   -1.5340   34.5723 H         1 ADP500      0.0000 
     37 H          40.0943    1.9301   30.7174 H         1 ADP500      0.0000 
     38 H          34.9528    5.9020   35.9114 H         1 ADP500      0.0000 
     39 H          36.7362    6.6666   33.6460 H         1 ADP500      0.0000 
@<TRIPOS>BOND
     1    2    1 ar   
     2    3    1 ar   
     3    4    1 ar   
     4    8    1 1    
     5    6    5 ar   
     6    7    5 ar   
     7    8    5 1    
     8    9    5 1    
     9   10    9 1    
    10   11   10 1    
    11   28   10 1    
    12   29   10 1    
    13   12   11 1    
    14   13   11 1    
    15   30   11 1    
    16   17   12 1    
    17   14   13 1    
    18   15   13 1    
    19   31   13 1    
    20   38   14 1    
    21   16   15 1    
    22   17   15 1    
    23   32   15 1    
    24   39   16 1    
    25   18   17 1    
    26   33   17 1    
    27   19   18 1    
    28   27   18 1    
    29   20   19 2    
    30   34   19 1    
    31   21   20 1    
    32   22   21 ar   
    33   27   21 ar   
    34   23   22 1    
    35   24   22 ar   
    36   35   23 1    
    37   36   23 1    
    38   25   24 ar   
    39   26   25 ar   
    40   37   25 1    
    41   27   26 ar   
@<TRIPOS>SUBSTRUCTURE
     1 ADP500      1 GROUP   
@<TRIPOS>SET

