#    Name: 4b4v_L34_1_INTS_M
#    Modification time : Tue Mar 25 06:41:16 2014

@<TRIPOS>MOLECULE
4b4v_L34_1_INTS_M
   63     0     9     0     0
SMALL
NO_CHARGES


@<TRIPOS>ATOM
      1 O          17.9680   -5.4275   31.5330 O.2       1 ALC1        0.0000 
      2 O          16.7950   -4.7340   31.1220 O.2       7 ALL1        0.0000 
      3 O          19.1410   -6.1210   31.9440 O.2       4 ALP1        0.0000 
      4 O          16.9840   -3.4820   31.3110 O.2       1 ALC1        0.0000 
      5 O          17.1730   -2.2300   31.5000 O.2       4 ALP1        0.0000 
      6 N          16.3655   -7.1045   29.9445 N.am      2 SEC2        0.0000 
      7 N          15.5500   -5.9130   29.5540 N.am      8 SEL2        0.0000 
      8 N          17.1810   -8.2960   30.3350 N.am      5 SEP2        0.0000 
      9 CA         17.7530   -3.6960   29.6885 C.3       3 GLC5        0.0000 
     10 CA         15.9740   -4.7420   30.0750 C.3       9 GLL5        0.0000 
     11 CA         19.5320   -2.6500   29.3020 C.3       6 GLP5        0.0000 
     12 CA         17.6115   -6.0590   29.7670 C.3       3 GLC5        0.0000 
     13 CA         19.2490   -7.3760   29.4590 C.3       6 GLP5        0.0000 
     14 CA         15.6090   -6.6420   30.9475 C.3       3 GLC5        0.0000 
     15 CA         15.2440   -8.5420   31.8200 C.3       6 GLP5        0.0000 
     16 CA         14.2275   -5.1235   30.8930 C.3       3 GLC5        0.0000 
     17 CA         12.4810   -5.5050   31.7110 C.3       6 GLP5        0.0000 
     18 N          15.7355   -2.7545   27.0890 N.am      2 SEC2        0.0000 
     19 N          14.3590   -2.3250   27.9770 N.am      8 SEL2        0.0000 
     20 N          17.1120   -3.1840   26.2010 N.am      5 SEP2        0.0000 
     21 O          14.8040   -8.2800   28.3275 O.2       1 ALC1        0.0000 
     22 O          14.2360   -7.0950   27.9090 O.2       7 ALL1        0.0000 
     23 O          15.3720   -9.4650   28.7460 O.2       4 ALP1        0.0000 
     24 O          14.8290   -8.3560   26.9630 O.2       1 ALC1        0.0000 
     25 O          15.4220   -9.6170   26.0170 O.2       4 ALP1        0.0000 
     26 CA         14.9815   -7.2290   30.1595 C.3       3 GLC5        0.0000 
     27 CA         14.7190   -5.9160   28.4990 C.3       9 GLL5        0.0000 
     28 N          15.8555   -3.4025   25.7325 N.am      2 SEC2        0.0000 
     29 N          14.5990   -3.6210   25.2640 N.am      8 SEL2        0.0000 
     30 CA         12.5550   -6.8755   23.9750 C.3       3 GLC5        0.0000 
     31 CA         11.7070   -5.5880   25.5460 C.3       9 GLL5        0.0000 
     32 CA         13.4030   -8.1630   22.4040 C.3       6 GLP5        0.0000 
     33 CA         12.4690   -1.3815   23.0550 C.3       3 GLC5        0.0000 
     34 CA         12.9030   -2.9880   21.5680 C.3       9 GLL5        0.0000 
     35 CA         12.0350    0.2250   24.5420 C.3       6 GLP5        0.0000 
     36 CA         14.4330   -1.8525   20.8685 C.3       3 GLC5        0.0000 
     37 CA         15.9630   -0.7170   20.1690 C.3       6 GLP5        0.0000 
     38 CA         14.5030   -1.7335   22.2110 C.3       3 GLC5        0.0000 
     39 CA         13.1600   -3.3680   22.8810 C.3       9 GLL5        0.0000 
     40 CA         15.8460   -0.0990   21.5410 C.3       6 GLP5        0.0000 
     41 CA          8.6655   -6.1105   16.3820 C.3       3 GLC5        0.0000 
     42 CA         10.1180   -4.9630   16.5150 C.3       9 GLL5        0.0000 
     43 CA          7.2130   -7.2580   16.2490 C.3       6 GLP5        0.0000 
     44 CA          9.7335   -7.0790   16.1650 C.3       3 GLC5        0.0000 
     45 CA         11.3270   -5.9060   16.3390 C.3       9 GLL5        0.0000 
     46 CA          8.1400   -8.2520   15.9910 C.3       6 GLP5        0.0000 
     47 N          11.2230   -7.4175   19.6540 N.am      2 SEC2        0.0000 
     48 N          10.7940   -6.7170   18.5330 N.am      8 SEL2        0.0000 
     49 N          11.6520   -8.1180   20.7750 N.am      5 SEP2        0.0000 
     50 N           7.9945   -1.2705   16.0515 N.am      2 SEC2        0.0000 
     51 N           9.1100   -1.8990   16.4750 N.am      8 SEL2        0.0000 
     52 N           6.8790   -0.6420   15.6280 N.am      5 SEP2        0.0000 
     53 CA         13.5539   -5.2600   30.0377 C.3       3 GLC5        0.0000 
     54 CA         14.3130   -4.7140   27.9610 C.3       9 GLL5        0.0000 
     55 CA         12.8582   -2.2075   24.3520 C.3       3 GLC5        0.0000 
     56 CA         12.4290   -4.3980   23.4890 C.3       9 GLL5        0.0000 
     57 CA         12.9220   -0.5320   25.5190 C.3       6 GLP5        0.0000 
     58 CA         10.9809   -2.0682   21.0901 C.3       3 GLC5        0.0000 
     59 CA         11.8970   -3.6160   20.8410 C.3       9 GLL5        0.0000 
     60 CA          9.7500   -0.5830   20.8240 C.3       6 GLP5        0.0000 
     61 CA          8.6555   -3.8810   15.7292 C.3       3 GLC5        0.0000 
     62 CA         10.4860   -3.6850   17.2840 C.3       9 GLL5        0.0000 
     63 CA          7.0090   -3.4380   14.5590 C.3       6 GLP5        0.0000 
@<TRIPOS>BOND
@<TRIPOS>SUBSTRUCTURE
     1 ALC1        1 GROUP        1 X    ALC  0     ROOT ALC X 1
     2 SEC2        6 GROUP        1 X    SEC  0     **** SEC X 2
     3 GLC5        9 GROUP        1 X    GLC  0     **** GLC X 6
     4 ALP1        3 GROUP        1 Y    ALP  0     ROOT ALP Y 8
     5 SEP2        8 GROUP        1 Y    SEP  0     **** SEP Y 9
     6 GLP5       11 GROUP        1 Y    GLP  0     **** GLP Y 13
     7 ALL1        2 GROUP        1 Z    ALL  0     ROOT ALL Z 15
     8 SEL2        7 GROUP        1 Z    SEL  0     **** SEL Z 16
     9 GLL5       10 GROUP        1 Z    GLL  0     **** GLL Z 20
@<TRIPOS>SET

