#    Name: 4b4v_L34_1_ligand
#    Modification time : Tue Mar 25 06:41:16 2014

@<TRIPOS>MOLECULE
4b4v_L34_1_ligand
   53    56     1     0     0
SMALL
NO_CHARGES


@<TRIPOS>ATOM
      1 N2A        16.7950   -4.7340   31.1220 N.pl3     1 L342001     0.0000 
      2 N1         15.5500   -5.9130   29.5540 N.ar      1 L342001     0.0000 
      3 C2         15.9740   -4.7420   30.0750 C.ar      1 L342001     0.0000 
      4 N3         15.5780   -3.5610   29.5500 N.ar      1 L342001     0.0000 
      5 C4         14.7560   -3.5140   28.4990 C.ar      1 L342001     0.0000 
      6 O4A        14.3590   -2.3250   27.9770 O.3       1 L342001     0.0000 
      7 C4A        14.3130   -4.7140   27.9610 C.ar      1 L342001     0.0000 
      8 N5         13.4770   -4.7800   26.8710 N.am      1 L342001     0.0000 
      9 C6         12.3500   -5.7020   26.9260 C.3       1 L342001     0.0000 
     10 C7         12.9840   -7.1000   27.0860 C.3       1 L342001     0.0000 
     11 N8         14.2360   -7.0950   27.9090 N.pl3     1 L342001     0.0000 
     12 C8A        14.7190   -5.9160   28.4990 C.ar      1 L342001     0.0000 
     13 CX         13.6500   -4.3440   25.5690 C.2       1 L342001     0.0000 
     14 OX         14.5990   -3.6210   25.2640 O.2       1 L342001     0.0000 
     15 C9         11.7070   -5.5880   25.5460 C.3       1 L342001     0.0000 
     16 N10        12.6520   -4.7630   24.7660 N.am      1 L342001     0.0000 
     17 C1B        12.4290   -4.3980   23.4890 C.ar      1 L342001     0.0000 
     18 C2B        11.4070   -5.0140   22.7560 C.ar      1 L342001     0.0000 
     19 C3B        11.1440   -4.6220   21.4480 C.ar      1 L342001     0.0000 
     20 C4B        11.8970   -3.6160   20.8410 C.ar      1 L342001     0.0000 
     21 C5B        12.9030   -2.9880   21.5680 C.ar      1 L342001     0.0000 
     22 C6B        13.1600   -3.3680   22.8810 C.ar      1 L342001     0.0000 
     23 C7B        11.6070   -3.1670   19.4070 C.2       1 L342001     0.0000 
     24 O7B        11.9470   -2.0450   19.0230 O.2       1 L342001     0.0000 
     25 N          10.9030   -4.0210   18.6570 N.am      1 L342001     0.0000 
     26 CA         10.4860   -3.6850   17.2840 C.3       1 L342001     0.0000 
     27 CB         10.1180   -4.9630   16.5150 C.3       1 L342001     0.0000 
     28 CG         11.3270   -5.9060   16.3390 C.3       1 L342001     0.0000 
     29 CD         11.4530   -6.9360   17.4840 C.2       1 L342001     0.0000 
     30 OE1        12.2280   -7.9050   17.2950 O.co2     1 L342001     0.0000 
     31 OE2        10.7940   -6.7170   18.5330 O.co2     1 L342001     0.0000 
     32 C           9.2590   -2.7400   17.3860 C.2       1 L342001     0.0000 
     33 O           8.5040   -2.8510   18.3860 O.co2     1 L342001     0.0000 
     34 OXT         9.1100   -1.8990   16.4750 O.co2     1 L342001     0.0000 
     35 H          16.7132   -3.9516   31.7393 H         1 L342001     0.0000 
     36 H          17.4198   -5.5111   31.1971 H         1 L342001     0.0000 
     37 H          11.6968   -5.4953   27.6721 H         1 L342001     0.0000 
     38 H          13.1971   -7.4971   26.0808 H         1 L342001     0.0000 
     39 H          12.2357   -7.7655   27.5450 H         1 L342001     0.0000 
     40 H          14.7181   -7.9862   28.0191 H         1 L342001     0.0000 
     41 H          10.7606   -5.1004   25.6420 H         1 L342001     0.0000 
     42 H          11.6123   -6.5655   25.1241 H         1 L342001     0.0000 
     43 H          10.8492   -5.7615   23.1922 H         1 L342001     0.0000 
     44 H          10.3844   -5.0785   20.9187 H         1 L342001     0.0000 
     45 H          13.4595   -2.2389   21.1324 H         1 L342001     0.0000 
     46 H          13.8988   -2.8875   23.4196 H         1 L342001     0.0000 
     47 H          10.6144   -4.9578   18.9967 H         1 L342001     0.0000 
     48 H          11.2633   -3.1703   16.7689 H         1 L342001     0.0000 
     49 H           9.7356   -4.6907   15.5291 H         1 L342001     0.0000 
     50 H           9.3318   -5.4934   17.0563 H         1 L342001     0.0000 
     51 H          12.2415   -5.3079   16.2984 H         1 L342001     0.0000 
     52 H          11.2255   -6.4411   15.3909 H         1 L342001     0.0000 
     53 H          14.3487   -2.4675   26.9873 H         1 L342001     0.0000 
@<TRIPOS>BOND
     1    3    1 1    
     2   35    1 1    
     3   36    1 1    
     4    3    2 ar   
     5   12    2 ar   
     6    4    3 ar   
     7    5    4 ar   
     8    6    5 1    
     9    7    5 ar   
    10   53    6 1    
    11    8    7 1    
    12   12    7 ar   
    13    9    8 1    
    14   13    8 am   
    15   10    9 1    
    16   15    9 1    
    17   37    9 1    
    18   11   10 1    
    19   38   10 1    
    20   39   10 1    
    21   12   11 1    
    22   40   11 1    
    23   14   13 2    
    24   16   13 am   
    25   16   15 1    
    26   41   15 1    
    27   42   15 1    
    28   17   16 1    
    29   18   17 ar   
    30   22   17 ar   
    31   19   18 ar   
    32   43   18 1    
    33   20   19 ar   
    34   44   19 1    
    35   21   20 ar   
    36   23   20 1    
    37   22   21 ar   
    38   45   21 1    
    39   46   22 1    
    40   24   23 2    
    41   25   23 am   
    42   26   25 1    
    43   47   25 1    
    44   27   26 1    
    45   32   26 1    
    46   48   26 1    
    47   28   27 1    
    48   49   27 1    
    49   50   27 1    
    50   29   28 1    
    51   51   28 1    
    52   52   28 1    
    53   30   29 ar   
    54   31   29 ar   
    55   33   32 ar   
    56   34   32 ar   
@<TRIPOS>SUBSTRUCTURE
     1 L342001     1 GROUP   
@<TRIPOS>SET

