#    Name: 3u6i_044_1_INTS_M
#    Modification time : Mon Mar 24 21:42:27 2014

@<TRIPOS>MOLECULE
3u6i_044_1_INTS_M
   99     0     6     0     0
SMALL
NO_CHARGES


@<TRIPOS>ATOM
      1 CA         24.6230   -4.9930   19.3685 C.3       2 GLC5        0.0000 
      2 CA         23.5170   -4.8210   21.2380 C.3       6 GLL5        0.0000 
      3 CA         25.7290   -5.1650   17.4990 C.3       4 GLP5        0.0000 
      4 CA         25.7370   -5.2415   23.8790 C.3       2 GLC5        0.0000 
      5 CA         24.2370   -4.8530   22.4350 C.3       6 GLL5        0.0000 
      6 CA         27.2370   -5.6300   25.3230 C.3       4 GLP5        0.0000 
      7 CA         24.4245   -3.2600   23.4710 C.3       2 GLC5        0.0000 
      8 CA         24.6120   -1.6670   24.5070 C.3       4 GLP5        0.0000 
      9 N          24.5085   -4.7375   24.7860 N.am      1 SEC2        0.0000 
     10 N          23.6500   -5.2180   23.5710 N.am      5 SEL2        0.0000 
     11 N          25.3670   -4.2570   26.0010 N.am      3 SEP2        0.0000 
     12 CA         23.8775   -6.7570   22.5115 C.3       2 GLC5        0.0000 
     13 CA         22.3430   -5.5570   23.6080 C.3       6 GLL5        0.0000 
     14 CA         25.4120   -7.9570   21.4150 C.3       4 GLP5        0.0000 
     15 CA         21.0000   -1.9740   20.4255 C.3       2 GLC5        0.0000 
     16 CA         21.8220   -3.1160   18.8650 C.3       6 GLL5        0.0000 
     17 CA         20.1780   -0.8320   21.9860 C.3       4 GLP5        0.0000 
     18 CA         22.1260   -0.5500   18.0960 C.3       2 GLC5        0.0000 
     19 CA         22.2990   -2.5250   17.6860 C.3       6 GLL5        0.0000 
     20 CA         21.9530    1.4250   18.5060 C.3       4 GLP5        0.0000 
     21 N          22.0520    0.4900   15.6640 N.am      1 SEC2        0.0000 
     22 N          22.9040   -0.5690   15.6970 N.am      5 SEL2        0.0000 
     23 N          21.2000    1.5490   15.6310 N.am      3 SEP2        0.0000 
     24 CA         25.2160   -5.8250    8.8525 C.3       2 GLC5        0.0000 
     25 CA         25.7200   -3.6950    8.7680 C.3       6 GLL5        0.0000 
     26 CA         24.7120   -7.9550    8.9370 C.3       4 GLP5        0.0000 
     27 CA         29.3240   -4.6280   10.2925 C.3       2 GLC5        0.0000 
     28 CA         27.7860   -3.3130    9.9640 C.3       6 GLL5        0.0000 
     29 CA         30.8620   -5.9430   10.6210 C.3       4 GLP5        0.0000 
     30 CA         22.9420   -7.6725   16.6340 C.3       2 GLC5        0.0000 
     31 CA         22.3070   -6.6240   18.0920 C.3       6 GLL5        0.0000 
     32 CA         23.5770   -8.7210   15.1760 C.3       4 GLP5        0.0000 
     33 CA         25.7395    0.8625   14.4735 C.3       2 GLC5        0.0000 
     34 CA         24.2090    1.2560   13.5580 C.3       6 GLL5        0.0000 
     35 CA         27.2700    0.4690   15.3890 C.3       4 GLP5        0.0000 
     36 CA         22.2815    1.2500   14.0135 C.3       2 GLC5        0.0000 
     37 CA         20.3540    1.2440   14.4690 C.3       4 GLP5        0.0000 
     38 CA         24.6185    2.7935   14.3525 C.3       2 GLC5        0.0000 
     39 CA         25.0280    4.3310   15.1470 C.3       4 GLP5        0.0000 
     40 CA         26.7280    0.2700   12.3240 C.3       2 GLC5        0.0000 
     41 CA         25.6720    0.4140   10.9450 C.3       6 GLL5        0.0000 
     42 CA         27.7840    0.1260   13.7030 C.3       4 GLP5        0.0000 
     43 CA         25.1180    3.9020    8.8575 C.3       2 GLC5        0.0000 
     44 CA         25.5780    2.0810    9.0770 C.3       6 GLL5        0.0000 
     45 CA         24.6580    5.7230    8.6380 C.3       4 GLP5        0.0000 
     46 CA         20.8855   -8.3135   25.2700 C.3       2 GLC5        0.0000 
     47 CA         20.6820   -7.0740   27.0560 C.3       6 GLL5        0.0000 
     48 CA         21.0890   -9.5530   23.4840 C.3       4 GLP5        0.0000 
     49 CA         22.3870   -7.6990   27.6980 C.3       2 GLC5        0.0000 
     50 CA         24.0920   -8.3240   28.3400 C.3       4 GLP5        0.0000 
     51 CA         19.9575   -5.0865   26.9375 C.3       2 GLC5        0.0000 
     52 CA         19.2330   -3.0990   26.8190 C.3       4 GLP5        0.0000 
     53 CA         21.0820   -7.8315   24.1575 C.3       2 GLC5        0.0000 
     54 CA         20.3980   -6.2900   24.8500 C.3       6 GLL5        0.0000 
     55 CA         20.7520   -4.1830   23.9305 C.3       2 GLC5        0.0000 
     56 CA         20.4290   -2.2560   23.0300 C.3       4 GLP5        0.0000 
     57 CA         21.6342   -3.6267   22.1328 C.3       2 GLC5        0.0000 
     58 CA         21.5237   -7.5533   23.2530 C.3       2 GLC5        0.0000 
     59 CA         21.5740   -5.5500   22.4360 C.3       6 GLL5        0.0000 
     60 CA         22.9367   -4.0678   24.9100 C.3       2 GLC5        0.0000 
     61 CA         23.8260   -2.3920   25.6100 C.3       4 GLP5        0.0000 
     62 CA         21.1938   -3.9047   23.0260 C.3       2 GLC5        0.0000 
     63 CA         24.2157   -6.4812   21.4749 C.3       2 GLC5        0.0000 
     64 CA         22.1620   -5.1740   21.2330 C.3       6 GLL5        0.0000 
     65 CA         20.5090   -7.8180   23.2818 C.3       2 GLC5        0.0000 
     66 CA         20.2220   -5.9000   22.4750 C.3       6 GLL5        0.0000 
     67 CA         19.7942   -4.6435   25.5382 C.3       2 GLC5        0.0000 
     68 CA         19.6360   -6.2660   23.6840 C.3       6 GLL5        0.0000 
     69 CA         20.1790   -4.1695   23.0547 C.3       2 GLC5        0.0000 
     70 CA         21.4920   -7.7047   18.1475 C.3       2 GLC5        0.0000 
     71 CA         22.3050   -5.2870   17.9440 C.3       6 GLL5        0.0000 
     72 CA         20.6780   -9.4540   18.2770 C.3       4 GLP5        0.0000 
     73 CA         22.2165   -6.1337   15.6815 C.3       2 GLC5        0.0000 
     74 CA         21.8910   -7.2760   14.0030 C.3       4 GLP5        0.0000 
     75 CA         23.7189   -1.8644   18.3124 C.3       2 GLC5        0.0000 
     76 CA         22.7730   -3.3070   16.6280 C.3       6 GLL5        0.0000 
     77 CA         25.0210   -0.6650   19.1730 C.3       4 GLP5        0.0000 
     78 CA         24.1332   -4.2141   17.3465 C.3       2 GLC5        0.0000 
     79 CA         26.0160   -0.3205   13.5445 C.3       2 GLC5        0.0000 
     80 CA         24.0470   -1.3510   13.7050 C.3       6 GLL5        0.0000 
     81 CA         27.0790   -1.2075   12.2948 C.3       2 GLC5        0.0000 
     82 CA         25.6800   -2.4600   10.8340 C.3       6 GLL5        0.0000 
     83 CA         26.8730   -3.9780   12.2997 C.3       2 GLC5        0.0000 
     84 CA         27.0680   -2.6220   10.9390 C.3       6 GLL5        0.0000 
     85 CA         27.3720   -5.4150   13.7130 C.3       4 GLP5        0.0000 
     86 CA         26.1403   -2.1090    7.9640 C.3       2 GLC5        0.0000 
     87 CA         24.9990   -3.0030    9.7440 C.3       6 GLL5        0.0000 
     88 CA         26.9210   -0.8690    6.6720 C.3       4 GLP5        0.0000 
     89 CA         27.1825   -2.2255    8.0455 C.3       2 GLC5        0.0000 
     90 CA         27.1020   -3.8510    8.8740 C.3       6 GLL5        0.0000 
     91 CA         29.1500   -2.6855    9.0355 C.3       2 GLC5        0.0000 
     92 CA         30.8560   -1.7890    8.6520 C.3       4 GLP5        0.0000 
     93 CA         26.8593   -5.1630   10.5777 C.3       2 GLC5        0.0000 
     94 CA         26.6200   -6.7830   11.7630 C.3       4 GLP5        0.0000 
     95 CA         20.3040   -5.8993   18.2005 C.3       2 GLC5        0.0000 
     96 CA         18.4190   -6.0370   18.1210 C.3       4 GLP5        0.0000 
     97 CA         23.9590   -5.4633   17.8895 C.3       2 GLC5        0.0000 
     98 CA         26.0465    0.3530    8.0805 C.3       2 GLC5        0.0000 
     99 CA         24.7660    1.0690    9.9010 C.3       6 GLL5        0.0000 
@<TRIPOS>BOND
@<TRIPOS>SUBSTRUCTURE
     1 SEC2        9 GROUP        1 X    SEC  0     ROOT SEC X 2
     2 GLC5        1 GROUP        1 X    GLC  0     **** GLC X 6
     3 SEP2       11 GROUP        1 Y    SEP  0     ROOT SEP Y 9
     4 GLP5        3 GROUP        1 Y    GLP  0     **** GLP Y 13
     5 SEL2       10 GROUP        1 Z    SEL  0     ROOT SEL Z 16
     6 GLL5        2 GROUP        1 Z    GLL  0     **** GLL Z 20
@<TRIPOS>SET

