#    Name: 3u6i_044_1_ligand
#    Modification time : Mon Mar 24 21:42:27 2014

@<TRIPOS>MOLECULE
3u6i_044_1_ligand
   67    71     1     0     0
SMALL
NO_CHARGES


@<TRIPOS>ATOM
      1 CAA        20.3980   -6.2900   24.8500 C.ar      1 0441        0.0000 
      2 CAB        23.5170   -4.8210   21.2380 C.ar      1 0441        0.0000 
      3 CAC        24.2370   -4.8530   22.4350 C.ar      1 0441        0.0000 
      4 NAD        23.6500   -5.2180   23.5710 N.ar      1 0441        0.0000 
      5 CAE        22.3430   -5.5570   23.6080 C.ar      1 0441        0.0000 
      6 CAF        21.5740   -5.5500   22.4360 C.ar      1 0441        0.0000 
      7 CAG        22.1620   -5.1740   21.2330 C.ar      1 0441        0.0000 
      8 CAH        21.7520   -5.9300   24.8120 C.ar      1 0441        0.0000 
      9 CAI        19.6360   -6.2660   23.6840 C.ar      1 0441        0.0000 
     10 CAJ        20.2220   -5.9000   22.4750 C.ar      1 0441        0.0000 
     11 OAK        21.3800   -5.1630   20.1030 O.3       1 0441        0.0000 
     12 CAL        21.8370   -4.5110   18.9920 C.ar      1 0441        0.0000 
     13 CAM        21.8220   -3.1160   18.8650 C.ar      1 0441        0.0000 
     14 CAN        22.3050   -5.2870   17.9440 C.ar      1 0441        0.0000 
     15 CAO        22.7790   -4.6960   16.7760 C.ar      1 0441        0.0000 
     16 CAP        22.7730   -3.3070   16.6280 C.ar      1 0441        0.0000 
     17 CAQ        22.2990   -2.5250   17.6860 C.ar      1 0441        0.0000 
     18 NAR        23.2770   -2.8070   15.4800 N.am      1 0441        0.0000 
     19 CAS        24.5030   -2.3620   12.8740 C.2       1 0441        0.0000 
     20 CAT        24.0470   -1.3510   13.7050 C.2       1 0441        0.0000 
     21 CAU        23.3260   -1.5340   15.0590 C.2       1 0441        0.0000 
     22 OAV        22.9040   -0.5690   15.6970 O.2       1 0441        0.0000 
     23 NAW        25.0570   -0.5370   11.9200 N.pl3     1 0441        0.0000 
     24 CAX        24.4490   -0.1830   13.0670 C.2       1 0441        0.0000 
     25 NAY        25.0850   -1.7820   11.8190 N.am      1 0441        0.0000 
     26 OAZ        24.3570   -3.5710   13.0650 O.2       1 0441        0.0000 
     27 CBA        25.6800   -2.4600   10.8340 C.ar      1 0441        0.0000 
     28 CBB        27.0680   -2.6220   10.9390 C.ar      1 0441        0.0000 
     29 CBC        24.9990   -3.0030    9.7440 C.ar      1 0441        0.0000 
     30 CBD        25.7200   -3.6950    8.7680 C.ar      1 0441        0.0000 
     31 CBE        27.7860   -3.3130    9.9640 C.ar      1 0441        0.0000 
     32 CBF        27.1020   -3.8510    8.8740 C.ar      1 0441        0.0000 
     33 FBG        22.3070   -6.6240   18.0920 F         1 0441        0.0000 
     34 CBH        24.2090    1.2560   13.5580 C.3       1 0441        0.0000 
     35 CBI        25.6720    0.4140   10.9450 C.3       1 0441        0.0000 
     36 CBJ        24.7660    1.0690    9.9010 C.3       1 0441        0.0000 
     37 CBK        25.5780    2.0810    9.0770 C.3       1 0441        0.0000 
     38 OBL        24.2000    0.0810    9.0490 O.3       1 0441        0.0000 
     39 OBM        19.7840   -6.6550   26.0110 O.3       1 0441        0.0000 
     40 CBN        20.6820   -7.0740   27.0560 C.3       1 0441        0.0000 
     41 H          23.9770   -4.5408   20.3675 H         1 0441        0.0000 
     42 H          25.2435   -4.5825   22.4060 H         1 0441        0.0000 
     43 H          22.3061   -5.9428   25.6770 H         1 0441        0.0000 
     44 H          18.6401   -6.5188   23.7164 H         1 0441        0.0000 
     45 H          19.6643   -5.8868   21.6143 H         1 0441        0.0000 
     46 H          21.4667   -2.5334   19.6244 H         1 0441        0.0000 
     47 H          23.1385   -5.2876   16.0114 H         1 0441        0.0000 
     48 H          22.2995   -1.4963   17.5995 H         1 0441        0.0000 
     49 H          23.7108   -3.5558   14.7898 H         1 0441        0.0000 
     50 H          27.5637   -2.2222   11.7523 H         1 0441        0.0000 
     51 H          23.9877   -2.8965    9.6602 H         1 0441        0.0000 
     52 H          25.2220   -4.0964    7.9569 H         1 0441        0.0000 
     53 H          28.7968   -3.4237   10.0463 H         1 0441        0.0000 
     54 H          27.6175   -4.3635    8.1473 H         1 0441        0.0000 
     55 H          26.5056   -0.1075   10.3973 H         1 0441        0.0000 
     56 H          26.1937    1.2355   11.5105 H         1 0441        0.0000 
     57 H          23.9979    1.6213   10.4303 H         1 0441        0.0000 
     58 H          24.6305    1.4192   14.4500 H         1 0441        0.0000 
     59 H          24.5885    1.9321   12.9264 H         1 0441        0.0000 
     60 H          23.2343    1.4583   13.6529 H         1 0441        0.0000 
     61 H          25.9692    2.7994    9.6521 H         1 0441        0.0000 
     62 H          26.3382    1.6438    8.5964 H         1 0441        0.0000 
     63 H          25.0152    2.5333    8.3852 H         1 0441        0.0000 
     64 H          21.2293   -7.8643   26.7806 H         1 0441        0.0000 
     65 H          21.3218   -6.3483   27.3090 H         1 0441        0.0000 
     66 H          20.1897   -7.3336   27.8868 H         1 0441        0.0000 
     67 H          23.2766    0.4093    8.8500 H         1 0441        0.0000 
@<TRIPOS>BOND
     1    8    1 ar   
     2    9    1 ar   
     3   39    1 1    
     4    3    2 ar   
     5    7    2 ar   
     6   41    2 1    
     7    4    3 ar   
     8   42    3 1    
     9    5    4 ar   
    10    6    5 ar   
    11    8    5 ar   
    12    7    6 ar   
    13   10    6 ar   
    14   11    7 1    
    15   43    8 1    
    16   10    9 ar   
    17   44    9 1    
    18   45   10 1    
    19   12   11 1    
    20   13   12 ar   
    21   14   12 ar   
    22   17   13 ar   
    23   46   13 1    
    24   15   14 ar   
    25   33   14 1    
    26   16   15 ar   
    27   47   15 1    
    28   17   16 ar   
    29   18   16 1    
    30   48   17 1    
    31   21   18 am   
    32   49   18 1    
    33   20   19 1    
    34   25   19 am   
    35   26   19 2    
    36   21   20 1    
    37   24   20 2    
    38   22   21 2    
    39   24   23 1    
    40   25   23 1    
    41   35   23 1    
    42   34   24 1    
    43   27   25 1    
    44   28   27 ar   
    45   29   27 ar   
    46   31   28 ar   
    47   50   28 1    
    48   30   29 ar   
    49   51   29 1    
    50   32   30 ar   
    51   52   30 1    
    52   32   31 ar   
    53   53   31 1    
    54   54   32 1    
    55   58   34 1    
    56   59   34 1    
    57   60   34 1    
    58   36   35 1    
    59   55   35 1    
    60   56   35 1    
    61   37   36 1    
    62   38   36 1    
    63   57   36 1    
    64   61   37 1    
    65   62   37 1    
    66   63   37 1    
    67   67   38 1    
    68   40   39 1    
    69   64   40 1    
    70   65   40 1    
    71   66   40 1    
@<TRIPOS>SUBSTRUCTURE
     1 0441        1 GROUP   
@<TRIPOS>SET

