#    Name: 3uq6_ADN_2_INTS_M
#    Modification time : Mon Mar 24 23:17:19 2014

@<TRIPOS>MOLECULE
3uq6_ADN_2_INTS_M
   64     0     9     0     0
SMALL
NO_CHARGES


@<TRIPOS>ATOM
      1 O          22.1590  -24.2075  -27.4625 O.2       1 ALC1        0.0000 
      2 O          22.3130  -23.0120  -28.2940 O.2       7 ALL1        0.0000 
      3 O          22.0050  -25.4030  -26.6310 O.2       4 ALP1        0.0000 
      4 CA         23.2435  -20.2790  -28.1930 C.3       3 GLC5        0.0000 
      5 CA         22.3140  -21.8330  -27.4960 C.3       9 GLL5        0.0000 
      6 CA         24.1730  -18.7250  -28.8900 C.3       6 GLP5        0.0000 
      7 CA         20.6750  -22.6850  -27.9390 C.3       3 GLC5        0.0000 
      8 CA         19.0360  -23.5370  -28.3820 C.3       6 GLP5        0.0000 
      9 N          21.3680  -23.0010  -23.9620 N.am      2 SEC2        0.0000 
     10 N          21.8910  -21.6780  -23.9870 N.am      8 SEL2        0.0000 
     11 N          20.8450  -24.3240  -23.9370 N.am      5 SEP2        0.0000 
     12 O          21.3240  -20.6955  -23.1480 O.2       1 ALC1        0.0000 
     13 O          21.8910  -21.6780  -23.9870 O.2       7 ALL1        0.0000 
     14 O          20.7570  -19.7130  -22.3090 O.2       4 ALP1        0.0000 
     15 CA         25.0590  -19.0625  -23.6905 C.3       3 GLC5        0.0000 
     16 CA         23.9650  -20.5560  -24.5640 C.3       9 GLL5        0.0000 
     17 CA         26.1530  -17.5690  -22.8170 C.3       6 GLP5        0.0000 
     18 N          24.0415  -21.6250  -22.2440 N.am      2 SEC2        0.0000 
     19 N          24.0560  -20.3610  -23.1680 N.am      8 SEL2        0.0000 
     20 N          24.0270  -22.8890  -21.3200 N.am      5 SEP2        0.0000 
     21 O          23.3645  -19.5235  -22.5910 O.2       1 ALC1        0.0000 
     22 O          24.0560  -20.3610  -23.1680 O.2       7 ALL1        0.0000 
     23 O          22.6730  -18.6860  -22.0140 O.2       4 ALP1        0.0000 
     24 O          22.4065  -20.0370  -22.7385 O.2       1 ALC1        0.0000 
     25 CA         25.0110  -22.7365  -23.2990 C.3       3 GLC5        0.0000 
     26 CA         24.9020  -21.6610  -25.0400 C.3       9 GLL5        0.0000 
     27 CA         25.1200  -23.8120  -21.5580 C.3       6 GLP5        0.0000 
     28 CA         24.9390  -23.8525  -24.8370 C.3       3 GLC5        0.0000 
     29 CA         24.9760  -26.0440  -24.6340 C.3       6 GLP5        0.0000 
     30 N          28.2240  -18.6075  -25.5805 N.am      2 SEC2        0.0000 
     31 N          28.0080  -20.0630  -25.8700 N.am      8 SEL2        0.0000 
     32 N          28.4400  -17.1520  -25.2910 N.am      5 SEP2        0.0000 
     33 CA         31.1880  -20.9810  -23.6280 C.3       3 GLC5        0.0000 
     34 CA         29.7870  -21.6950  -24.9450 C.3       9 GLL5        0.0000 
     35 CA         32.5890  -20.2670  -22.3110 C.3       6 GLP5        0.0000 
     36 CA         30.4675  -23.3830  -25.5900 C.3       3 GLC5        0.0000 
     37 CA         31.1480  -25.0710  -26.2350 C.3       6 GLP5        0.0000 
     38 O          32.3195  -21.5675  -25.5775 O.2       1 ALC1        0.0000 
     39 O          30.9940  -20.9340  -25.3420 O.2       7 ALL1        0.0000 
     40 O          33.6450  -22.2010  -25.8130 O.2       4 ALP1        0.0000 
     41 N          31.0175  -23.4225  -23.3840 N.am      2 SEC2        0.0000 
     42 N          29.8960  -22.8700  -24.2940 N.am      8 SEL2        0.0000 
     43 N          32.1390  -23.9750  -22.4740 N.am      5 SEP2        0.0000 
     44 CA         29.7195  -23.7330  -22.2600 C.3       3 GLC5        0.0000 
     45 CA         28.8150  -23.5620  -23.9340 C.3       9 GLL5        0.0000 
     46 CA         30.6240  -23.9040  -20.5860 C.3       6 GLP5        0.0000 
     47 CA         28.5490  -22.0065  -22.7870 C.3       3 GLC5        0.0000 
     48 CA         28.2830  -20.4510  -21.6400 C.3       6 GLP5        0.0000 
     49 CA         26.9675  -23.6870  -22.7460 C.3       3 GLC5        0.0000 
     50 CA         27.3915  -24.7810  -24.8620 C.3       3 GLC5        0.0000 
     51 CA         25.9680  -26.0000  -25.7900 C.3       6 GLP5        0.0000 
     52 CA         29.9815  -24.3165  -25.0845 C.3       3 GLC5        0.0000 
     53 N          26.4670  -24.1030  -23.8980 N.am      2 SEC2        0.0000 
     54 N          27.5670  -23.1130  -24.2010 N.am      8 SEL2        0.0000 
     55 N          25.3670  -25.0930  -23.5950 N.am      5 SEP2        0.0000 
     56 CA         26.2515  -22.8710  -23.2075 C.3       3 GLC5        0.0000 
     57 CA         27.3830  -21.9300  -24.8570 C.3       9 GLL5        0.0000 
     58 CA         26.6755  -23.9650  -25.3235 C.3       3 GLC5        0.0000 
     59 CA         23.3623  -19.4726  -26.3051 C.3       3 GLC5        0.0000 
     60 CA         23.3640  -17.8850  -27.5290 C.3       6 GLP5        0.0000 
     61 CA         29.5845  -19.5733  -24.3332 C.3       3 GLC5        0.0000 
     62 CA         28.4790  -21.1940  -25.2420 C.3       9 GLL5        0.0000 
     63 CA         30.0360  -17.7020  -23.5730 C.3       6 GLP5        0.0000 
     64 CA         28.2705  -21.0691  -23.3076 C.3       3 GLC5        0.0000 
@<TRIPOS>BOND
@<TRIPOS>SUBSTRUCTURE
     1 ALC1        1 GROUP        1 X    ALC  0     ROOT ALC X 1
     2 SEC2        9 GROUP        1 X    SEC  0     **** SEC X 2
     3 GLC5        4 GROUP        1 X    GLC  0     **** GLC X 6
     4 ALP1        3 GROUP        1 Y    ALP  0     ROOT ALP Y 8
     5 SEP2       11 GROUP        1 Y    SEP  0     **** SEP Y 9
     6 GLP5        6 GROUP        1 Y    GLP  0     **** GLP Y 13
     7 ALL1        2 GROUP        1 Z    ALL  0     ROOT ALL Z 15
     8 SEL2       10 GROUP        1 Z    SEL  0     **** SEL Z 16
     9 GLL5        5 GROUP        1 Z    GLL  0     **** GLL Z 20
@<TRIPOS>SET

