#    Name: 3uq6_ADN_2_ligand
#    Modification time : Mon Mar 24 23:17:19 2014

@<TRIPOS>MOLECULE
3uq6_ADN_2_ligand
   32    34     1     0     0
SMALL
NO_CHARGES


@<TRIPOS>ATOM
      1 O5'        22.3130  -23.0120  -28.2940 O.3       1 ADN401      0.0000 
      2 C5'        22.3140  -21.8330  -27.4960 C.3       1 ADN401      0.0000 
      3 C4'        22.9230  -22.0840  -26.1390 C.3       1 ADN401      0.0000 
      4 O4'        24.3620  -22.0960  -26.2540 O.3       1 ADN401      0.0000 
      5 C3'        22.5890  -21.0450  -25.0580 C.3       1 ADN401      0.0000 
      6 O3'        21.8910  -21.6780  -23.9870 O.3       1 ADN401      0.0000 
      7 C2'        23.9650  -20.5560  -24.5640 C.3       1 ADN401      0.0000 
      8 O2'        24.0560  -20.3610  -23.1680 O.3       1 ADN401      0.0000 
      9 C1'        24.9020  -21.6610  -25.0400 C.3       1 ADN401      0.0000 
     10 N9         26.2800  -21.2200  -25.2690 N.pl3     1 ADN401      0.0000 
     11 C8         26.6710  -20.0930  -25.8760 C.2       1 ADN401      0.0000 
     12 N7         28.0080  -20.0630  -25.8700 N.2       1 ADN401      0.0000 
     13 C5         28.4790  -21.1940  -25.2420 C.ar      1 ADN401      0.0000 
     14 C6         29.7870  -21.6950  -24.9450 C.ar      1 ADN401      0.0000 
     15 N6         30.9940  -20.9340  -25.3420 N.pl3     1 ADN401      0.0000 
     16 N1         29.8960  -22.8700  -24.2940 N.ar      1 ADN401      0.0000 
     17 C2         28.8150  -23.5620  -23.9340 C.ar      1 ADN401      0.0000 
     18 N3         27.5670  -23.1130  -24.2010 N.ar      1 ADN401      0.0000 
     19 C4         27.3830  -21.9300  -24.8570 C.ar      1 ADN401      0.0000 
     20 H          21.2881  -21.4489  -27.3436 H         1 ADN401      0.0000 
     21 H          22.8848  -21.0191  -27.9807 H         1 ADN401      0.0000 
     22 H          22.5941  -23.0571  -25.7717 H         1 ADN401      0.0000 
     23 H          22.0814  -20.2453  -25.4969 H         1 ADN401      0.0000 
     24 H          24.2093  -19.6756  -25.1423 H         1 ADN401      0.0000 
     25 H          24.8720  -22.4546  -24.3101 H         1 ADN401      0.0000 
     26 H          26.0882  -19.4188  -26.2527 H         1 ADN401      0.0000 
     27 H          31.8206  -21.4730  -25.5039 H         1 ADN401      0.0000 
     28 H          30.8846  -19.9428  -25.4160 H         1 ADN401      0.0000 
     29 H          28.9259  -24.4811  -23.4294 H         1 ADN401      0.0000 
     30 H          22.6578  -23.7322  -27.6919 H         1 ADN401      0.0000 
     31 H          21.5491  -20.9274  -23.4216 H         1 ADN401      0.0000 
     32 H          23.1486  -20.0446  -22.8914 H         1 ADN401      0.0000 
@<TRIPOS>BOND
     1    2    1 1    
     2   30    1 1    
     3    3    2 1    
     4   20    2 1    
     5   21    2 1    
     6    4    3 1    
     7    5    3 1    
     8   22    3 1    
     9    9    4 1    
    10    6    5 1    
    11    7    5 1    
    12   23    5 1    
    13   31    6 1    
    14    8    7 1    
    15    9    7 1    
    16   24    7 1    
    17   32    8 1    
    18   10    9 1    
    19   25    9 1    
    20   11   10 1    
    21   19   10 1    
    22   12   11 2    
    23   26   11 1    
    24   13   12 1    
    25   14   13 ar   
    26   19   13 ar   
    27   15   14 1    
    28   16   14 ar   
    29   27   15 1    
    30   28   15 1    
    31   17   16 ar   
    32   18   17 ar   
    33   29   17 1    
    34   19   18 ar   
@<TRIPOS>SUBSTRUCTURE
     1 ADN401      1 GROUP   
@<TRIPOS>SET

