#    Name: 3oof_OOF_2_INTS_M
#    Modification time : Tue Mar 25 04:54:23 2014

@<TRIPOS>MOLECULE
3oof_OOF_2_INTS_M
  111     0     9     0     0
SMALL
NO_CHARGES


@<TRIPOS>ATOM
      1 N          21.7875   15.6250   96.1745 N.am      2 SEC2        0.0000 
      2 N          22.2550   16.0130   97.3270 N.am      8 SEL2        0.0000 
      3 N          21.3200   15.2370   95.0220 N.am      5 SEP2        0.0000 
      4 CA         20.5380   20.1145   99.7530 C.3       3 GLC5        0.0000 
      5 CA         22.2180   18.8650   99.6440 C.3       9 GLL5        0.0000 
      6 CA         18.8580   21.3640   99.8620 C.3       6 GLP5        0.0000 
      7 O          23.3525   19.6380   96.6065 O.2       1 ALC1        0.0000 
      8 O          23.4700   20.3490   98.0290 O.2       7 ALL1        0.0000 
      9 O          23.2350   18.9270   95.1840 O.2       4 ALP1        0.0000 
     10 CA         24.9310   24.8785   95.7330 C.3       3 GLC5        0.0000 
     11 CA         26.1790   23.2570   96.5800 C.3       9 GLL5        0.0000 
     12 CA         23.6830   26.5000   94.8860 C.3       6 GLP5        0.0000 
     13 N          26.9075   25.7475   97.6420 N.am      2 SEC2        0.0000 
     14 N          27.6050   25.2140   96.8330 N.am      8 SEL2        0.0000 
     15 N          26.2100   26.2810   98.4510 N.am      5 SEP2        0.0000 
     16 CA         24.2390   18.1500  102.0190 C.3       3 GLC5        0.0000 
     17 CA         22.3340   18.4130  101.1320 C.3       9 GLL5        0.0000 
     18 CA         26.1440   17.8870  102.9060 C.3       6 GLP5        0.0000 
     19 CA         25.0960   23.9510   94.2730 C.3       3 GLC5        0.0000 
     20 CA         25.3910   22.5310   95.6690 C.3       9 GLL5        0.0000 
     21 CA         24.8010   25.3710   92.8770 C.3       6 GLP5        0.0000 
     22 CA         29.0410   16.3340  100.0005 C.3       3 GLC5        0.0000 
     23 CA         27.2510   16.7260   99.5800 C.3       9 GLL5        0.0000 
     24 CA         30.8310   15.9420  100.4210 C.3       6 GLP5        0.0000 
     25 CA         27.5155   15.1185  100.8200 C.3       3 GLC5        0.0000 
     26 CA         27.7800   13.5110  102.0600 C.3       6 GLP5        0.0000 
     27 CA         28.1890   15.9480   97.6965 C.3       3 GLC5        0.0000 
     28 CA         26.8710   14.6120   97.8450 C.3       9 GLL5        0.0000 
     29 CA         29.5070   17.2840   97.5480 C.3       6 GLP5        0.0000 
     30 CA         27.6445   13.8365   96.8800 C.3       3 GLC5        0.0000 
     31 CA         28.4180   13.0610   95.9150 C.3       6 GLP5        0.0000 
     32 CA         27.9745   13.5690   98.9865 C.3       3 GLC5        0.0000 
     33 CA         29.0780   12.5260  100.1280 C.3       6 GLP5        0.0000 
     34 N          28.5575   23.5015   94.0110 N.am      2 SEC2        0.0000 
     35 N          27.4890   24.2760   94.8610 N.am      8 SEL2        0.0000 
     36 N          29.6260   22.7270   93.1610 N.am      5 SEP2        0.0000 
     37 CA         24.0525   19.6110   95.3855 C.3       3 GLC5        0.0000 
     38 CA         24.4790   21.5640   96.0980 C.3       9 GLL5        0.0000 
     39 CA         23.6260   17.6580   94.6730 C.3       6 GLP5        0.0000 
     40 CA         26.5150   20.8075   96.0810 C.3       3 GLC5        0.0000 
     41 CA         28.5510   20.0510   96.0640 C.3       6 GLP5        0.0000 
     42 CA         16.5825   15.7380   98.4970 C.3       3 GLC5        0.0000 
     43 CA         17.9570   17.0340   98.1340 C.3       9 GLL5        0.0000 
     44 CA         15.2080   14.4420   98.8600 C.3       6 GLP5        0.0000 
     45 CA         16.4250   19.8450   99.3025 C.3       3 GLC5        0.0000 
     46 CA         16.0410   18.8220   97.4950 C.3       9 GLL5        0.0000 
     47 CA         16.8090   20.8680  101.1100 C.3       6 GLP5        0.0000 
     48 CA         16.5015   18.5025   95.6845 C.3       3 GLC5        0.0000 
     49 CA         16.9620   18.1830   93.8740 C.3       6 GLP5        0.0000 
     50 CA         15.4730   17.3250   96.5190 C.3       3 GLC5        0.0000 
     51 CA         14.9050   15.8280   95.5430 C.3       6 GLP5        0.0000 
     52 CA         15.0860   20.4920   98.3375 C.3       3 GLC5        0.0000 
     53 CA         14.1310   22.1620   99.1800 C.3       6 GLP5        0.0000 
     54 CA         15.8380   18.2495   99.4580 C.3       3 GLC5        0.0000 
     55 CA         15.6350   17.6770  101.4210 C.3       6 GLP5        0.0000 
     56 CA         16.1515   20.4715   96.2450 C.3       3 GLC5        0.0000 
     57 CA         16.2620   22.1210   94.9950 C.3       6 GLP5        0.0000 
     58 CA         24.0515   18.4630  103.2125 C.3       3 GLC5        0.0000 
     59 CA         21.9590   19.0390  103.5190 C.3       9 GLL5        0.0000 
     60 CA         20.2170   17.9680  105.5350 C.3       3 GLC5        0.0000 
     61 CA         21.2000   17.7600  103.7950 C.3       9 GLL5        0.0000 
     62 CA         19.2340   18.1760  107.2750 C.3       6 GLP5        0.0000 
     63 CA         18.9730   17.6080  103.6775 C.3       3 GLC5        0.0000 
     64 CA         16.7460   17.4560  103.5600 C.3       6 GLP5        0.0000 
     65 CA         24.0022   14.8603   99.2510 C.3       3 GLC5        0.0000 
     66 CA         23.5780   16.0320   97.7850 C.3       9 GLL5        0.0000 
     67 CA         24.3220   13.1210  100.2860 C.3       6 GLP5        0.0000 
     68 CA         24.9265   15.0510   99.7043 C.3       3 GLC5        0.0000 
     69 CA         25.0120   17.4140   99.2700 C.3       9 GLL5        0.0000 
     70 CA         23.8904   16.7689   96.2675 C.3       3 GLC5        0.0000 
     71 CA         24.6270   15.1600   97.5080 C.3       9 GLL5        0.0000 
     72 CA         26.1310   13.9595   96.6255 C.3       3 GLC5        0.0000 
     73 CA         27.0220   12.6160   95.4520 C.3       6 GLP5        0.0000 
     74 CA         19.6345   20.5783   96.7873 C.3       3 GLC5        0.0000 
     75 CA         18.6590   19.0940   97.0390 C.3       9 GLL5        0.0000 
     76 CA         19.9420   22.2580   96.4860 C.3       6 GLP5        0.0000 
     77 CA         23.0023   22.0989   95.7135 C.3       3 GLC5        0.0000 
     78 CA         24.3450   21.3050   97.4840 C.3       9 GLL5        0.0000 
     79 CA         21.1030   22.2150   95.1970 C.3       6 GLP5        0.0000 
     80 CA         24.4274   23.2859   99.1993 C.3       3 GLC5        0.0000 
     81 CA         23.4660   24.2230  100.4580 C.3       6 GLP5        0.0000 
     82 CA         27.2293   21.5037   96.5496 C.3       3 GLC5        0.0000 
     83 CA         26.0300   23.0190   97.9460 C.3       9 GLL5        0.0000 
     84 CA         27.2925   18.3712   99.8226 C.3       3 GLC5        0.0000 
     85 CA         26.0500   16.5480   98.9750 C.3       9 GLL5        0.0000 
     86 CA         28.1940   19.8890  100.2940 C.3       6 GLP5        0.0000 
     87 CA         26.2675   17.3702  101.1286 C.3       3 GLC5        0.0000 
     88 CA         28.0541   16.8227   98.3021 C.3       3 GLC5        0.0000 
     89 CA         25.1887   14.0392   99.0540 C.3       3 GLC5        0.0000 
     90 CA         18.6723   19.9741   98.5874 C.3       3 GLC5        0.0000 
     91 CA         19.9950   18.7030   97.1380 C.3       9 GLL5        0.0000 
     92 CA         16.3533   16.7400   96.6893 C.3       3 GLC5        0.0000 
     93 CA         17.6460   18.2700   97.5370 C.3       9 GLL5        0.0000 
     94 CA         26.3010   21.9795   94.4681 C.3       3 GLC5        0.0000 
     95 CA         27.4700   21.7300   92.8250 C.3       6 GLP5        0.0000 
     96 CA         27.3351   22.4020   98.8397 C.3       3 GLC5        0.0000 
     97 CA         29.0430   22.2090   99.8550 C.3       6 GLP5        0.0000 
     98 CA         18.8299   15.2707   97.4156 C.3       3 GLC5        0.0000 
     99 CA         20.2940   17.4780   97.7310 C.3       9 GLL5        0.0000 
    100 CA         18.7850   13.4950   96.7720 C.3       6 GLP5        0.0000 
    101 CA         22.7325   20.6918  104.0250 C.3       3 GLC5        0.0000 
    102 CA         21.8030   19.4880  102.0830 C.3       9 GLL5        0.0000 
    103 CA         23.5840   22.1200  105.2490 C.3       6 GLP5        0.0000 
    104 CA         20.3025   20.5398  102.5775 C.3       3 GLC5        0.0000 
    105 CA         18.7240   21.8160  102.3540 C.3       6 GLP5        0.0000 
    106 CA         22.5395   15.1045  101.7810 C.3       3 GLC5        0.0000 
    107 CA         21.5750   17.1080  101.4000 C.3       9 GLL5        0.0000 
    108 CA         23.4530   13.3170  101.4310 C.3       6 GLP5        0.0000 
    109 CA         20.2713   15.9865  104.0718 C.3       3 GLC5        0.0000 
    110 CA         21.6770   16.6760  102.8620 C.3       9 GLL5        0.0000 
    111 CA         19.1040   14.7550  104.8150 C.3       6 GLP5        0.0000 
@<TRIPOS>BOND
@<TRIPOS>SUBSTRUCTURE
     1 ALC1        7 GROUP        1 X    ALC  0     ROOT ALC X 1
     2 SEC2        1 GROUP        1 X    SEC  0     **** SEC X 2
     3 GLC5        4 GROUP        1 X    GLC  0     **** GLC X 6
     4 ALP1        9 GROUP        1 Y    ALP  0     ROOT ALP Y 8
     5 SEP2        3 GROUP        1 Y    SEP  0     **** SEP Y 9
     6 GLP5        6 GROUP        1 Y    GLP  0     **** GLP Y 13
     7 ALL1        8 GROUP        1 Z    ALL  0     ROOT ALL Z 15
     8 SEL2        2 GROUP        1 Z    SEL  0     **** SEL Z 16
     9 GLL5        5 GROUP        1 Z    GLL  0     **** GLL Z 20
@<TRIPOS>SET

