#    Name: 3oof_OOF_2_ligand
#    Modification time : Tue Mar 25 04:54:23 2014

@<TRIPOS>MOLECULE
3oof_OOF_2_ligand
   60    64     1     0     0
SMALL
NO_CHARGES


@<TRIPOS>ATOM
      1 N1         22.5490   17.7940   98.7510 N.pl3     1 OOF2        0.0000 
      2 C2         21.6850   17.0860   97.8810 C.2       1 OOF2        0.0000 
      3 N3         22.2550   16.0130   97.3270 N.2       1 OOF2        0.0000 
      4 C4         23.7870   17.1670   98.6470 C.ar      1 OOF2        0.0000 
      5 C5         23.5780   16.0320   97.7850 C.ar      1 OOF2        0.0000 
      6 C6         23.1480   20.1070   99.3570 C.2       1 OOF2        0.0000 
      7 C7         22.2180   18.8650   99.6440 C.3       1 OOF2        0.0000 
      8 C8         25.0120   17.4140   99.2700 C.ar      1 OOF2        0.0000 
      9 C9         24.6270   15.1600   97.5080 C.ar      1 OOF2        0.0000 
     10 N10        23.4700   20.3490   98.0290 N.am      1 OOF2        0.0000 
     11 C11        26.0500   16.5480   98.9750 C.ar      1 OOF2        0.0000 
     12 C12        20.2940   17.4780   97.7310 C.ar      1 OOF2        0.0000 
     13 C13        25.8530   15.4460   98.0900 C.ar      1 OOF2        0.0000 
     14 C14        27.1160   24.3040   96.1640 C.2       1 OOF2        0.0000 
     15 O15        23.5830   20.8080  100.2740 O.2       1 OOF2        0.0000 
     16 C16        26.1790   23.2570   96.5800 C.ar      1 OOF2        0.0000 
     17 O17        27.6050   25.2140   96.8330 O.co2     1 OOF2        0.0000 
     18 C18        22.3340   18.4130  101.1320 C.3       1 OOF2        0.0000 
     19 C19        19.2910   16.6400   98.2380 C.ar      1 OOF2        0.0000 
     20 C20        19.9950   18.7030   97.1380 C.ar      1 OOF2        0.0000 
     21 C21        24.3450   21.3050   97.4840 C.ar      1 OOF2        0.0000 
     22 C22        25.3910   22.5310   95.6690 C.ar      1 OOF2        0.0000 
     23 C23        26.0300   23.0190   97.9460 C.ar      1 OOF2        0.0000 
     24 F24        27.2510   16.7260   99.5800 F         1 OOF2        0.0000 
     25 F25        26.8710   14.6120   97.8450 F         1 OOF2        0.0000 
     26 O26        27.4890   24.2760   94.8610 O.co2     1 OOF2        0.0000 
     27 C27        17.6460   18.2700   97.5370 C.ar      1 OOF2        0.0000 
     28 C28        24.4790   21.5640   96.0980 C.ar      1 OOF2        0.0000 
     29 C29        25.1500   22.0520   98.3860 C.ar      1 OOF2        0.0000 
     30 C30        17.9570   17.0340   98.1340 C.ar      1 OOF2        0.0000 
     31 C31        18.6590   19.0940   97.0390 C.ar      1 OOF2        0.0000 
     32 CL32       16.0410   18.8220   97.4950 Cl        1 OOF2        0.0000 
     33 C33        21.8030   19.4880  102.0830 C.3       1 OOF2        0.0000 
     34 C34        21.5750   17.1080  101.4000 C.3       1 OOF2        0.0000 
     35 C35        21.6770   16.6760  102.8620 C.3       1 OOF2        0.0000 
     36 C36        21.9590   19.0390  103.5190 C.3       1 OOF2        0.0000 
     37 C37        21.2000   17.7600  103.7950 C.3       1 OOF2        0.0000 
     38 H          21.1946   19.2025   99.4857 H         1 OOF2        0.0000 
     39 H          25.1284   18.1879   99.9035 H         1 OOF2        0.0000 
     40 H          24.4991   14.3581   96.9115 H         1 OOF2        0.0000 
     41 H          22.9750   19.7067   97.2955 H         1 OOF2        0.0000 
     42 H          23.3820   18.2499  101.3574 H         1 OOF2        0.0000 
     43 H          19.5372   15.7527   98.6775 H         1 OOF2        0.0000 
     44 H          20.7376   19.3031   96.7828 H         1 OOF2        0.0000 
     45 H          25.4925   22.7212   94.6556 H         1 OOF2        0.0000 
     46 H          26.5799   23.5687   98.6209 H         1 OOF2        0.0000 
     47 H          23.9129   21.0464   95.4290 H         1 OOF2        0.0000 
     48 H          25.0604   21.8512   99.4006 H         1 OOF2        0.0000 
     49 H          17.2090   16.4354   98.4859 H         1 OOF2        0.0000 
     50 H          18.4183   19.9909   96.5985 H         1 OOF2        0.0000 
     51 H          20.7522   19.6655  101.8659 H         1 OOF2        0.0000 
     52 H          22.3598   20.4086  101.9236 H         1 OOF2        0.0000 
     53 H          21.9849   16.3202  100.7624 H         1 OOF2        0.0000 
     54 H          20.5227   17.2479  101.1386 H         1 OOF2        0.0000 
     55 H          22.7192   16.4296  103.0861 H         1 OOF2        0.0000 
     56 H          21.0749   15.7740  103.0071 H         1 OOF2        0.0000 
     57 H          21.5932   19.8281  104.1867 H         1 OOF2        0.0000 
     58 H          23.0224   18.8827  103.7358 H         1 OOF2        0.0000 
     59 H          21.3679   17.4550  104.8255 H         1 OOF2        0.0000 
     60 H          20.1365   17.9306  103.6433 H         1 OOF2        0.0000 
@<TRIPOS>BOND
     1    2    1 1    
     2    4    1 1    
     3    7    1 1    
     4    3    2 2    
     5   12    2 1    
     6    5    3 1    
     7    5    4 ar   
     8    8    4 ar   
     9    9    5 ar   
    10    7    6 1    
    11   10    6 am   
    12   15    6 2    
    13   18    7 1    
    14   38    7 1    
    15   11    8 ar   
    16   39    8 1    
    17   13    9 ar   
    18   40    9 1    
    19   21   10 1    
    20   41   10 1    
    21   13   11 ar   
    22   24   11 1    
    23   19   12 ar   
    24   20   12 ar   
    25   25   13 1    
    26   16   14 1    
    27   17   14 ar   
    28   26   14 ar   
    29   22   16 ar   
    30   23   16 ar   
    31   33   18 1    
    32   34   18 1    
    33   42   18 1    
    34   30   19 ar   
    35   43   19 1    
    36   31   20 ar   
    37   44   20 1    
    38   28   21 ar   
    39   29   21 ar   
    40   28   22 ar   
    41   45   22 1    
    42   29   23 ar   
    43   46   23 1    
    44   30   27 ar   
    45   31   27 ar   
    46   32   27 1    
    47   47   28 1    
    48   48   29 1    
    49   49   30 1    
    50   50   31 1    
    51   36   33 1    
    52   51   33 1    
    53   52   33 1    
    54   35   34 1    
    55   53   34 1    
    56   54   34 1    
    57   37   35 1    
    58   55   35 1    
    59   56   35 1    
    60   37   36 1    
    61   57   36 1    
    62   58   36 1    
    63   59   37 1    
    64   60   37 1    
@<TRIPOS>SUBSTRUCTURE
     1 OOF2        1 GROUP   
@<TRIPOS>SET

