#    Name: 2vdv_SAM_1_INTS_M
#    Modification time : Tue Mar 25 01:32:09 2014

@<TRIPOS>MOLECULE
2vdv_SAM_1_INTS_M
   73     0     9     0     0
SMALL
NO_CHARGES


@<TRIPOS>ATOM
      1 O           6.6980  -54.7865  -35.4065 O.2       1 ALC1        0.0000 
      2 O           7.7130  -55.7820  -35.2420 O.2       7 ALL1        0.0000 
      3 O           5.6830  -53.7910  -35.5710 O.2       4 ALP1        0.0000 
      4 O           8.8870  -55.3165  -35.7360 O.2       1 ALC1        0.0000 
      5 O          10.0610  -54.8510  -36.2300 O.2       4 ALP1        0.0000 
      6 O           7.9835  -55.8330  -33.9030 O.2       1 ALC1        0.0000 
      7 O           8.2540  -55.8840  -32.5640 O.2       4 ALP1        0.0000 
      8 CA          8.4720  -58.5875  -34.5980 C.3       3 GLC5        0.0000 
      9 CA          7.2980  -57.0980  -35.7310 C.3       9 GLL5        0.0000 
     10 CA          9.6460  -60.0770  -33.4650 C.3       6 GLP5        0.0000 
     11 N          10.1550  -58.8025  -35.0240 N.am      2 SEC2        0.0000 
     12 N           9.6260  -57.7100  -35.6160 N.am      8 SEL2        0.0000 
     13 N          10.6840  -59.8950  -34.4320 N.am      5 SEP2        0.0000 
     14 N           9.4795  -59.5870  -35.2470 N.am      2 SEC2        0.0000 
     15 N           8.2750  -59.2790  -36.0620 N.am      8 SEL2        0.0000 
     16 N           8.8640  -60.7170  -36.5685 N.am      2 SEC2        0.0000 
     17 N           9.4530  -62.1550  -37.0750 N.am      5 SEP2        0.0000 
     18 CA          9.6140  -56.4680  -38.2845 C.3       3 GLC5        0.0000 
     19 CA          7.5270  -56.4370  -38.2170 C.3       9 GLL5        0.0000 
     20 CA         11.7010  -56.4990  -38.3520 C.3       6 GLP5        0.0000 
     21 CA          7.5315  -58.1270  -39.3455 C.3       3 GLC5        0.0000 
     22 CA          6.5520  -56.1390  -39.7200 C.3       9 GLL5        0.0000 
     23 CA          8.5110  -60.1150  -38.9710 C.3       6 GLP5        0.0000 
     24 CA          8.2305  -54.2915  -42.2220 C.3       3 GLC5        0.0000 
     25 CA          7.7890  -56.0220  -41.0370 C.3       9 GLL5        0.0000 
     26 CA          8.6720  -52.5610  -43.4070 C.3       6 GLP5        0.0000 
     27 CA          7.9895  -53.2560  -39.6420 C.3       3 GLC5        0.0000 
     28 CA          6.0920  -54.4070  -39.4510 C.3       9 GLL5        0.0000 
     29 CA          9.8870  -52.1050  -39.8330 C.3       6 GLP5        0.0000 
     30 CA          4.6120  -53.0310  -37.1855 C.3       3 GLC5        0.0000 
     31 CA          4.7310  -54.3320  -38.7680 C.3       9 GLL5        0.0000 
     32 CA          4.4930  -51.7300  -35.6030 C.3       6 GLP5        0.0000 
     33 O           2.4015  -55.1530  -37.8910 O.2       1 ALC1        0.0000 
     34 O           2.9210  -55.8680  -38.8860 O.2       7 ALL1        0.0000 
     35 O           1.8820  -54.4380  -36.8960 O.2       4 ALP1        0.0000 
     36 O           1.6315  -54.3090  -38.3950 O.2       1 ALC1        0.0000 
     37 O           1.3810  -54.1800  -39.8940 O.2       7 ALL1        0.0000 
     38 O           0.6115  -54.1645  -38.7905 O.2       1 ALC1        0.0000 
     39 O          -0.1580  -54.1490  -37.6870 O.2       4 ALP1        0.0000 
     40 CA          3.7810  -52.2255  -37.2795 C.3       3 GLC5        0.0000 
     41 CA          3.0690  -52.7210  -38.9560 C.3       9 GLL5        0.0000 
     42 CA          0.6200  -48.9175  -39.1925 C.3       3 GLC5        0.0000 
     43 CA          2.3510  -47.9020  -39.1140 C.3       9 GLL5        0.0000 
     44 CA         -1.1110  -49.9330  -39.2710 C.3       6 GLP5        0.0000 
     45 CA          0.7675  -46.7960  -38.2330 C.3       3 GLC5        0.0000 
     46 CA         -0.8160  -45.6900  -37.3520 C.3       6 GLP5        0.0000 
     47 O           1.6405  -45.7755  -39.6640 O.2       1 ALC1        0.0000 
     48 O           2.4750  -46.8330  -39.8950 O.2       7 ALL1        0.0000 
     49 O           0.8060  -44.7180  -39.4330 O.2       4 ALP1        0.0000 
     50 N           1.6025  -46.4945  -37.1110 N.am      2 SEC2        0.0000 
     51 N           1.8480  -47.7770  -37.8290 N.am      8 SEL2        0.0000 
     52 N           1.3570  -45.2120  -36.3930 N.am      5 SEP2        0.0000 
     53 CA          3.1075  -50.3110  -36.3130 C.3       3 GLC5        0.0000 
     54 CA          1.7220  -48.8920  -37.0230 C.3       9 GLL5        0.0000 
     55 CA          0.7760  -50.5225  -36.0340 C.3       3 GLC5        0.0000 
     56 CA         -0.1700  -52.1530  -35.0450 C.3       6 GLP5        0.0000 
     57 CA          0.3055  -49.4125  -38.1470 C.3       3 GLC5        0.0000 
     58 CA          0.4530  -47.2910  -37.1875 C.3       3 GLC5        0.0000 
     59 CA          2.6175  -47.0975  -36.1445 C.3       3 GLC5        0.0000 
     60 CA          3.5130  -45.3030  -35.2660 C.3       6 GLP5        0.0000 
     61 N           0.5975  -50.7360  -37.3645 N.am      2 SEC2        0.0000 
     62 N           2.0980  -50.1280  -37.5130 N.am      8 SEL2        0.0000 
     63 N          -0.9030  -51.3440  -37.2160 N.am      5 SEP2        0.0000 
     64 CA          3.5445  -50.9930  -37.1860 C.3       3 GLC5        0.0000 
     65 CA          2.5960  -50.2560  -38.7690 C.3       9 GLL5        0.0000 
     66 CA          5.0343  -57.1635  -35.9650 C.3       3 GLC5        0.0000 
     67 CA          6.6350  -56.9660  -37.0970 C.3       9 GLL5        0.0000 
     68 CA          3.1020  -57.2950  -35.5160 C.3       6 GLP5        0.0000 
     69 CA          7.7960  -58.4082  -38.3140 C.3       3 GLC5        0.0000 
     70 CA          1.1862  -52.0765  -39.8817 C.3       3 GLC5        0.0000 
     71 CA          2.7300  -53.7750  -40.0010 C.3       9 GLL5        0.0000 
     72 CA         -0.5270  -50.9050  -40.2850 C.3       6 GLP5        0.0000 
     73 CA          1.0682  -50.3038  -39.7327 C.3       3 GLC5        0.0000 
@<TRIPOS>BOND
@<TRIPOS>SUBSTRUCTURE
     1 ALC1        1 GROUP        1 X    ALC  0     ROOT ALC X 1
     2 SEC2       11 GROUP        1 X    SEC  0     **** SEC X 2
     3 GLC5        8 GROUP        1 X    GLC  0     **** GLC X 6
     4 ALP1        3 GROUP        1 Y    ALP  0     ROOT ALP Y 8
     5 SEP2       13 GROUP        1 Y    SEP  0     **** SEP Y 9
     6 GLP5       10 GROUP        1 Y    GLP  0     **** GLP Y 13
     7 ALL1        2 GROUP        1 Z    ALL  0     ROOT ALL Z 15
     8 SEL2       12 GROUP        1 Z    SEL  0     **** SEL Z 16
     9 GLL5        9 GROUP        1 Z    GLL  0     **** GLL Z 20
@<TRIPOS>SET

