#    Name: 2vdv_SAM_1_ligand
#    Modification time : Tue Mar 25 01:32:09 2014

@<TRIPOS>MOLECULE
2vdv_SAM_1_ligand
   50    52     1     0     0
SMALL
NO_CHARGES


@<TRIPOS>ATOM
      1 N           7.7130  -55.7820  -35.2420 N.4       1 SAM1287     0.0000 
      2 CA          7.2980  -57.0980  -35.7310 C.3       1 SAM1287     0.0000 
      3 C           8.4650  -58.0830  -35.8070 C.2       1 SAM1287     0.0000 
      4 O           9.6260  -57.7100  -35.6160 O.co2     1 SAM1287     0.0000 
      5 OXT         8.2750  -59.2790  -36.0620 O.co2     1 SAM1287     0.0000 
      6 CB          6.6350  -56.9660  -37.0970 C.3       1 SAM1287     0.0000 
      7 CG          7.5270  -56.4370  -38.2170 C.3       1 SAM1287     0.0000 
      8 SD          6.5520  -56.1390  -39.7200 S.3       1 SAM1287     0.0000 
      9 CE          7.7890  -56.0220  -41.0370 C.3       1 SAM1287     0.0000 
     10 C5'         6.0920  -54.4070  -39.4510 C.3       1 SAM1287     0.0000 
     11 C4'         4.7310  -54.3320  -38.7680 C.3       1 SAM1287     0.0000 
     12 O4'         4.3800  -52.9900  -38.5120 O.3       1 SAM1287     0.0000 
     13 C3'         3.6430  -54.9270  -39.6440 C.3       1 SAM1287     0.0000 
     14 O3'         2.9210  -55.8680  -38.8860 O.3       1 SAM1287     0.0000 
     15 C2'         2.7300  -53.7750  -40.0010 C.3       1 SAM1287     0.0000 
     16 O2'         1.3810  -54.1800  -39.8940 O.3       1 SAM1287     0.0000 
     17 C1'         3.0690  -52.7210  -38.9560 C.3       1 SAM1287     0.0000 
     18 N9          3.0370  -51.3440  -39.4790 N.pl3     1 SAM1287     0.0000 
     19 C8          3.4400  -50.9060  -40.7150 C.2       1 SAM1287     0.0000 
     20 N7          3.2460  -49.5640  -40.7710 N.2       1 SAM1287     0.0000 
     21 C5          2.7310  -49.1490  -39.5920 C.ar      1 SAM1287     0.0000 
     22 C6          2.3510  -47.9020  -39.1140 C.ar      1 SAM1287     0.0000 
     23 N6          2.4750  -46.8330  -39.8950 N.pl3     1 SAM1287     0.0000 
     24 N1          1.8480  -47.7770  -37.8290 N.ar      1 SAM1287     0.0000 
     25 C2          1.7220  -48.8920  -37.0230 C.ar      1 SAM1287     0.0000 
     26 N3          2.0980  -50.1280  -37.5130 N.ar      1 SAM1287     0.0000 
     27 C4          2.5960  -50.2560  -38.7690 C.ar      1 SAM1287     0.0000 
     28 H           6.5511  -57.5235  -35.0499 H         1 SAM1287     0.0000 
     29 H           5.7509  -56.3006  -37.0022 H         1 SAM1287     0.0000 
     30 H           6.2367  -57.9580  -37.3982 H         1 SAM1287     0.0000 
     31 H           8.2537  -57.1370  -38.5526 H         1 SAM1287     0.0000 
     32 H           7.9389  -55.4768  -38.0192 H         1 SAM1287     0.0000 
     33 H           6.0985  -54.0133  -40.4364 H         1 SAM1287     0.0000 
     34 H           6.8915  -54.0487  -38.8522 H         1 SAM1287     0.0000 
     35 H           4.7733  -54.9059  -37.8537 H         1 SAM1287     0.0000 
     36 H           4.0746  -55.3174  -40.5158 H         1 SAM1287     0.0000 
     37 H           3.0026  -53.4091  -40.9512 H         1 SAM1287     0.0000 
     38 H           2.3698  -52.8219  -38.1387 H         1 SAM1287     0.0000 
     39 H           3.7956  -51.4586  -41.4120 H         1 SAM1287     0.0000 
     40 H           2.8573  -46.9947  -40.8048 H         1 SAM1287     0.0000 
     41 H           2.1748  -45.9638  -39.5021 H         1 SAM1287     0.0000 
     42 H           1.3526  -48.8031  -36.0691 H         1 SAM1287     0.0000 
     43 H           8.1068  -55.8340  -34.3243 H         1 SAM1287     0.0000 
     44 H           8.4035  -55.3666  -35.8341 H         1 SAM1287     0.0000 
     45 H           6.9445  -55.1438  -35.1954 H         1 SAM1287     0.0000 
     46 H           8.4367  -55.2779  -40.8732 H         1 SAM1287     0.0000 
     47 H           8.3236  -56.8630  -41.1201 H         1 SAM1287     0.0000 
     48 H           7.3679  -55.8531  -41.9281 H         1 SAM1287     0.0000 
     49 H           2.4974  -55.3381  -38.1513 H         1 SAM1287     0.0000 
     50 H           1.1459  -54.0447  -38.9315 H         1 SAM1287     0.0000 
@<TRIPOS>BOND
     1    2    1 1    
     2   43    1 1    
     3   44    1 1    
     4   45    1 1    
     5    3    2 1    
     6    6    2 1    
     7   28    2 1    
     8    4    3 ar   
     9    5    3 ar   
    10    7    6 1    
    11   29    6 1    
    12   30    6 1    
    13    8    7 1    
    14   31    7 1    
    15   32    7 1    
    16    9    8 1    
    17   10    8 1    
    18   46    9 1    
    19   47    9 1    
    20   48    9 1    
    21   11   10 1    
    22   33   10 1    
    23   34   10 1    
    24   12   11 1    
    25   13   11 1    
    26   35   11 1    
    27   17   12 1    
    28   14   13 1    
    29   15   13 1    
    30   36   13 1    
    31   49   14 1    
    32   16   15 1    
    33   17   15 1    
    34   37   15 1    
    35   50   16 1    
    36   18   17 1    
    37   38   17 1    
    38   19   18 1    
    39   27   18 1    
    40   20   19 2    
    41   39   19 1    
    42   21   20 1    
    43   22   21 ar   
    44   27   21 ar   
    45   23   22 1    
    46   24   22 ar   
    47   40   23 1    
    48   41   23 1    
    49   25   24 ar   
    50   26   25 ar   
    51   42   25 1    
    52   27   26 ar   
@<TRIPOS>SUBSTRUCTURE
     1 SAM1287     1 GROUP   
@<TRIPOS>SET

