#    Name: 1ptj_SND_1_INTS_M
#    Modification time : Mon Mar 24 22:15:41 2014

@<TRIPOS>MOLECULE
1ptj_SND_1_INTS_M
   80     0     9     0     0
SMALL
NO_CHARGES


@<TRIPOS>ATOM
      1 CA         -9.3095    5.8220   28.7135 C.3       3 GLC5        0.0000 
      2 CA        -10.0130    5.1120   26.8380 C.3       9 GLL5        0.0000 
      3 CA         -8.6060    6.5320   30.5890 C.3       6 GLP5        0.0000 
      4 CA        -13.0475    4.3545   26.0335 C.3       3 GLC5        0.0000 
      5 CA        -11.2870    5.4960   26.1230 C.3       9 GLL5        0.0000 
      6 CA        -14.8080    3.2130   25.9440 C.3       6 GLP5        0.0000 
      7 N         -11.5365    6.4010   28.6130 N.am      2 SEC2        0.0000 
      8 N         -12.0700    6.2890   27.0510 N.am      8 SEL2        0.0000 
      9 N         -11.0030    6.5130   30.1750 N.am      5 SEP2        0.0000 
     10 N         -11.2690    7.1355   22.5615 N.am      2 SEC2        0.0000 
     11 N         -11.5600    5.8990   23.6450 N.am      8 SEL2        0.0000 
     12 N         -10.9780    8.3720   21.4780 N.am      5 SEP2        0.0000 
     13 N         -11.2345    6.0885   22.0810 N.am      2 SEC2        0.0000 
     14 N         -10.9090    6.2780   20.5170 N.am      5 SEP2        0.0000 
     15 O         -12.7940    5.7320   23.4490 O.2       1 ALC1        0.0000 
     16 O         -11.5600    5.8990   23.6450 O.2       7 ALL1        0.0000 
     17 O         -14.0280    5.5650   23.2530 O.2       4 ALP1        0.0000 
     18 N         -11.7225    8.4135   22.8685 N.am      2 SEC2        0.0000 
     19 N         -12.4670    8.4550   24.2590 N.am      8 SEL2        0.0000 
     20 O         -13.6075    8.0410   23.7925 O.2       1 ALC1        0.0000 
     21 O         -12.4670    8.4550   24.2590 O.2       7 ALL1        0.0000 
     22 O         -14.7480    7.6270   23.3260 O.2       4 ALP1        0.0000 
     23 O         -13.2475    7.0100   23.7560 O.2       1 ALC1        0.0000 
     24 CA        -13.9000    5.0990   26.0830 C.3       3 GLC5        0.0000 
     25 CA        -12.9920    6.9850   26.2220 C.3       9 GLL5        0.0000 
     26 CA        -12.9060    5.9705   28.0840 C.3       3 GLC5        0.0000 
     27 CA        -12.8200    4.9560   29.9460 C.3       6 GLP5        0.0000 
     28 CA        -14.8460    8.6445   30.2890 C.3       3 GLC5        0.0000 
     29 CA        -15.4640    8.8190   28.2420 C.3       9 GLL5        0.0000 
     30 CA        -14.2280    8.4700   32.3360 C.3       6 GLP5        0.0000 
     31 CA        -17.3505    9.9060   27.1485 C.3       3 GLC5        0.0000 
     32 CA        -16.8600    9.0100   28.5320 C.3       9 GLL5        0.0000 
     33 CA        -17.8410   10.8020   25.7650 C.3       6 GLP5        0.0000 
     34 CA        -17.7965    7.8990   29.9280 C.3       3 GLC5        0.0000 
     35 CA        -18.7330    6.7880   31.3240 C.3       6 GLP5        0.0000 
     36 N         -19.2630    8.0755   27.8535 N.am      2 SEC2        0.0000 
     37 N         -17.7940    8.2360   27.8040 N.am      8 SEL2        0.0000 
     38 N         -20.7320    7.9150   27.9030 N.am      5 SEP2        0.0000 
     39 CA        -17.4040    6.8140   25.0700 C.3       3 GLC5        0.0000 
     40 CA        -17.3490    7.3200   26.8390 C.3       9 GLL5        0.0000 
     41 CA        -17.4590    6.3080   23.3010 C.3       6 GLP5        0.0000 
     42 CA        -17.5950    9.0610   26.3020 C.3       3 GLC5        0.0000 
     43 N         -16.6425    7.9015   25.0810 N.am      2 SEC2        0.0000 
     44 N         -16.0750    7.0880   26.5170 N.am      8 SEL2        0.0000 
     45 N         -17.2100    8.7150   23.6450 N.am      5 SEP2        0.0000 
     46 N          -7.5850    2.8550   23.4710 N.am      2 SEC2        0.0000 
     47 N          -7.3170    4.0960   24.2650 N.am      8 SEL2        0.0000 
     48 N          -7.8530    1.6140   22.6770 N.am      5 SEP2        0.0000 
     49 CA         -8.6065    4.6620   22.4845 C.3       3 GLC5        0.0000 
     50 CA         -7.3300    6.3690   22.2570 C.3       9 GLL5        0.0000 
     51 CA         -9.8830    2.9550   22.7120 C.3       6 GLP5        0.0000 
     52 CA         -2.6305    8.8420   21.2600 C.3       3 GLC5        0.0000 
     53 CA         -2.6650    7.2990   19.8480 C.3       9 GLL5        0.0000 
     54 CA         -2.5960   10.3850   22.6720 C.3       6 GLP5        0.0000 
     55 CA          1.2885    9.8565   18.0770 C.3       3 GLC5        0.0000 
     56 CA         -0.1780    8.5040   18.2850 C.3       9 GLL5        0.0000 
     57 CA          2.7550   11.2090   17.8690 C.3       6 GLP5        0.0000 
     58 CA          0.9805    8.5860   16.6945 C.3       3 GLC5        0.0000 
     59 CA          2.1390    8.6680   15.1040 C.3       6 GLP5        0.0000 
     60 O           2.1525    8.0080   18.8345 O.2       1 ALC1        0.0000 
     61 O           1.2310    7.1860   19.9320 O.2       7 ALL1        0.0000 
     62 O           3.0740    8.8300   17.7370 O.2       4 ALP1        0.0000 
     63 CA         -4.2375    3.7610   21.8410 C.3       3 GLC5        0.0000 
     64 CA         -3.5040    5.8490   21.7740 C.3       9 GLL5        0.0000 
     65 CA         -4.9710    1.6730   21.9080 C.3       6 GLP5        0.0000 
     66 CA        -11.7350    5.1300   28.2133 C.3       3 GLC5        0.0000 
     67 CA        -10.5578    4.4585   24.1093 C.3       3 GLC5        0.0000 
     68 CA        -15.4275    9.5223   26.2933 C.3       3 GLC5        0.0000 
     69 CA        -15.1620    7.8620   27.2450 C.3       9 GLL5        0.0000 
     70 CA        -15.5420   10.7040   24.8430 C.3       6 GLP5        0.0000 
     71 CA        -14.7455    6.9508   28.9823 C.3       3 GLC5        0.0000 
     72 CA        -14.1780    5.5610   30.2210 C.3       6 GLP5        0.0000 
     73 CA         -1.1342    8.5765   21.8107 C.3       3 GLC5        0.0000 
     74 CA         -1.0500    6.2200   21.4300 C.3       9 GLL5        0.0000 
     75 CA         -1.0730   10.5130   22.7750 C.3       6 GLP5        0.0000 
     76 CA          0.4125    9.4157   20.0545 C.3       3 GLC5        0.0000 
     77 CA         -0.0100    7.5970   19.6130 C.3       9 GLL5        0.0000 
     78 CA          0.9190   10.7810   21.1600 C.3       6 GLP5        0.0000 
     79 CA          0.6590    6.4287   17.8820 C.3       3 GLC5        0.0000 
     80 CA          1.4120    4.8070   16.8150 C.3       6 GLP5        0.0000 
@<TRIPOS>BOND
@<TRIPOS>SUBSTRUCTURE
     1 ALC1       15 GROUP        1 X    ALC  0     ROOT ALC X 1
     2 SEC2        7 GROUP        1 X    SEC  0     **** SEC X 2
     3 GLC5        1 GROUP        1 X    GLC  0     **** GLC X 6
     4 ALP1       17 GROUP        1 Y    ALP  0     ROOT ALP Y 8
     5 SEP2        9 GROUP        1 Y    SEP  0     **** SEP Y 9
     6 GLP5        3 GROUP        1 Y    GLP  0     **** GLP Y 13
     7 ALL1       16 GROUP        1 Z    ALL  0     ROOT ALL Z 15
     8 SEL2        8 GROUP        1 Z    SEL  0     **** SEL Z 16
     9 GLL5        2 GROUP        1 Z    GLL  0     **** GLL Z 20
@<TRIPOS>SET

