#    Name: 1ptj_SND_1_ligand
#    Modification time : Mon Mar 24 22:15:41 2014

@<TRIPOS>MOLECULE
1ptj_SND_1_ligand
   70    74     1     0     0
SMALL
NO_CHARGES


@<TRIPOS>ATOM
      1 PA         -7.4840    5.9570   26.9500 P.3       1 SND500      0.0000 
      2 O1A        -7.2170    4.5570   27.3700 O.co2     1 SND500      0.0000 
      3 O2A        -7.0070    6.9270   27.9710 O.co2     1 SND500      0.0000 
      4 O5B        -9.0430    6.1670   26.6690 O.3       1 SND500      0.0000 
      5 C5B       -10.0130    5.1120   26.8380 C.3       1 SND500      0.0000 
      6 C4B       -11.2870    5.4960   26.1230 C.3       1 SND500      0.0000 
      7 O4B       -12.0700    6.2890   27.0510 O.3       1 SND500      0.0000 
      8 C3B       -11.1780    6.4280   24.8900 C.3       1 SND500      0.0000 
      9 O3B       -11.5600    5.8990   23.6450 O.3       1 SND500      0.0000 
     10 C2B       -11.9750    7.6580   25.3090 C.3       1 SND500      0.0000 
     11 O2B       -12.4670    8.4550   24.2590 O.3       1 SND500      0.0000 
     12 C1B       -12.9920    6.9850   26.2220 C.3       1 SND500      0.0000 
     13 N9A       -13.7850    7.8510   27.1450 N.pl3     1 SND500      0.0000 
     14 C8A       -13.3340    8.7820   28.0650 C.2       1 SND500      0.0000 
     15 N7A       -14.3190    9.3900   28.7500 N.2       1 SND500      0.0000 
     16 C5A       -15.4640    8.8190   28.2420 C.ar      1 SND500      0.0000 
     17 C6A       -16.8600    9.0100   28.5320 C.ar      1 SND500      0.0000 
     18 N6A       -17.3190    9.8680   29.4420 N.pl3     1 SND500      0.0000 
     19 N1A       -17.7940    8.2360   27.8040 N.ar      1 SND500      0.0000 
     20 C2A       -17.3490    7.3200   26.8390 C.ar      1 SND500      0.0000 
     21 N3A       -16.0750    7.0880   26.5170 N.ar      1 SND500      0.0000 
     22 C4A       -15.1620    7.8620   27.2450 C.ar      1 SND500      0.0000 
     23 O3         -7.0820    6.2450   25.4630 O.3       1 SND500      0.0000 
     24 PN         -6.4580    5.2960   24.4410 P.3       1 SND500      0.0000 
     25 O1N        -7.3170    4.0960   24.2650 O.co2     1 SND500      0.0000 
     26 O2N        -5.1240    4.8680   24.9220 O.co2     1 SND500      0.0000 
     27 O5D        -6.3190    6.0290   23.1470 O.3       1 SND500      0.0000 
     28 C5D        -7.3300    6.3690   22.2570 C.3       1 SND500      0.0000 
     29 C4D        -7.1940    6.9910   21.1480 C.3       1 SND500      0.0000 
     30 O4D        -5.8530    7.5780   21.1570 O.3       1 SND500      0.0000 
     31 C3D        -7.2680    5.9400   20.0280 C.3       1 SND500      0.0000 
     32 O3D        -8.1670    6.4130   19.0160 O.3       1 SND500      0.0000 
     33 C2D        -5.8020    5.7800   19.5740 C.3       1 SND500      0.0000 
     34 O2D        -5.6170    5.7110   18.4640 O.3       1 SND500      0.0000 
     35 C1D        -5.0470    6.9940   20.1040 C.3       1 SND500      0.0000 
     36 N1N        -3.7160    6.7160   20.5750 N.pl3     1 SND500      0.0000 
     37 C2N        -2.6650    7.2990   19.8480 C.ar      1 SND500      0.0000 
     38 C3N        -1.3410    7.0600   20.2630 C.ar      1 SND500      0.0000 
     39 C7N        -0.0100    7.5970   19.6130 C.2       1 SND500      0.0000 
     40 S7N        -0.1780    8.5040   18.2850 S.2       1 SND500      0.0000 
     41 N7N         1.2310    7.1860   19.9320 N.am      1 SND500      0.0000 
     42 C4N        -1.0500    6.2200   21.4300 C.ar      1 SND500      0.0000 
     43 C5N        -2.1640    5.6650   22.1140 C.ar      1 SND500      0.0000 
     44 C6N        -3.5040    5.8490   21.7740 C.ar      1 SND500      0.0000 
     45 H         -10.2431    4.9516   27.8943 H         1 SND500      0.0000 
     46 H          -9.6504    4.1702   26.4185 H         1 SND500      0.0000 
     47 H         -11.8515    4.6314   25.8488 H         1 SND500      0.0000 
     48 H         -10.1140    6.7710   24.8892 H         1 SND500      0.0000 
     49 H         -11.2969    8.2063   25.9939 H         1 SND500      0.0000 
     50 H         -13.5700    6.3111   25.6820 H         1 SND500      0.0000 
     51 H         -12.3650    8.9696   28.1927 H         1 SND500      0.0000 
     52 H         -18.3130    9.9147   29.5408 H         1 SND500      0.0000 
     53 H         -16.6282   10.3880   29.9443 H         1 SND500      0.0000 
     54 H         -18.1211    6.7712   26.3302 H         1 SND500      0.0000 
     55 H          -8.1784    6.9043   22.9202 H         1 SND500      0.0000 
     56 H          -7.9589    5.3593   22.0806 H         1 SND500      0.0000 
     57 H          -7.9163    7.7382   20.9370 H         1 SND500      0.0000 
     58 H          -7.5809    5.0254   20.4816 H         1 SND500      0.0000 
     59 H          -5.4111    4.9445   20.2277 H         1 SND500      0.0000 
     60 H          -5.0064    7.7228   19.2713 H         1 SND500      0.0000 
     61 H          -2.8546    7.8811   19.0396 H         1 SND500      0.0000 
     62 H           1.2974    6.5281   20.6822 H         1 SND500      0.0000 
     63 H           1.9762    7.5751   19.3904 H         1 SND500      0.0000 
     64 H          -0.1157    6.0613   21.7091 H         1 SND500      0.0000 
     65 H          -1.9468    5.0563   22.9596 H         1 SND500      0.0000 
     66 H          -4.2648    5.4711   22.2403 H         1 SND500      0.0000 
     67 H         -12.4824    6.2510   23.4863 H         1 SND500      0.0000 
     68 H         -13.0187    7.8355   23.7006 H         1 SND500      0.0000 
     69 H          -8.8565    5.6943   18.9261 H         1 SND500      0.0000 
     70 H          -6.4971    5.9268   18.0411 H         1 SND500      0.0000 
@<TRIPOS>BOND
     1    2    1 ar   
     2    3    1 ar   
     3    4    1 1    
     4   23    1 1    
     5    5    4 1    
     6    6    5 1    
     7   45    5 1    
     8   46    5 1    
     9    7    6 1    
    10    8    6 1    
    11   47    6 1    
    12   12    7 1    
    13    9    8 1    
    14   10    8 1    
    15   48    8 1    
    16   67    9 1    
    17   11   10 1    
    18   12   10 1    
    19   49   10 1    
    20   68   11 1    
    21   13   12 1    
    22   50   12 1    
    23   14   13 1    
    24   22   13 1    
    25   15   14 2    
    26   51   14 1    
    27   16   15 1    
    28   17   16 ar   
    29   22   16 ar   
    30   18   17 1    
    31   19   17 ar   
    32   52   18 1    
    33   53   18 1    
    34   20   19 ar   
    35   21   20 ar   
    36   54   20 1    
    37   22   21 ar   
    38   24   23 1    
    39   25   24 ar   
    40   26   24 ar   
    41   27   24 1    
    42   28   27 1    
    43   29   28 1    
    44   55   28 1    
    45   56   28 1    
    46   30   29 1    
    47   31   29 1    
    48   57   29 1    
    49   35   30 1    
    50   32   31 1    
    51   33   31 1    
    52   58   31 1    
    53   69   32 1    
    54   34   33 1    
    55   35   33 1    
    56   59   33 1    
    57   70   34 1    
    58   36   35 1    
    59   60   35 1    
    60   37   36 ar   
    61   44   36 ar   
    62   38   37 ar   
    63   61   37 1    
    64   39   38 1    
    65   42   38 ar   
    66   40   39 2    
    67   41   39 am   
    68   62   41 1    
    69   63   41 1    
    70   43   42 ar   
    71   64   42 1    
    72   44   43 ar   
    73   65   43 1    
    74   66   44 1    
@<TRIPOS>SUBSTRUCTURE
     1 SND500      1 GROUP   
@<TRIPOS>SET

