#    Name: 4h8i_11W_1_INTS_M
#    Modification time : Tue Mar 25 00:41:03 2014

@<TRIPOS>MOLECULE
4h8i_11W_1_INTS_M
   71     0    15     0     0
SMALL
NO_CHARGES


@<TRIPOS>ATOM
      1 CA         -0.7220  -22.6405   22.8280 C.3       5 GLC5        0.0000 
      2 CA         -0.2710  -23.9760   24.3350 C.3      15 GLL5        0.0000 
      3 CA         -1.1730  -21.3050   21.3210 C.3      10 GLP5        0.0000 
      4 CA         -2.3120  -24.0180   20.5940 C.3       5 GLC5        0.0000 
      5 CA         -3.9450  -24.9190   21.6440 C.3      15 GLL5        0.0000 
      6 CA         -0.6790  -23.1170   19.5440 C.3      10 GLP5        0.0000 
      7 CA         -7.6470  -25.7525   19.2040 C.3       5 GLC5        0.0000 
      8 CA         -6.4200  -27.1790   20.1050 C.3      15 GLL5        0.0000 
      9 CA         -8.8740  -24.3260   18.3030 C.3      10 GLP5        0.0000 
     10 CA         -8.4420  -28.2380   21.0740 C.3       5 GLC5        0.0000 
     11 CA         -7.8750  -28.9920   19.2860 C.3      15 GLL5        0.0000 
     12 CA         -9.0090  -27.4840   22.8620 C.3      10 GLP5        0.0000 
     13 N         -11.2085  -26.7865   16.9810 N.am      2 SEC2        0.0000 
     14 N         -10.1340  -27.4710   17.5220 N.am     12 SEL2        0.0000 
     15 N         -12.2830  -26.1020   16.4400 N.am      7 SEP2        0.0000 
     16 N         -11.5090  -28.2390   17.2015 N.am      2 SEC2        0.0000 
     17 N         -12.8840  -29.0070   16.8810 N.am      7 SEP2        0.0000 
     18 N         -10.6080  -26.7770   18.6445 N.am      2 SEC2        0.0000 
     19 N         -11.0820  -26.0830   19.7670 N.am      7 SEP2        0.0000 
     20 N         -11.6225  -29.3435   17.3395 N.am      2 SEC2        0.0000 
     21 N         -10.3610  -29.6800   17.7980 N.am     12 SEL2        0.0000 
     22 CA         -5.4850  -27.1835   17.4290 C.3       5 GLC5        0.0000 
     23 CA         -7.3070  -27.7740   16.9720 C.3      15 GLL5        0.0000 
     24 CA         -3.6630  -26.5930   17.8860 C.3      10 GLP5        0.0000 
     25 CA         -8.0905  -26.0500   17.6375 C.3       5 GLC5        0.0000 
     26 CA         -5.5610  -27.5530   15.5205 C.3       5 GLC5        0.0000 
     27 CA         -7.6170  -27.9250   15.4780 C.3      15 GLL5        0.0000 
     28 CA         -3.5050  -27.1810   15.5630 C.3      10 GLP5        0.0000 
     29 CA         -9.0550  -26.6245   14.6635 C.3       5 GLC5        0.0000 
     30 CA        -10.4930  -25.3240   13.8490 C.3      10 GLP5        0.0000 
     31 NZ         -6.6360  -25.7100   12.9100 N.4       4 LYC4        0.0000 
     32 NZ         -6.5200  -26.9240   13.6260 N.4      14 LYL4        0.0000 
     33 NZ         -6.5340  -23.3260   12.8280 N.4       9 LYP4        0.0000 
     34 N          -6.4945  -27.2985   12.2375 N.am      2 SEC2        0.0000 
     35 N          -6.5200  -26.9240   13.6260 N.am     12 SEL2        0.0000 
     36 N          -6.4690  -27.6730   10.8490 N.am      7 SEP2        0.0000 
     37 N          -6.6360  -25.7100   12.9100 N.am      2 SEC2        0.0000 
     38 N          -6.7520  -24.4960   12.1940 N.am      7 SEP2        0.0000 
     39 NZ         -6.9190  -24.4425   14.6570 N.4       4 LYC4        0.0000 
     40 NZ         -7.3670  -25.5880   15.1610 N.4      14 LYL4        0.0000 
     41 N          -7.0595  -25.0420   13.6775 N.am      2 SEC2        0.0000 
     42 N          -7.3670  -25.5880   15.1610 N.am     12 SEL2        0.0000 
     43 N          -6.9190  -24.4425   14.6570 N.am      2 SEC2        0.0000 
     44 N          -6.4710  -23.2970   14.1530 N.am      7 SEP2        0.0000 
     45 N          -8.6255  -25.1375   15.6435 N.am      2 SEC2        0.0000 
     46 N          -9.8840  -24.6870   16.1260 N.am      7 SEP2        0.0000 
     47 OD1        -7.8300  -30.2390   14.7665 O.co2     3 ASC3        0.0000 
     48 OD1        -6.9470  -29.1430   14.9780 O.co2    13 ASL3        0.0000 
     49 OD1        -8.7130  -31.3350   14.5550 O.co2     8 ASP3        0.0000 
     50 OD1        -8.4605  -29.4150   14.4320 O.co2     3 ASC3        0.0000 
     51 OD1        -9.9740  -29.6870   13.8860 O.co2     8 ASP3        0.0000 
     52 O          -5.8600  -29.5970   14.0565 O.2       1 ALC1        0.0000 
     53 O          -6.9470  -29.1430   14.9780 O.2      11 ALL1        0.0000 
     54 O          -4.7730  -30.0510   13.1350 O.2       6 ALP1        0.0000 
     55 O          -7.8300  -30.2390   14.7665 O.2       1 ALC1        0.0000 
     56 O          -8.7130  -31.3350   14.5550 O.2       6 ALP1        0.0000 
     57 O          -8.4605  -29.4150   14.4320 O.2       1 ALC1        0.0000 
     58 O          -9.9740  -29.6870   13.8860 O.2       6 ALP1        0.0000 
     59 CA          1.2248  -24.3328   22.9731 C.3       5 GLC5        0.0000 
     60 CA          2.5350  -24.1550   21.3870 C.3      10 GLP5        0.0000 
     61 CA         -5.8543  -27.1125   22.5902 C.3       5 GLC5        0.0000 
     62 CA         -3.4710  -27.2010   22.3780 C.3      15 GLL5        0.0000 
     63 CA         -7.6980  -26.7870   23.1810 C.3      10 GLP5        0.0000 
     64 CA         -4.7223  -28.3640   23.7443 C.3       5 GLC5        0.0000 
     65 CA         -4.5500  -27.6750   21.6210 C.3      15 GLL5        0.0000 
     66 CA         -5.4340  -29.2900   25.4890 C.3      10 GLP5        0.0000 
     67 CA         -6.0895  -25.9713   22.2253 C.3       5 GLC5        0.0000 
     68 CA         -5.0578  -27.8967   19.1525 C.3       5 GLC5        0.0000 
     69 CA         -3.5230  -27.9440   18.2520 C.3      10 GLP5        0.0000 
     70 CA         -7.0084  -27.2659   21.7136 C.3       5 GLC5        0.0000 
     71 CA         -6.7650  -28.5200   20.0010 C.3      15 GLL5        0.0000 
@<TRIPOS>BOND
@<TRIPOS>SUBSTRUCTURE
     1 ALC1       52 GROUP        1 X    ALC  0     ROOT ALC X 1
     2 SEC2       13 GROUP        1 X    SEC  0     **** SEC X 2
     3 ASC3       47 GROUP        1 X    ASC  0     **** ASC X 3
     4 LYC4       31 GROUP        1 X    LYC  0     **** LYC X 4
     5 GLC5        1 GROUP        1 X    GLC  0     **** GLC X 6
     6 ALP1       54 GROUP        1 Y    ALP  0     ROOT ALP Y 8
     7 SEP2       15 GROUP        1 Y    SEP  0     **** SEP Y 9
     8 ASP3       49 GROUP        1 Y    ASP  0     **** ASP Y 10
     9 LYP4       33 GROUP        1 Y    LYP  0     **** LYP Y 11
    10 GLP5        3 GROUP        1 Y    GLP  0     **** GLP Y 13
    11 ALL1       53 GROUP        1 Z    ALL  0     ROOT ALL Z 15
    12 SEL2       14 GROUP        1 Z    SEL  0     **** SEL Z 16
    13 ASL3       48 GROUP        1 Z    ASL  0     **** ASL Z 17
    14 LYL4       32 GROUP        1 Z    LYL  0     **** LYL Z 18
    15 GLL5        2 GROUP        1 Z    GLL  0     **** GLL Z 20
@<TRIPOS>SET

