#    Name: 4h8i_11W_1_ligand
#    Modification time : Tue Mar 25 00:41:03 2014

@<TRIPOS>MOLECULE
4h8i_11W_1_ligand
   47    48     1     0     0
SMALL
NO_CHARGES


@<TRIPOS>ATOM
      1 CAK        -0.2710  -23.9760   24.3350 C.ar      1 11W301      0.0000 
      2 CAI         0.7610  -23.3340   25.0160 C.ar      1 11W301      0.0000 
      3 CAH         1.6450  -24.0780   25.8040 C.ar      1 11W301      0.0000 
      4 CAJ         1.4920  -25.4590   25.9250 C.ar      1 11W301      0.0000 
      5 CAL         0.4600  -26.1040   25.2460 C.ar      1 11W301      0.0000 
      6 CAX        -0.4160  -25.3660   24.4430 C.ar      1 11W301      0.0000 
      7 NAS        -1.3940  -25.9890   23.7870 N.2       1 11W301      0.0000 
      8 NAT        -2.1560  -25.3180   23.0850 N.2       1 11W301      0.0000 
      9 CAY        -3.1740  -25.8220   22.3830 C.ar      1 11W301      0.0000 
     10 CAP        -3.4710  -27.2010   22.3780 C.ar      1 11W301      0.0000 
     11 CAN        -4.5500  -27.6750   21.6210 C.ar      1 11W301      0.0000 
     12 CAO        -3.9450  -24.9190   21.6440 C.ar      1 11W301      0.0000 
     13 CAM        -5.0170  -25.3920   20.8950 C.ar      1 11W301      0.0000 
     14 CAW        -5.3250  -26.7600   20.8780 C.ar      1 11W301      0.0000 
     15 CAG        -6.4200  -27.1790   20.1050 C.2       1 11W301      0.0000 
     16 CAF        -6.7650  -28.5200   20.0010 C.2       1 11W301      0.0000 
     17 CD1        -7.8750  -28.9920   19.2860 C.3       1 11W301      0.0000 
     18 CG         -8.1250  -28.8380   17.7420 C.3       1 11W301      0.0000 
     19 CD2        -9.6720  -28.6360   17.6360 C.2       1 11W301      0.0000 
     20 OAE       -10.1340  -27.4710   17.5220 O.co2     1 11W301      0.0000 
     21 OAC       -10.3610  -29.6800   17.7980 O.co2     1 11W301      0.0000 
     22 CB         -7.3070  -27.7740   16.9720 C.3       1 11W301      0.0000 
     23 CA         -7.6170  -27.9250   15.4780 C.3       1 11W301      0.0000 
     24 C          -7.1520  -26.7120   14.6780 C.2       1 11W301      0.0000 
     25 OXT        -6.5200  -26.9240   13.6260 O.co2     1 11W301      0.0000 
     26 O          -7.3670  -25.5880   15.1610 O.co2     1 11W301      0.0000 
     27 N          -6.9470  -29.1430   14.9780 N.4       1 11W301      0.0000 
     28 H          -0.9230  -23.4380   23.7569 H         1 11W301      0.0000 
     29 H           0.8743  -22.3172   24.9411 H         1 11W301      0.0000 
     30 H           2.4128  -23.6019   26.2970 H         1 11W301      0.0000 
     31 H           2.1376  -25.9980   26.5123 H         1 11W301      0.0000 
     32 H           0.3408  -27.1193   25.3335 H         1 11W301      0.0000 
     33 H          -2.8998  -27.8467   22.9248 H         1 11W301      0.0000 
     34 H          -4.7759  -28.6673   21.6042 H         1 11W301      0.0000 
     35 H          -3.7199  -23.9219   21.6566 H         1 11W301      0.0000 
     36 H          -5.5922  -24.7368   20.3469 H         1 11W301      0.0000 
     37 H          -6.9799  -26.4649   19.6026 H         1 11W301      0.0000 
     38 H          -6.1576  -29.2324   20.4884 H         1 11W301      0.0000 
     39 H          -8.8667  -28.6025   19.7741 H         1 11W301      0.0000 
     40 H          -8.0283  -30.1367   19.4853 H         1 11W301      0.0000 
     41 H          -7.9369  -29.8369   17.3033 H         1 11W301      0.0000 
     42 H          -6.2598  -27.9432   17.1433 H         1 11W301      0.0000 
     43 H          -7.6001  -26.7955   17.3054 H         1 11W301      0.0000 
     44 H          -8.6860  -28.0293   15.3633 H         1 11W301      0.0000 
     45 H          -6.2958  -28.9356   14.2479 H         1 11W301      0.0000 
     46 H          -6.4379  -29.6101   15.7009 H         1 11W301      0.0000 
     47 H          -7.6020  -29.8019   14.6081 H         1 11W301      0.0000 
@<TRIPOS>BOND
     1    2    1 ar   
     2    6    1 ar   
     3   28    1 1    
     4    3    2 ar   
     5   29    2 1    
     6    4    3 ar   
     7   30    3 1    
     8    5    4 ar   
     9   31    4 1    
    10    6    5 ar   
    11   32    5 1    
    12    7    6 1    
    13    8    7 2    
    14    9    8 1    
    15   10    9 ar   
    16   12    9 ar   
    17   11   10 ar   
    18   33   10 1    
    19   14   11 ar   
    20   34   11 1    
    21   13   12 ar   
    22   35   12 1    
    23   14   13 ar   
    24   36   13 1    
    25   15   14 1    
    26   16   15 2    
    27   37   15 1    
    28   17   16 1    
    29   38   16 1    
    30   18   17 1    
    31   39   17 1    
    32   40   17 1    
    33   19   18 1    
    34   22   18 1    
    35   41   18 1    
    36   20   19 ar   
    37   21   19 ar   
    38   23   22 1    
    39   42   22 1    
    40   43   22 1    
    41   24   23 1    
    42   27   23 1    
    43   44   23 1    
    44   25   24 ar   
    45   26   24 ar   
    46   45   27 1    
    47   46   27 1    
    48   47   27 1    
@<TRIPOS>SUBSTRUCTURE
     1 11W301      1 GROUP   
@<TRIPOS>SET

