#    Name: 4lm5_Q17_1_INTS_M
#    Modification time : Tue Mar 25 11:16:39 2014

@<TRIPOS>MOLECULE
4lm5_Q17_1_INTS_M
   70     0     9     0     0
SMALL
NO_CHARGES


@<TRIPOS>ATOM
      1 CA         36.4640    4.9035   -1.8665 C.3       3 GLC5        0.0000 
      2 CA         36.8800    3.0930   -1.5520 C.3       9 GLL5        0.0000 
      3 CA         36.0480    6.7140   -2.1810 C.3       6 GLP5        0.0000 
      4 CA         39.3075    1.5540   -5.1055 C.3       3 GLC5        0.0000 
      5 CA         38.8160    2.8980   -3.5440 C.3       9 GLL5        0.0000 
      6 CA         39.7990    0.2100   -6.6670 C.3       6 GLP5        0.0000 
      7 CA         40.5405    0.2890   -1.5205 C.3       3 GLC5        0.0000 
      8 CA         40.5650    2.2400   -1.7100 C.3       9 GLL5        0.0000 
      9 CA         40.5160   -1.6620   -1.3310 C.3       6 GLP5        0.0000 
     10 CA         41.4785    3.7065   -0.2055 C.3       3 GLC5        0.0000 
     11 CA         42.0210    1.7300    0.0430 C.3       9 GLL5        0.0000 
     12 CA         40.9360    5.6830   -0.4540 C.3       6 GLP5        0.0000 
     13 CA         43.6080    2.8990   -5.1310 C.3       3 GLC5        0.0000 
     14 CA         43.8090    1.7670   -3.2560 C.3       9 GLL5        0.0000 
     15 CA         43.4070    4.0310   -7.0060 C.3       6 GLP5        0.0000 
     16 CA         46.3970    0.3090   -3.7045 C.3       3 GLC5        0.0000 
     17 CA         45.0830    1.4640   -2.8680 C.3       9 GLL5        0.0000 
     18 CA         47.7110   -0.8460   -4.5410 C.3       6 GLP5        0.0000 
     19 CA         46.9765    2.3065   -3.7070 C.3       3 GLC5        0.0000 
     20 CA         48.8700    3.1490   -4.5460 C.3       6 GLP5        0.0000 
     21 CA         46.8500    0.1295   -2.3105 C.3       3 GLC5        0.0000 
     22 CA         45.4000    1.2400   -1.4940 C.3       9 GLL5        0.0000 
     23 CA         48.3000   -0.9810   -3.1270 C.3       6 GLP5        0.0000 
     24 CA         47.1775    1.7430   -0.4500 C.3       3 GLC5        0.0000 
     25 CA         48.9550    2.2460    0.5940 C.3       6 GLP5        0.0000 
     26 CA         40.1985    0.0675    3.4420 C.3       3 GLC5        0.0000 
     27 CA         41.2150    1.7440    2.3860 C.3       9 GLL5        0.0000 
     28 CA         39.1820   -1.6090    4.4980 C.3       6 GLP5        0.0000 
     29 CA         40.9940    4.4950    1.0540 C.3       3 GLC5        0.0000 
     30 CA         41.0520    3.3070    2.5620 C.3       9 GLL5        0.0000 
     31 OD1        41.2275    5.4145    4.7320 O.co2     2 ASC3        0.0000 
     32 OD1        40.1540    5.0740    3.9940 O.co2     8 ASL3        0.0000 
     33 OD1        42.3010    5.7550    5.4700 O.co2     5 ASP3        0.0000 
     34 O          40.1500    6.3385    3.3485 O.2       1 ALC1        0.0000 
     35 O          40.1540    5.0740    3.9940 O.2       7 ALL1        0.0000 
     36 O          40.1460    7.6030    2.7030 O.2       4 ALP1        0.0000 
     37 O          41.2275    5.4145    4.7320 O.2       1 ALC1        0.0000 
     38 O          42.3010    5.7550    5.4700 O.2       4 ALP1        0.0000 
     39 CA         36.4755    1.6450   -3.5137 C.3       3 GLC5        0.0000 
     40 CA         36.5520    3.3390   -2.8830 C.3       9 GLL5        0.0000 
     41 CA         35.9220    0.0010   -3.6430 C.3       6 GLP5        0.0000 
     42 CA         39.3620    4.7037   -3.3285 C.3       3 GLC5        0.0000 
     43 CA         37.5060    3.2390   -3.8860 C.3       9 GLL5        0.0000 
     44 CA         40.5630    6.3390   -2.9420 C.3       6 GLP5        0.0000 
     45 CA         36.6850    4.9785   -3.5347 C.3       3 GLC5        0.0000 
     46 CA         36.3410    6.6680   -3.6850 C.3       6 GLP5        0.0000 
     47 CA         35.1415    2.8375   -1.4363 C.3       3 GLC5        0.0000 
     48 CA         33.5670    2.4590   -0.6550 C.3       6 GLP5        0.0000 
     49 CA         36.7260    1.4558   -2.5072 C.3       3 GLC5        0.0000 
     50 CA         38.1800    2.7280   -1.1910 C.3       9 GLL5        0.0000 
     51 CA         38.2863    0.9081   -1.3259 C.3       3 GLC5        0.0000 
     52 CA         39.1790    2.6040   -2.1580 C.3       9 GLL5        0.0000 
     53 CA         38.2180   -0.9410   -0.8870 C.3       6 GLP5        0.0000 
     54 CA         37.4597    1.3760   -3.2470 C.3       3 GLC5        0.0000 
     55 CA         40.2791    4.0680   -1.0731 C.3       3 GLC5        0.0000 
     56 CA         43.9617    3.2855   -1.6375 C.3       3 GLC5        0.0000 
     57 CA         43.1120    1.6120   -0.8910 C.3       9 GLL5        0.0000 
     58 CA         44.9710    4.8430   -1.7070 C.3       6 GLP5        0.0000 
     59 CA         41.5979    0.0478   -1.3327 C.3       3 GLC5        0.0000 
     60 CA         42.7930    1.8440   -2.2450 C.3       9 GLL5        0.0000 
     61 CA         43.3460    0.0957   -3.4028 C.3       3 GLC5        0.0000 
     62 CA         43.3910   -1.6140   -4.0550 C.3       6 GLP5        0.0000 
     63 CA         42.6150    3.8083   -3.0782 C.3       3 GLC5        0.0000 
     64 CA         41.9290    5.8110   -3.4060 C.3       6 GLP5        0.0000 
     65 CA         44.7085    3.2292   -2.3845 C.3       3 GLC5        0.0000 
     66 CA         44.3162   -0.1310   -3.1180 C.3       3 GLC5        0.0000 
     67 CA         44.6229   -0.4830   -0.3416 C.3       3 GLC5        0.0000 
     68 CA         44.6590   -2.3170    0.4170 C.3       6 GLP5        0.0000 
     69 CA         44.9442    3.0595   -1.3575 C.3       3 GLC5        0.0000 
     70 CA         44.4350    1.3120   -0.5220 C.3       9 GLL5        0.0000 
@<TRIPOS>BOND
@<TRIPOS>SUBSTRUCTURE
     1 ALC1       34 GROUP        1 X    ALC  0     ROOT ALC X 1
     2 ASC3       31 GROUP        1 X    ASC  0     **** ASC X 3
     3 GLC5        1 GROUP        1 X    GLC  0     **** GLC X 6
     4 ALP1       36 GROUP        1 Y    ALP  0     ROOT ALP Y 8
     5 ASP3       33 GROUP        1 Y    ASP  0     **** ASP Y 10
     6 GLP5        3 GROUP        1 Y    GLP  0     **** GLP Y 13
     7 ALL1       35 GROUP        1 Z    ALL  0     ROOT ALL Z 15
     8 ASL3       32 GROUP        1 Z    ASL  0     **** ASL Z 17
     9 GLL5        2 GROUP        1 Z    GLL  0     **** GLL Z 20
@<TRIPOS>SET

