#    Name: 4lm5_Q17_1_ligand
#    Modification time : Tue Mar 25 11:16:39 2014

@<TRIPOS>MOLECULE
4lm5_Q17_1_ligand
   41    43     1     0     0
SMALL
NO_CHARGES


@<TRIPOS>ATOM
      1 C1         37.5060    3.2390   -3.8860 C.ar      1 Q17401      0.0000 
      2 C2         36.5520    3.3390   -2.8830 C.ar      1 Q17401      0.0000 
      3 C3         36.8800    3.0930   -1.5520 C.ar      1 Q17401      0.0000 
      4 C4         38.1800    2.7280   -1.1910 C.ar      1 Q17401      0.0000 
      5 C5         39.1790    2.6040   -2.1580 C.ar      1 Q17401      0.0000 
      6 C6         38.8160    2.8980   -3.5440 C.ar      1 Q17401      0.0000 
      7 O7         39.7750    2.8240   -4.5040 O.3       1 Q17401      0.0000 
      8 C8         40.5650    2.2400   -1.7100 C.ar      1 Q17401      0.0000 
      9 N9         40.7480    2.0360   -0.3350 N.ar      1 Q17401      0.0000 
     10 C10        42.0210    1.7300    0.0430 C.ar      1 Q17401      0.0000 
     11 C11        43.1120    1.6120   -0.8910 C.ar      1 Q17401      0.0000 
     12 C12        42.7930    1.8440   -2.2450 C.ar      1 Q17401      0.0000 
     13 N13        41.5110    2.1640   -2.6720 N.ar      1 Q17401      0.0000 
     14 C14        43.8090    1.7670   -3.2560 C.ar      1 Q17401      0.0000 
     15 C15        45.0830    1.4640   -2.8680 C.ar      1 Q17401      0.0000 
     16 C16        45.4000    1.2400   -1.4940 C.ar      1 Q17401      0.0000 
     17 C17        44.4350    1.3120   -0.5220 C.ar      1 Q17401      0.0000 
     18 N18        42.2470    1.5210    1.3540 N.pl3     1 Q17401      0.0000 
     19 C19        41.2150    1.7440    2.3860 C.3       1 Q17401      0.0000 
     20 C20        41.0520    3.3070    2.5620 C.3       1 Q17401      0.0000 
     21 C21        39.8960    3.7150    3.4910 C.3       1 Q17401      0.0000 
     22 N22        40.1540    5.0740    3.9940 N.4       1 Q17401      0.0000 
     23 H          37.2572    3.4116   -4.8612 H         1 Q17401      0.0000 
     24 H          35.5797    3.6007   -3.1261 H         1 Q17401      0.0000 
     25 H          36.1557    3.1807   -0.8216 H         1 Q17401      0.0000 
     26 H          38.4025    2.5488   -0.2005 H         1 Q17401      0.0000 
     27 H          43.5555    1.9380   -4.2213 H         1 Q17401      0.0000 
     28 H          45.8483    1.3895   -3.5590 H         1 Q17401      0.0000 
     29 H          46.3811    1.0213   -1.2524 H         1 Q17401      0.0000 
     30 H          44.6593    1.1520    0.4634 H         1 Q17401      0.0000 
     31 H          43.1686    1.1888    1.7088 H         1 Q17401      0.0000 
     32 H          41.5120    1.3419    3.3380 H         1 Q17401      0.0000 
     33 H          40.2602    1.3526    2.0839 H         1 Q17401      0.0000 
     34 H          40.8948    3.7421    1.5686 H         1 Q17401      0.0000 
     35 H          41.9956    3.7006    2.9566 H         1 Q17401      0.0000 
     36 H          39.8460    3.0015    4.3069 H         1 Q17401      0.0000 
     37 H          38.9727    3.6798    2.9222 H         1 Q17401      0.0000 
     38 H          41.0120    5.1242    4.5052 H         1 Q17401      0.0000 
     39 H          40.2165    5.7396    3.2503 H         1 Q17401      0.0000 
     40 H          39.4287    5.3869    4.6072 H         1 Q17401      0.0000 
     41 H          40.5696    2.4257   -4.0458 H         1 Q17401      0.0000 
@<TRIPOS>BOND
     1    2    1 ar   
     2    6    1 ar   
     3   23    1 1    
     4    3    2 ar   
     5   24    2 1    
     6    4    3 ar   
     7   25    3 1    
     8    5    4 ar   
     9   26    4 1    
    10    6    5 ar   
    11    8    5 1    
    12    7    6 1    
    13   41    7 1    
    14    9    8 ar   
    15   13    8 ar   
    16   10    9 ar   
    17   11   10 ar   
    18   18   10 1    
    19   12   11 ar   
    20   17   11 ar   
    21   13   12 ar   
    22   14   12 ar   
    23   15   14 ar   
    24   27   14 1    
    25   16   15 ar   
    26   28   15 1    
    27   17   16 ar   
    28   29   16 1    
    29   30   17 1    
    30   19   18 1    
    31   31   18 1    
    32   20   19 1    
    33   32   19 1    
    34   33   19 1    
    35   21   20 1    
    36   34   20 1    
    37   35   20 1    
    38   22   21 1    
    39   36   21 1    
    40   37   21 1    
    41   38   22 1    
    42   39   22 1    
    43   40   22 1    
@<TRIPOS>SUBSTRUCTURE
     1 Q17401      1 GROUP   
@<TRIPOS>SET

