#    Name: 2phk_ATP_1_INTS_M
#    Modification time : Mon Mar 24 18:59:55 2014

@<TRIPOS>MOLECULE
2phk_ATP_1_INTS_M
   72     0    15     0     0
SMALL
NO_CHARGES


@<TRIPOS>ATOM
      1 NZ         47.0335   17.2185   46.6970 N.4       3 LYC4        0.0000 
      2 NZ         46.6360   16.1770   47.8570 N.4      13 LYL4        0.0000 
      3 NZ         47.4310   18.2600   45.5370 N.4       8 LYP4        0.0000 
      4 Zn         46.5055   15.1975   47.6390 Zn        4 ZIC7        0.0000 
      5 Zn         46.6360   16.1770   47.8570 Zn       14 ZIL7        0.0000 
      6 Zn         46.3750   14.2180   47.4210 Zn        9 ZIP7        0.0000 
      7 N          47.0335   17.2185   46.6970 N.am      2 SEC2        0.0000 
      8 N          46.6360   16.1770   47.8570 N.am     12 SEL2        0.0000 
      9 N          47.4310   18.2600   45.5370 N.am      7 SEP2        0.0000 
     10 Zn         44.4395   16.1420   49.7695 Zn        4 ZIC7        0.0000 
     11 Zn         45.3850   16.7560   49.8270 Zn       14 ZIL7        0.0000 
     12 Zn         43.4940   15.5280   49.7120 Zn        9 ZIP7        0.0000 
     13 N          46.8420   13.2380   53.4685 N.am      2 SEC2        0.0000 
     14 N          46.5650   14.3450   52.4730 N.am     12 SEL2        0.0000 
     15 N          47.1190   12.1310   54.4640 N.am      7 SEP2        0.0000 
     16 NZ         43.8725   12.8235   51.4350 N.4       3 LYC4        0.0000 
     17 NZ         44.7460   14.0580   50.8830 N.4      13 LYL4        0.0000 
     18 NZ         42.9990   11.5890   51.9870 N.4       8 LYP4        0.0000 
     19 Zn         44.1200   14.7930   50.2975 Zn        4 ZIC7        0.0000 
     20 Zn         44.7460   14.0580   50.8830 Zn       14 ZIL7        0.0000 
     21 Zn         46.6910   14.5330   48.7015 Zn        4 ZIC7        0.0000 
     22 Zn         47.0070   14.8480   49.9820 Zn       14 ZIL7        0.0000 
     23 NZ         44.0500   11.1975   50.8410 N.4       3 LYC4        0.0000 
     24 NZ         45.1010   10.8060   49.6950 N.4      13 LYL4        0.0000 
     25 N          44.0500   11.1975   50.8410 N.am      2 SEC2        0.0000 
     26 N          45.1010   10.8060   49.6950 N.am     12 SEL2        0.0000 
     27 N          42.9990   11.5890   51.9870 N.am      7 SEP2        0.0000 
     28 Zn         46.3475   13.2235   47.7965 Zn        4 ZIC7        0.0000 
     29 Zn         46.3200   12.2290   48.1720 Zn       14 ZIL7        0.0000 
     30 O          49.2510   11.6875   45.1705 O.2       1 ALC1        0.0000 
     31 O          49.9950   11.5490   46.4820 O.2      11 ALL1        0.0000 
     32 O          48.5070   11.8260   43.8590 O.2       6 ALP1        0.0000 
     33 CA         50.7990    9.3270   44.8810 C.3       5 GLC5        0.0000 
     34 CA         50.1410    9.0200   46.6700 C.3      15 GLL5        0.0000 
     35 CA         51.4570    9.6340   43.0920 C.3      10 GLP5        0.0000 
     36 CA         49.3735    7.9325   45.1760 C.3       5 GLC5        0.0000 
     37 CA         48.6060    6.8450   43.6820 C.3      10 GLP5        0.0000 
     38 O          51.7070   10.2525   45.4640 O.2       1 ALC1        0.0000 
     39 O          51.4820    9.2180   46.1670 O.2      11 ALL1        0.0000 
     40 O          51.9320   11.2870   44.7610 O.2       6 ALP1        0.0000 
     41 CA         51.6190    8.9890   49.3435 C.3       5 GLC5        0.0000 
     42 CA         50.1750    8.1590   47.9340 C.3      15 GLL5        0.0000 
     43 CA         53.0630    9.8190   50.7530 C.3      10 GLP5        0.0000 
     44 CA         49.8485    7.3000   49.7125 C.3       5 GLC5        0.0000 
     45 CA         49.5220    6.4410   51.4910 C.3      10 GLP5        0.0000 
     46 O          45.9980    2.1085   47.3650 O.2       1 ALC1        0.0000 
     47 O          46.2930    3.5610   47.5750 O.2      11 ALL1        0.0000 
     48 O          45.7030    0.6560   47.1550 O.2       6 ALP1        0.0000 
     49 N          48.7010    1.9510   46.1905 N.am      2 SEC2        0.0000 
     50 N          48.5240    3.2780   47.0430 N.am     12 SEL2        0.0000 
     51 N          48.8780    0.6240   45.3380 N.am      7 SEP2        0.0000 
     52 CA         50.9070    3.5235   48.5490 C.3       5 GLC5        0.0000 
     53 CA         49.7950    3.8120   46.9450 C.3      15 GLL5        0.0000 
     54 CA         52.0190    3.2350   50.1530 C.3      10 GLP5        0.0000 
     55 CA         48.9050    3.0000   48.6800 C.3       5 GLC5        0.0000 
     56 CA         48.0150    2.1880   50.4150 C.3      10 GLP5        0.0000 
     57 CA         50.5170    1.8325   47.6660 C.3       5 GLC5        0.0000 
     58 CA         51.2390   -0.1470   48.3870 C.3      10 GLP5        0.0000 
     59 CA         49.1875    2.9260   45.1485 C.3       5 GLC5        0.0000 
     60 CA         48.5800    2.0400   43.3520 C.3      10 GLP5        0.0000 
     61 CA         48.8935    6.3105   45.6620 C.3       5 GLC5        0.0000 
     62 CA         49.1810    5.7760   47.6420 C.3      15 GLL5        0.0000 
     63 CA         51.2353   10.2728   49.9135 C.3       5 GLC5        0.0000 
     64 CA         49.8820   10.3670   48.6080 C.3      15 GLL5        0.0000 
     65 CA         48.9022    9.6423   50.6340 C.3       5 GLC5        0.0000 
     66 CA         48.3970    8.5580   52.1940 C.3      10 GLP5        0.0000 
     67 CA         49.0247    6.0030   49.6025 C.3       5 GLC5        0.0000 
     68 CA         47.8558    3.4487   49.0235 C.3       5 GLC5        0.0000 
     69 CA         47.8740    5.3540   47.7860 C.3      15 GLL5        0.0000 
     70 CA         47.0823    5.1928   45.9665 C.3       5 GLC5        0.0000 
     71 CA         47.5190    4.0650   47.4780 C.3      15 GLL5        0.0000 
     72 CA         46.4680    5.6760   44.3010 C.3      10 GLP5        0.0000 
@<TRIPOS>BOND
@<TRIPOS>SUBSTRUCTURE
     1 ALC1       30 GROUP        1 X    ALC  0     ROOT ALC X 1
     2 SEC2        7 GROUP        1 X    SEC  0     **** SEC X 2
     3 LYC4        1 GROUP        1 X    LYC  0     **** LYC X 4
     4 ZIC7        4 GROUP        1 X    ZIC  0     **** ZIC X 5
     5 GLC5       33 GROUP        1 X    GLC  0     **** GLC X 6
     6 ALP1       32 GROUP        1 Y    ALP  0     ROOT ALP Y 8
     7 SEP2        9 GROUP        1 Y    SEP  0     **** SEP Y 9
     8 LYP4        3 GROUP        1 Y    LYP  0     **** LYP Y 11
     9 ZIP7        6 GROUP        1 Y    ZIP  0     **** ZIP Y 12
    10 GLP5       35 GROUP        1 Y    GLP  0     **** GLP Y 13
    11 ALL1       31 GROUP        1 Z    ALL  0     ROOT ALL Z 15
    12 SEL2        8 GROUP        1 Z    SEL  0     **** SEL Z 16
    13 LYL4        2 GROUP        1 Z    LYL  0     **** LYL Z 18
    14 ZIL7        5 GROUP        1 Z    ZIL  0     **** ZIL Z 19
    15 GLL5       34 GROUP        1 Z    GLL  0     **** GLL Z 20
@<TRIPOS>SET

