#    Name: 2phk_ATP_1_ligand
#    Modification time : Mon Mar 24 18:59:55 2014

@<TRIPOS>MOLECULE
2phk_ATP_1_ligand
   43    45     1     0     0
SMALL
NO_CHARGES


@<TRIPOS>ATOM
      1 PG         46.7000   16.2740   49.3250 P.3       1 ATP381      0.0000 
      2 O1G        47.7420   17.2580   49.7270 O.co2     1 ATP381      0.0000 
      3 O2G        46.6360   16.1770   47.8570 O.co2     1 ATP381      0.0000 
      4 O3G        45.3850   16.7560   49.8270 O.co2     1 ATP381      0.0000 
      5 PB         46.2180   14.0120   51.0850 P.3       1 ATP381      0.0000 
      6 O1B        46.5650   14.3450   52.4730 O.co2     1 ATP381      0.0000 
      7 O2B        44.7460   14.0580   50.8830 O.co2     1 ATP381      0.0000 
      8 O3B        47.0070   14.8480   49.9820 O.3       1 ATP381      0.0000 
      9 PA         46.3550   11.5640   49.4900 P.3       1 ATP381      0.0000 
     10 O1A        45.1010   10.8060   49.6950 O.co2     1 ATP381      0.0000 
     11 O2A        46.3200   12.2290   48.1720 O.co2     1 ATP381      0.0000 
     12 O3A        46.7200   12.5370   50.7040 O.3       1 ATP381      0.0000 
     13 O5'        47.5970   10.5480   49.5410 O.3       1 ATP381      0.0000 
     14 C5'        48.9330   11.0860   49.5400 C.3       1 ATP381      0.0000 
     15 C4'        49.8820   10.3670   48.6080 C.3       1 ATP381      0.0000 
     16 O4'        50.1120    9.0170   49.0170 O.3       1 ATP381      0.0000 
     17 C3'        49.5220   10.3530   47.1400 C.3       1 ATP381      0.0000 
     18 O3'        49.9950   11.5490   46.4820 O.3       1 ATP381      0.0000 
     19 C2'        50.1410    9.0200   46.6700 C.3       1 ATP381      0.0000 
     20 O2'        51.4820    9.2180   46.1670 O.3       1 ATP381      0.0000 
     21 C1'        50.1750    8.1590   47.9340 C.3       1 ATP381      0.0000 
     22 N9         49.1820    7.1100   48.0250 N.pl3     1 ATP381      0.0000 
     23 C8         47.8790    7.2880   48.3450 C.2       1 ATP381      0.0000 
     24 N7         47.0790    6.2980   48.2200 N.2       1 ATP381      0.0000 
     25 C5         47.8740    5.3540   47.7860 C.ar      1 ATP381      0.0000 
     26 C6         47.5190    4.0650   47.4780 C.ar      1 ATP381      0.0000 
     27 N6         46.2930    3.5610   47.5750 N.pl3     1 ATP381      0.0000 
     28 N1         48.5240    3.2780   47.0430 N.ar      1 ATP381      0.0000 
     29 C2         49.7950    3.8120   46.9450 C.ar      1 ATP381      0.0000 
     30 N3         50.2070    5.0220   47.2120 N.ar      1 ATP381      0.0000 
     31 C4         49.1810    5.7760   47.6420 C.ar      1 ATP381      0.0000 
     32 H          49.3707   11.0551   50.5637 H         1 ATP381      0.0000 
     33 H          48.9238   12.1624   49.2544 H         1 ATP381      0.0000 
     34 H          50.8753   10.9034   48.6760 H         1 ATP381      0.0000 
     35 H          48.4476   10.2403   47.0862 H         1 ATP381      0.0000 
     36 H          49.4886    8.5739   45.9739 H         1 ATP381      0.0000 
     37 H          51.1967    7.6809   47.9305 H         1 ATP381      0.0000 
     38 H          47.5688    8.2255   48.6830 H         1 ATP381      0.0000 
     39 H          45.5768    4.1978   47.8604 H         1 ATP381      0.0000 
     40 H          46.1975    2.5904   47.3539 H         1 ATP381      0.0000 
     41 H          50.5541    3.0879   46.5859 H         1 ATP381      0.0000 
     42 H          49.4066   11.6529   45.6801 H         1 ATP381      0.0000 
     43 H          51.5948   10.2102   46.1149 H         1 ATP381      0.0000 
@<TRIPOS>BOND
     1    2    1 ar   
     2    3    1 ar   
     3    4    1 ar   
     4    8    1 1    
     5    6    5 ar   
     6    7    5 ar   
     7    8    5 1    
     8   12    5 1    
     9   10    9 ar   
    10   11    9 ar   
    11   12    9 1    
    12   13    9 1    
    13   14   13 1    
    14   15   14 1    
    15   32   14 1    
    16   33   14 1    
    17   16   15 1    
    18   17   15 1    
    19   34   15 1    
    20   21   16 1    
    21   18   17 1    
    22   19   17 1    
    23   35   17 1    
    24   42   18 1    
    25   20   19 1    
    26   21   19 1    
    27   36   19 1    
    28   43   20 1    
    29   22   21 1    
    30   37   21 1    
    31   23   22 1    
    32   31   22 1    
    33   24   23 2    
    34   38   23 1    
    35   25   24 1    
    36   26   25 ar   
    37   31   25 ar   
    38   27   26 1    
    39   28   26 ar   
    40   39   27 1    
    41   40   27 1    
    42   29   28 ar   
    43   30   29 ar   
    44   41   29 1    
    45   31   30 ar   
@<TRIPOS>SUBSTRUCTURE
     1 ATP381      1 GROUP   
@<TRIPOS>SET

