#    Name: 3akk_ADP_2_INTS_M
#    Modification time : Tue Mar 25 12:02:37 2014

@<TRIPOS>MOLECULE
3akk_ADP_2_INTS_M
   65     0    15     0     0
SMALL
NO_CHARGES


@<TRIPOS>ATOM
      1 NZ        -18.2085   22.4105   21.3800 N.4       3 LYC4        0.0000 
      2 NZ        -16.5160   21.6680   20.6650 N.4      13 LYL4        0.0000 
      3 NZ        -19.9010   23.1530   22.0950 N.4       8 LYP4        0.0000 
      4 N         -15.8965   20.0635   20.5605 N.am      2 SEC2        0.0000 
      5 N         -16.5160   21.6680   20.6650 N.am     12 SEL2        0.0000 
      6 N         -15.2770   18.4590   20.4560 N.am      7 SEP2        0.0000 
      7 NZ        -17.3210   22.6215   17.2285 N.4       3 LYC4        0.0000 
      8 NZ        -16.8590   21.9690   18.1960 N.4      13 LYL4        0.0000 
      9 NZ        -17.7830   23.2740   16.2610 N.4       8 LYP4        0.0000 
     10 N         -16.3585   20.9085   17.3080 N.am      2 SEC2        0.0000 
     11 N         -16.8590   21.9690   18.1960 N.am     12 SEL2        0.0000 
     12 N         -15.8580   19.8480   16.4200 N.am      7 SEP2        0.0000 
     13 N         -17.3210   22.6215   17.2285 N.am      2 SEC2        0.0000 
     14 N         -17.7830   23.2740   16.2610 N.am      7 SEP2        0.0000 
     15 Zn        -14.1380   23.1140   20.3210 Zn        4 ZIC7        0.0000 
     16 Zn        -14.8330   22.9780   19.3380 Zn       14 ZIL7        0.0000 
     17 Zn        -13.4430   23.2500   21.3040 Zn        9 ZIP7        0.0000 
     18 NZ        -18.9405   24.0090   21.9475 N.4       3 LYC4        0.0000 
     19 NZ        -17.9800   24.8650   21.8000 N.4      13 LYL4        0.0000 
     20 N         -18.9405   24.0090   21.9475 N.am      2 SEC2        0.0000 
     21 N         -17.9800   24.8650   21.8000 N.am     12 SEL2        0.0000 
     22 N         -19.9010   23.1530   22.0950 N.am      7 SEP2        0.0000 
     23 Zn        -14.4185   24.0550   21.2915 Zn        4 ZIC7        0.0000 
     24 Zn        -15.3940   24.8600   21.2790 Zn       14 ZIL7        0.0000 
     25 CA        -15.1485   25.2055   17.5305 C.3       5 GLC5        0.0000 
     26 CA        -16.3760   26.4850   18.7570 C.3      15 GLL5        0.0000 
     27 CA        -13.9210   23.9260   16.3040 C.3      10 GLP5        0.0000 
     28 CA        -17.7130   25.2105   17.6700 C.3       5 GLC5        0.0000 
     29 CA        -19.0500   23.9360   16.5830 C.3      10 GLP5        0.0000 
     30 CA        -18.2705   27.5240   18.9395 C.3       5 GLC5        0.0000 
     31 CA        -20.1650   28.5630   19.1220 C.3      10 GLP5        0.0000 
     32 CA        -17.0120   28.4860   17.0990 C.3       5 GLC5        0.0000 
     33 CA        -15.6580   27.8180   18.6580 C.3      15 GLL5        0.0000 
     34 CA        -18.3660   29.1540   15.5400 C.3      10 GLP5        0.0000 
     35 CA        -14.9990   27.5700   16.6715 C.3       5 GLC5        0.0000 
     36 CA        -14.3400   27.3220   14.6850 C.3      10 GLP5        0.0000 
     37 CA        -17.6675   30.5560   18.1470 C.3       5 GLC5        0.0000 
     38 CA        -16.2350   29.9560   19.4450 C.3      15 GLL5        0.0000 
     39 CA        -19.1000   31.1560   16.8490 C.3      10 GLP5        0.0000 
     40 CA        -18.2000   29.2595   19.2835 C.3       5 GLC5        0.0000 
     41 CA        -21.2490   33.2910   22.0440 C.3       5 GLC5        0.0000 
     42 CA        -19.7330   31.8210   22.5340 C.3      15 GLL5        0.0000 
     43 CA        -22.7650   34.7610   21.5540 C.3      10 GLP5        0.0000 
     44 O         -20.6105   30.2720   24.3005 O.2       1 ALC1        0.0000 
     45 O         -20.5400   31.5430   23.5730 O.2      11 ALL1        0.0000 
     46 O         -20.6810   29.0010   25.0280 O.2       6 ALP1        0.0000 
     47 O         -21.7480   32.4750   23.7780 O.2       1 ALC1        0.0000 
     48 O         -22.9560   33.4070   23.9830 O.2       6 ALP1        0.0000 
     49 N         -20.3615   34.4005   22.4190 N.am      2 SEC2        0.0000 
     50 N         -19.7270   33.0470   21.9650 N.am     12 SEL2        0.0000 
     51 N         -20.9960   35.7540   22.8730 N.am      7 SEP2        0.0000 
     52 CA        -20.8435   34.0430   21.2360 C.3       5 GLC5        0.0000 
     53 CA        -18.9220   33.3250   20.9180 C.3      15 GLL5        0.0000 
     54 CA        -17.6335   34.8835   20.9010 C.3       5 GLC5        0.0000 
     55 CA        -16.3450   36.4420   20.8840 C.3      10 GLP5        0.0000 
     56 CA        -19.0660   29.8675   19.9855 C.3       5 GLC5        0.0000 
     57 CA        -17.9670   31.1720   20.8490 C.3      15 GLL5        0.0000 
     58 CA        -14.5705   28.5767   21.8500 C.3       5 GLC5        0.0000 
     59 CA        -14.8700   29.6010   20.0220 C.3      15 GLL5        0.0000 
     60 CA        -14.3180   28.3020   23.7600 C.3      10 GLP5        0.0000 
     61 CA        -14.5273   31.0682   20.7443 C.3       5 GLC5        0.0000 
     62 CA        -13.5020   32.3580   21.7550 C.3      10 GLP5        0.0000 
     63 CA        -20.0665   29.6112   21.4537 C.3       5 GLC5        0.0000 
     64 CA        -18.8210   30.7900   21.9890 C.3      15 GLL5        0.0000 
     65 CA        -20.8560   27.9170   20.6460 C.3      10 GLP5        0.0000 
@<TRIPOS>BOND
@<TRIPOS>SUBSTRUCTURE
     1 ALC1       44 GROUP        1 X    ALC  0     ROOT ALC X 1
     2 SEC2        4 GROUP        1 X    SEC  0     **** SEC X 2
     3 LYC4        1 GROUP        1 X    LYC  0     **** LYC X 4
     4 ZIC7       15 GROUP        1 X    ZIC  0     **** ZIC X 5
     5 GLC5       25 GROUP        1 X    GLC  0     **** GLC X 6
     6 ALP1       46 GROUP        1 Y    ALP  0     ROOT ALP Y 8
     7 SEP2        6 GROUP        1 Y    SEP  0     **** SEP Y 9
     8 LYP4        3 GROUP        1 Y    LYP  0     **** LYP Y 11
     9 ZIP7       17 GROUP        1 Y    ZIP  0     **** ZIP Y 12
    10 GLP5       27 GROUP        1 Y    GLP  0     **** GLP Y 13
    11 ALL1       45 GROUP        1 Z    ALL  0     ROOT ALL Z 15
    12 SEL2        5 GROUP        1 Z    SEL  0     **** SEL Z 16
    13 LYL4        2 GROUP        1 Z    LYL  0     **** LYL Z 18
    14 ZIL7       16 GROUP        1 Z    ZIL  0     **** ZIL Z 19
    15 GLL5       26 GROUP        1 Z    GLL  0     **** GLL Z 20
@<TRIPOS>SET

