#    Name: 3akk_ADP_2_ligand
#    Modification time : Tue Mar 25 12:02:37 2014

@<TRIPOS>MOLECULE
3akk_ADP_2_ligand
   39    41     1     0     0
SMALL
NO_CHARGES


@<TRIPOS>ATOM
      1 PB        -16.2610   22.5380   19.4600 P.3       1 ADP500      0.0000 
      2 O1B       -16.5160   21.6680   20.6650 O.co2     1 ADP500      0.0000 
      3 O2B       -16.8590   21.9690   18.1960 O.co2     1 ADP500      0.0000 
      4 O3B       -14.8330   22.9780   19.3380 O.co2     1 ADP500      0.0000 
      5 PA        -16.8330   24.9680   20.8210 P.3       1 ADP500      0.0000 
      6 O1A       -17.9800   24.8650   21.8000 O.co2     1 ADP500      0.0000 
      7 O2A       -15.3940   24.8600   21.2790 O.co2     1 ADP500      0.0000 
      8 O3A       -17.0880   23.9000   19.6510 O.3       1 ADP500      0.0000 
      9 O5'       -17.0600   26.3300   19.9990 O.3       1 ADP500      0.0000 
     10 C5'       -16.3760   26.4850   18.7570 C.3       1 ADP500      0.0000 
     11 C4'       -15.6580   27.8180   18.6580 C.3       1 ADP500      0.0000 
     12 O4'       -16.6100   28.8800   18.5790 O.3       1 ADP500      0.0000 
     13 C3'       -14.7760   28.1020   19.8580 C.3       1 ADP500      0.0000 
     14 O3'       -13.4150   27.7640   19.6250 O.3       1 ADP500      0.0000 
     15 C2'       -14.8700   29.6010   20.0220 C.3       1 ADP500      0.0000 
     16 O2'       -13.8210   30.2280   19.2630 O.3       1 ADP500      0.0000 
     17 C1'       -16.2350   29.9560   19.4450 C.3       1 ADP500      0.0000 
     18 N9        -17.2470   30.0770   20.5390 N.pl3     1 ADP500      0.0000 
     19 C8        -17.5960   29.0860   21.3920 C.2       1 ADP500      0.0000 
     20 N7        -18.5370   29.5040   22.2730 N.2       1 ADP500      0.0000 
     21 C5        -18.8210   30.7900   21.9890 C.ar      1 ADP500      0.0000 
     22 C6        -19.7330   31.8210   22.5340 C.ar      1 ADP500      0.0000 
     23 N6        -20.5400   31.5430   23.5730 N.pl3     1 ADP500      0.0000 
     24 N1        -19.7270   33.0470   21.9650 N.ar      1 ADP500      0.0000 
     25 C2        -18.9220   33.3250   20.9180 C.ar      1 ADP500      0.0000 
     26 N3        -18.0680   32.4410   20.3610 N.ar      1 ADP500      0.0000 
     27 C4        -17.9670   31.1720   20.8490 C.ar      1 ADP500      0.0000 
     28 H         -17.0751   26.4144   17.9002 H         1 ADP500      0.0000 
     29 H         -15.6237   25.6852   18.6086 H         1 ADP500      0.0000 
     30 H         -15.0319   27.8134   17.7737 H         1 ADP500      0.0000 
     31 H         -15.1921   27.6466   20.7131 H         1 ADP500      0.0000 
     32 H         -14.8532   29.8403   21.0438 H         1 ADP500      0.0000 
     33 H         -16.1540   30.8727   18.9138 H         1 ADP500      0.0000 
     34 H         -17.2167   28.1801   21.3755 H         1 ADP500      0.0000 
     35 H         -20.4597   30.6240   23.9589 H         1 ADP500      0.0000 
     36 H         -21.1484   32.2801   23.8671 H         1 ADP500      0.0000 
     37 H         -18.9637   34.3113   20.5023 H         1 ADP500      0.0000 
     38 H         -13.2386   26.9779   20.2174 H         1 ADP500      0.0000 
     39 H         -13.0379   29.6116   19.3457 H         1 ADP500      0.0000 
@<TRIPOS>BOND
     1    2    1 ar   
     2    3    1 ar   
     3    4    1 ar   
     4    8    1 1    
     5    6    5 ar   
     6    7    5 ar   
     7    8    5 1    
     8    9    5 1    
     9   10    9 1    
    10   11   10 1    
    11   28   10 1    
    12   29   10 1    
    13   12   11 1    
    14   13   11 1    
    15   30   11 1    
    16   17   12 1    
    17   14   13 1    
    18   15   13 1    
    19   31   13 1    
    20   38   14 1    
    21   16   15 1    
    22   17   15 1    
    23   32   15 1    
    24   39   16 1    
    25   18   17 1    
    26   33   17 1    
    27   19   18 1    
    28   27   18 1    
    29   20   19 2    
    30   34   19 1    
    31   21   20 1    
    32   22   21 ar   
    33   27   21 ar   
    34   23   22 1    
    35   24   22 ar   
    36   35   23 1    
    37   36   23 1    
    38   25   24 ar   
    39   26   25 ar   
    40   37   25 1    
    41   27   26 ar   
@<TRIPOS>SUBSTRUCTURE
     1 ADP500      1 GROUP   
@<TRIPOS>SET

