#    Name: 4dt8_ADN_2_INTS_M
#    Modification time : Tue Mar 25 10:11:09 2014

@<TRIPOS>MOLECULE
4dt8_ADN_2_INTS_M
   33     0     9     0     0
SMALL
NO_CHARGES


@<TRIPOS>ATOM
      1 CA          9.7860  -48.5880    9.8845 C.3       3 GLC5        0.0000 
      2 CA          9.4400  -46.5780    8.9910 C.3       9 GLL5        0.0000 
      3 CA         10.1320  -50.5980   10.7780 C.3       6 GLP5        0.0000 
      4 CA          8.4255  -48.2450    7.9270 C.3       3 GLC5        0.0000 
      5 CA          7.4110  -49.9120    6.8630 C.3       6 GLP5        0.0000 
      6 O           8.2280  -47.8625   10.8945 O.2       1 ALC1        0.0000 
      7 O           8.4750  -46.4750    9.9640 O.2       7 ALL1        0.0000 
      8 O           7.9810  -49.2500   11.8250 O.2       4 ALP1        0.0000 
      9 N           9.3215  -49.1090    8.4410 N.am      2 SEC2        0.0000 
     10 N           9.6090  -47.7080    8.2700 N.am      8 SEL2        0.0000 
     11 N           9.0340  -50.5100    8.6120 N.am      5 SEP2        0.0000 
     12 CA         11.5825  -47.5380    9.2070 C.3       3 GLC5        0.0000 
     13 CA         10.6280  -47.7820    7.3090 C.3       9 GLL5        0.0000 
     14 CA         12.5370  -47.2940   11.1050 C.3       6 GLP5        0.0000 
     15 CA         11.4025  -49.4145    8.3205 C.3       3 GLC5        0.0000 
     16 CA         12.1770  -51.0470    9.3320 C.3       6 GLP5        0.0000 
     17 CA          9.0195  -48.8470    7.0860 C.3       3 GLC5        0.0000 
     18 CA          9.5925  -47.7465    5.6365 C.3       3 GLC5        0.0000 
     19 CA          8.5570  -47.7110    3.9640 C.3       6 GLP5        0.0000 
     20 CA         10.1950  -44.4825    6.4280 C.3       3 GLC5        0.0000 
     21 CA         11.2480  -45.6020    7.8200 C.3       9 GLL5        0.0000 
     22 CA          9.1420  -43.3630    5.0360 C.3       6 GLP5        0.0000 
     23 CA         15.6543  -41.3833    7.4028 C.3       3 GLC5        0.0000 
     24 CA         13.8140  -41.9560    6.8740 C.3       9 GLL5        0.0000 
     25 CA         17.6370  -41.4650    7.4770 C.3       6 GLP5        0.0000 
     26 CA         14.3477  -41.5778    9.1952 C.3       3 GLC5        0.0000 
     27 CA         15.0240  -41.8540   11.0620 C.3       6 GLP5        0.0000 
     28 CA         11.0097  -43.5038    5.6493 C.3       3 GLC5        0.0000 
     29 CA         12.6600  -42.2000    5.8370 C.3       9 GLL5        0.0000 
     30 CA          8.3520  -45.5615    7.5655 C.3       3 GLC5        0.0000 
     31 CA         10.2580  -45.5200    8.7510 C.3       9 GLL5        0.0000 
     32 CA          6.8550  -45.0740    6.2600 C.3       6 GLP5        0.0000 
     33 CA         11.5428  -46.5597    9.7252 C.3       3 GLC5        0.0000 
@<TRIPOS>BOND
@<TRIPOS>SUBSTRUCTURE
     1 ALC1        6 GROUP        1 X    ALC  0     ROOT ALC X 1
     2 SEC2        9 GROUP        1 X    SEC  0     **** SEC X 2
     3 GLC5        1 GROUP        1 X    GLC  0     **** GLC X 6
     4 ALP1        8 GROUP        1 Y    ALP  0     ROOT ALP Y 8
     5 SEP2       11 GROUP        1 Y    SEP  0     **** SEP Y 9
     6 GLP5        3 GROUP        1 Y    GLP  0     **** GLP Y 13
     7 ALL1        7 GROUP        1 Z    ALL  0     ROOT ALL Z 15
     8 SEL2       10 GROUP        1 Z    SEL  0     **** SEL Z 16
     9 GLL5        2 GROUP        1 Z    GLL  0     **** GLL Z 20
@<TRIPOS>SET

