#    Name: 4dt8_ADN_2_ligand
#    Modification time : Tue Mar 25 10:11:09 2014

@<TRIPOS>MOLECULE
4dt8_ADN_2_ligand
   32    34     1     0     0
SMALL
NO_CHARGES


@<TRIPOS>ATOM
      1 O5'        12.1230  -40.2850    8.1150 O.3       1 ADN401      0.0000 
      2 C5'        13.5290  -40.6470    7.7830 C.3       1 ADN401      0.0000 
      3 C4'        13.8140  -41.9560    6.8740 C.3       1 ADN401      0.0000 
      4 O4'        14.1650  -43.3710    7.3910 O.3       1 ADN401      0.0000 
      5 C3'        12.6600  -42.2000    5.8370 C.3       1 ADN401      0.0000 
      6 O3'        12.7700  -41.2840    4.7100 O.3       1 ADN401      0.0000 
      7 C2'        12.6680  -43.7920    5.5110 C.3       1 ADN401      0.0000 
      8 O2'        13.6170  -44.3160    4.5330 O.3       1 ADN401      0.0000 
      9 C1'        13.0910  -44.2930    6.8510 C.3       1 ADN401      0.0000 
     10 N9         11.9030  -44.4480    7.8010 N.pl3     1 ADN401      0.0000 
     11 C8         11.3420  -43.6300    8.7090 C.2       1 ADN401      0.0000 
     12 N7         10.3240  -44.2880    9.2980 N.2       1 ADN401      0.0000 
     13 C5         10.2580  -45.5200    8.7510 C.ar      1 ADN401      0.0000 
     14 C6          9.4400  -46.5780    8.9910 C.ar      1 ADN401      0.0000 
     15 N6          8.4750  -46.4750    9.9640 N.pl3     1 ADN401      0.0000 
     16 N1          9.6090  -47.7080    8.2700 N.ar      1 ADN401      0.0000 
     17 C2         10.6280  -47.7820    7.3090 C.ar      1 ADN401      0.0000 
     18 N3         11.4700  -46.6930    7.0730 N.ar      1 ADN401      0.0000 
     19 C4         11.2480  -45.6020    7.8200 C.ar      1 ADN401      0.0000 
     20 H          14.1292  -40.7943    8.7196 H         1 ADN401      0.0000 
     21 H          14.0404  -39.7979    7.2569 H         1 ADN401      0.0000 
     22 H          14.6860  -41.6603    6.1734 H         1 ADN401      0.0000 
     23 H          11.7280  -42.0304    6.4057 H         1 ADN401      0.0000 
     24 H          11.6650  -44.0782    5.3626 H         1 ADN401      0.0000 
     25 H          13.5461  -45.2850    6.7121 H         1 ADN401      0.0000 
     26 H          11.6196  -42.7262    8.9064 H         1 ADN401      0.0000 
     27 H           8.4100  -45.5913   10.4275 H         1 ADN401      0.0000 
     28 H           7.9220  -47.2928   10.1236 H         1 ADN401      0.0000 
     29 H          10.7550  -48.6527    6.7713 H         1 ADN401      0.0000 
     30 H          11.6597  -40.2104    7.2320 H         1 ADN401      0.0000 
     31 H          11.9386  -40.7295    4.7453 H         1 ADN401      0.0000 
     32 H          14.4925  -43.8954    4.7710 H         1 ADN401      0.0000 
@<TRIPOS>BOND
     1    2    1 1    
     2   30    1 1    
     3    3    2 1    
     4   20    2 1    
     5   21    2 1    
     6    4    3 1    
     7    5    3 1    
     8   22    3 1    
     9    9    4 1    
    10    6    5 1    
    11    7    5 1    
    12   23    5 1    
    13   31    6 1    
    14    8    7 1    
    15    9    7 1    
    16   24    7 1    
    17   32    8 1    
    18   10    9 1    
    19   25    9 1    
    20   11   10 1    
    21   19   10 1    
    22   12   11 2    
    23   26   11 1    
    24   13   12 1    
    25   14   13 ar   
    26   19   13 ar   
    27   15   14 1    
    28   16   14 ar   
    29   27   15 1    
    30   28   15 1    
    31   17   16 ar   
    32   18   17 ar   
    33   29   17 1    
    34   19   18 ar   
@<TRIPOS>SUBSTRUCTURE
     1 ADN401      1 GROUP   
@<TRIPOS>SET

