#    Name: 1sez_OMN_2_INTS_M
#    Modification time : Tue Mar 25 02:25:07 2014

@<TRIPOS>MOLECULE
1sez_OMN_2_INTS_M
   76     0     6     0     0
SMALL
NO_CHARGES


@<TRIPOS>ATOM
      1 CA        -48.5010   39.0600   64.9085 C.3       2 GLC5        0.0000 
      2 CA        -49.4230   37.5170   63.8760 C.3       6 GLL5        0.0000 
      3 CA        -47.5790   40.6030   65.9410 C.3       4 GLP5        0.0000 
      4 CA        -51.3965   37.6340   63.5930 C.3       2 GLC5        0.0000 
      5 CA        -53.3700   37.7510   63.3100 C.3       4 GLP5        0.0000 
      6 CA        -50.0960   39.1640   63.3855 C.3       2 GLC5        0.0000 
      7 CA        -50.7690   40.8110   62.8950 C.3       4 GLP5        0.0000 
      8 CA        -45.8750   33.1365   67.0400 C.3       2 GLC5        0.0000 
      9 CA        -46.9260   34.6300   67.8010 C.3       6 GLL5        0.0000 
     10 CA        -44.8240   31.6430   66.2790 C.3       4 GLP5        0.0000 
     11 CA        -47.6120   34.7730   69.5340 C.3       2 GLC5        0.0000 
     12 CA        -48.2980   34.9160   71.2670 C.3       4 GLP5        0.0000 
     13 CA        -45.4690   34.7085   68.9250 C.3       2 GLC5        0.0000 
     14 CA        -44.0120   34.7870   70.0490 C.3       4 GLP5        0.0000 
     15 CA        -46.4870   36.7315   67.6015 C.3       2 GLC5        0.0000 
     16 CA        -46.0480   38.8330   67.4020 C.3       4 GLP5        0.0000 
     17 CA        -48.4940   34.2410   65.4205 C.3       2 GLC5        0.0000 
     18 CA        -48.5500   36.2740   65.9340 C.3       6 GLL5        0.0000 
     19 CA        -48.4380   32.2080   64.9070 C.3       4 GLP5        0.0000 
     20 CA        -49.6290   33.9640   65.6020 C.3       2 GLC5        0.0000 
     21 CA        -50.8200   35.7200   66.2970 C.3       6 GLL5        0.0000 
     22 CA        -52.4665   34.9430   65.5175 C.3       2 GLC5        0.0000 
     23 CA        -54.1130   34.1660   64.7380 C.3       4 GLP5        0.0000 
     24 CA        -52.3130   36.8315   65.4520 C.3       2 GLC5        0.0000 
     25 CA        -53.8060   37.9430   64.6070 C.3       4 GLP5        0.0000 
     26 CA        -49.1140   38.9530   66.9905 C.3       2 GLC5        0.0000 
     27 CA        -50.2020   37.7680   66.8100 C.3       6 GLL5        0.0000 
     28 CA        -48.0260   40.1380   67.1710 C.3       4 GLP5        0.0000 
     29 CA        -52.0040   37.8555   65.7085 C.3       2 GLC5        0.0000 
     30 CA        -48.6865   37.4465   68.6835 C.3       2 GLC5        0.0000 
     31 CA        -49.6550   36.0900   68.1010 C.3       6 GLL5        0.0000 
     32 CA        -47.7180   38.8030   69.2660 C.3       4 GLP5        0.0000 
     33 N         -42.9115   31.0820   61.0370 N.am      1 SEC2        0.0000 
     34 N         -43.9050   31.7210   61.9750 N.am      5 SEL2        0.0000 
     35 N         -41.9180   30.4430   60.0990 N.am      3 SEP2        0.0000 
     36 CA        -40.6075   31.5125   62.7560 C.3       2 GLC5        0.0000 
     37 CA        -41.2550   33.0300   63.9700 C.3       6 GLL5        0.0000 
     38 CA        -39.9600   29.9950   61.5420 C.3       4 GLP5        0.0000 
     39 CA        -39.8270   33.7480   64.6100 C.3       2 GLC5        0.0000 
     40 CA        -38.3990   34.4660   65.2500 C.3       4 GLP5        0.0000 
     41 CA        -40.4755   32.6735   66.0205 C.3       2 GLC5        0.0000 
     42 CA        -39.6960   32.3170   68.0710 C.3       4 GLP5        0.0000 
     43 CA        -42.5350   31.7845   65.1425 C.3       2 GLC5        0.0000 
     44 CA        -43.8150   30.5390   66.3150 C.3       4 GLP5        0.0000 
     45 CA        -41.6050   35.1520   63.5895 C.3       2 GLC5        0.0000 
     46 CA        -41.9550   37.2740   63.2090 C.3       4 GLP5        0.0000 
     47 CA        -42.9390   36.6175   67.8785 C.3       2 GLC5        0.0000 
     48 CA        -44.2280   35.7550   66.9040 C.3       6 GLL5        0.0000 
     49 CA        -41.6500   37.4800   68.8530 C.3       4 GLP5        0.0000 
     50 CA        -43.2585   37.1540   65.4380 C.3       2 GLC5        0.0000 
     51 CA        -42.2890   38.5530   63.9720 C.3       4 GLP5        0.0000 
     52 CA        -45.1380   37.2940   67.1530 C.3       2 GLC5        0.0000 
     53 CA        -47.7925   33.6490   65.9660 C.3       2 GLC5        0.0000 
     54 CA        -47.3680   35.5500   66.2490 C.3       6 GLL5        0.0000 
     55 CA        -50.1575   36.1118   69.2712 C.3       2 GLC5        0.0000 
     56 CA        -49.8270   36.4750   66.8140 C.3       6 GLL5        0.0000 
     57 CA        -50.5740   35.9410   71.0850 C.3       4 GLP5        0.0000 
     58 CA        -48.1920   37.6098   67.5216 C.3       2 GLC5        0.0000 
     59 CA        -51.4061   34.9639   67.8041 C.3       2 GLC5        0.0000 
     60 CA        -52.8230   33.8340   68.2800 C.3       4 GLP5        0.0000 
     61 CA        -51.1954   37.5562   68.0099 C.3       2 GLC5        0.0000 
     62 CA        -52.4320   38.6010   68.6280 C.3       4 GLP5        0.0000 
     63 CA        -46.8068   33.4350   64.5765 C.3       2 GLC5        0.0000 
     64 CA        -45.2560   35.0180   64.8540 C.3       6 GLL5        0.0000 
     65 CA        -44.9997   33.1525   65.2625 C.3       2 GLC5        0.0000 
     66 CA        -45.0950   34.3060   63.6380 C.3       6 GLL5        0.0000 
     67 CA        -43.5652   35.9680   63.7275 C.3       2 GLC5        0.0000 
     68 CA        -44.0790   32.6822   65.0260 C.3       2 GLC5        0.0000 
     69 CA        -43.8740   33.6750   63.3080 C.3       6 GLL5        0.0000 
     70 CA        -42.6445   35.4977   63.4910 C.3       2 GLC5        0.0000 
     71 CA        -42.7940   33.7680   64.2380 C.3       6 GLL5        0.0000 
     72 CA        -42.7498   36.0322   64.4050 C.3       2 GLC5        0.0000 
     73 CA        -42.9410   34.4760   65.4400 C.3       6 GLL5        0.0000 
     74 CA        -44.1000   35.1085   68.1910 C.3       2 GLC5        0.0000 
     75 CA        -44.1480   35.1050   65.7620 C.3       6 GLL5        0.0000 
     76 CA        -44.3551   33.4579   66.2657 C.3       2 GLC5        0.0000 
@<TRIPOS>BOND
@<TRIPOS>SUBSTRUCTURE
     1 SEC2       33 GROUP        1 X    SEC  0     ROOT SEC X 2
     2 GLC5        1 GROUP        1 X    GLC  0     **** GLC X 6
     3 SEP2       35 GROUP        1 Y    SEP  0     ROOT SEP Y 9
     4 GLP5        3 GROUP        1 Y    GLP  0     **** GLP Y 13
     5 SEL2       34 GROUP        1 Z    SEL  0     ROOT SEL Z 16
     6 GLL5        2 GROUP        1 Z    GLL  0     **** GLL Z 20
@<TRIPOS>SET

