#    Name: 1sez_OMN_2_ligand
#    Modification time : Tue Mar 25 02:25:07 2014

@<TRIPOS>MOLECULE
1sez_OMN_2_ligand
   27    28     1     0     0
SMALL
NO_CHARGES


@<TRIPOS>ATOM
      1 C1        -49.4230   37.5170   63.8760 C.3       1 OMN604      0.0000 
      2 N1        -48.4320   36.8220   64.6580 N.pl3     1 OMN604      0.0000 
      3 N2        -47.2680   36.3870   64.1310 N.2       1 OMN604      0.0000 
      4 C2        -46.5880   35.6320   65.1160 C.2       1 OMN604      0.0000 
      5 C3        -47.3680   35.5500   66.2490 C.2       1 OMN604      0.0000 
      6 BR1       -46.9260   34.6300   67.8010 Br        1 OMN604      0.0000 
      7 C4        -48.5500   36.2740   65.9340 C.2       1 OMN604      0.0000 
      8 C5        -49.8270   36.4750   66.8140 C.3       1 OMN604      0.0000 
      9 F1        -50.8200   35.7200   66.2970 F         1 OMN604      0.0000 
     10 F2        -50.2020   37.7680   66.8100 F         1 OMN604      0.0000 
     11 F3        -49.6550   36.0900   68.1010 F         1 OMN604      0.0000 
     12 C6        -45.2560   35.0180   64.8540 C.ar      1 OMN604      0.0000 
     13 C7        -45.0950   34.3060   63.6380 C.ar      1 OMN604      0.0000 
     14 C8        -43.8740   33.6750   63.3080 C.ar      1 OMN604      0.0000 
     15 C9        -43.7770   32.9300   61.9890 C.2       1 OMN604      0.0000 
     16 O1        -43.5550   33.5780   60.8510 O.co2     1 OMN604      0.0000 
     17 O2        -43.9050   31.7210   61.9750 O.co2     1 OMN604      0.0000 
     18 C10       -42.7940   33.7680   64.2380 C.ar      1 OMN604      0.0000 
     19 CL1       -41.2550   33.0300   63.9700 Cl        1 OMN604      0.0000 
     20 C11       -42.9410   34.4760   65.4400 C.ar      1 OMN604      0.0000 
     21 C12       -44.1480   35.1050   65.7620 C.ar      1 OMN604      0.0000 
     22 F4        -44.2280   35.7550   66.9040 F         1 OMN604      0.0000 
     23 H         -45.8873   34.2486   62.9816 H         1 OMN604      0.0000 
     24 H         -42.1459   34.5326   66.0951 H         1 OMN604      0.0000 
     25 H         -49.0604   38.3621   63.4832 H         1 OMN604      0.0000 
     26 H         -49.7543   36.9588   63.1153 H         1 OMN604      0.0000 
     27 H         -50.2205   37.7674   64.4249 H         1 OMN604      0.0000 
@<TRIPOS>BOND
     1    2    1 1    
     2   25    1 1    
     3   26    1 1    
     4   27    1 1    
     5    3    2 1    
     6    7    2 1    
     7    4    3 2    
     8    5    4 1    
     9   12    4 1    
    10    6    5 1    
    11    7    5 2    
    12    8    7 1    
    13    9    8 1    
    14   10    8 1    
    15   11    8 1    
    16   13   12 ar   
    17   21   12 ar   
    18   14   13 ar   
    19   23   13 1    
    20   15   14 1    
    21   18   14 ar   
    22   16   15 ar   
    23   17   15 ar   
    24   19   18 1    
    25   20   18 ar   
    26   21   20 ar   
    27   24   20 1    
    28   22   21 1    
@<TRIPOS>SUBSTRUCTURE
     1 OMN604      1 GROUP   
@<TRIPOS>SET

