#    Name: 3mel_TPP_2_INTS_M
#    Modification time : Mon Mar 24 23:09:00 2014

@<TRIPOS>MOLECULE
3mel_TPP_2_INTS_M
   49     0    12     0     0
SMALL
NO_CHARGES


@<TRIPOS>ATOM
      1 CA         -1.0325   14.4530   62.0610 C.3       4 GLC5        0.0000 
      2 CA          0.1610   13.4770   60.9080 C.3      12 GLL5        0.0000 
      3 CA         -2.2260   15.4290   63.2140 C.3       8 GLP5        0.0000 
      4 CA          0.4830   12.9215   58.8570 C.3       4 GLC5        0.0000 
      5 CA          0.8050   12.3660   56.8060 C.3       8 GLP5        0.0000 
      6 CA          1.1085   15.6660   59.3500 C.3       4 GLC5        0.0000 
      7 CA          1.5010   13.9060   60.2950 C.3      12 GLL5        0.0000 
      8 CA          0.7160   17.4260   58.4050 C.3       8 GLP5        0.0000 
      9 CA          3.0810   14.7440   60.6600 C.3       4 GLC5        0.0000 
     10 CA          4.6610   15.5820   61.0250 C.3       8 GLP5        0.0000 
     11 CA          2.2040   13.0155   59.2460 C.3       4 GLC5        0.0000 
     12 CA          2.9070   12.1250   58.1970 C.3       8 GLP5        0.0000 
     13 O           0.6080   10.6385   64.7380 O.2       1 ALC1        0.0000 
     14 O          -0.6510   11.0570   63.6580 O.2       9 ALL1        0.0000 
     15 O           1.8670   10.2200   65.8180 O.2       5 ALP1        0.0000 
     16 CA         -3.3970   13.6145   59.7375 C.3       4 GLC5        0.0000 
     17 CA         -2.0630   12.4930   60.4360 C.3      12 GLL5        0.0000 
     18 CA         -4.7310   14.7360   59.0390 C.3       8 GLP5        0.0000 
     19 CA         -4.2485   12.1080   63.0480 C.3       4 GLC5        0.0000 
     20 CA         -3.1260   10.7530   62.0690 C.3      12 GLL5        0.0000 
     21 CA         -5.3710   13.4630   64.0270 C.3       8 GLP5        0.0000 
     22 CA         -4.5790   10.4685   60.6480 C.3       4 GLC5        0.0000 
     23 CA         -6.0320   10.1840   59.2270 C.3       8 GLP5        0.0000 
     24 CA         -0.2320    8.2240   63.6080 C.3       4 GLC5        0.0000 
     25 CA         -1.6930    8.7340   62.3870 C.3      12 GLL5        0.0000 
     26 CA          1.2290    7.7140   64.8290 C.3       8 GLP5        0.0000 
     27 CA         -2.2440    5.5150   60.7065 C.3       4 GLC5        0.0000 
     28 CA         -2.3330    7.1130   61.8750 C.3      12 GLL5        0.0000 
     29 CA         -2.1550    3.9170   59.5380 C.3       8 GLP5        0.0000 
     30 CA         -5.1365   11.1280   64.3155 C.3       4 GLC5        0.0000 
     31 CA         -5.2710    9.4700   63.4680 C.3      12 GLL5        0.0000 
     32 CA         -5.0020   12.7860   65.1630 C.3       8 GLP5        0.0000 
     33 CA         -3.8600    4.0260   61.8380 C.3       4 GLC5        0.0000 
     34 CA         -5.5990    5.4100   61.9890 C.3      12 GLL5        0.0000 
     35 CA         -2.1210    2.6420   61.6870 C.3       8 GLP5        0.0000 
     36 Zn         -8.1040    1.7745   63.3105 Zn        3 ZIC7        0.0000 
     37 Zn         -7.2740    2.0040   62.4780 Zn       11 ZIL7        0.0000 
     38 Zn         -8.9340    1.5450   64.1430 Zn        7 ZIP7        0.0000 
     39 N          -4.5995    1.2460   61.6975 N.am      2 SEC2        0.0000 
     40 N          -5.8140    1.7210   60.7740 N.am     10 SEL2        0.0000 
     41 N          -3.3850    0.7710   62.6210 N.am      6 SEP2        0.0000 
     42 N          -4.3865   -1.2885   58.7130 N.am      2 SEC2        0.0000 
     43 N          -5.1050    0.0990   58.9570 N.am     10 SEL2        0.0000 
     44 N          -3.6680   -2.6760   58.4690 N.am      6 SEP2        0.0000 
     45 CA         -1.9795   13.7670   62.2311 C.3       4 GLC5        0.0000 
     46 CA         -5.5821    8.8819   61.6266 C.3       4 GLC5        0.0000 
     47 CA         -6.5230    9.0050   60.0720 C.3       8 GLP5        0.0000 
     48 CA         -5.8515    7.4017   61.2893 C.3       4 GLC5        0.0000 
     49 CA         -4.7610    6.1870   63.0240 C.3      12 GLL5        0.0000 
@<TRIPOS>BOND
@<TRIPOS>SUBSTRUCTURE
     1 ALC1       13 GROUP        1 X    ALC  0     ROOT ALC X 1
     2 SEC2       39 GROUP        1 X    SEC  0     **** SEC X 2
     3 ZIC7       36 GROUP        1 X    ZIC  0     **** ZIC X 5
     4 GLC5        1 GROUP        1 X    GLC  0     **** GLC X 6
     5 ALP1       15 GROUP        1 Y    ALP  0     ROOT ALP Y 8
     6 SEP2       41 GROUP        1 Y    SEP  0     **** SEP Y 9
     7 ZIP7       38 GROUP        1 Y    ZIP  0     **** ZIP Y 12
     8 GLP5        3 GROUP        1 Y    GLP  0     **** GLP Y 13
     9 ALL1       14 GROUP        1 Z    ALL  0     ROOT ALL Z 15
    10 SEL2       40 GROUP        1 Z    SEL  0     **** SEL Z 16
    11 ZIL7       37 GROUP        1 Z    ZIL  0     **** ZIL Z 19
    12 GLL5        2 GROUP        1 Z    GLL  0     **** GLL Z 20
@<TRIPOS>SET

