#    Name: 3mel_TPP_2_ligand
#    Modification time : Mon Mar 24 23:09:00 2014

@<TRIPOS>MOLECULE
3mel_TPP_2_ligand
   42    43     1     0     0
SMALL
NO_CHARGES


@<TRIPOS>ATOM
      1 N1'        -0.8240   13.0540   59.8890 N.ar      1 TPP902      0.0000 
      2 C2'         0.1610   13.4770   60.9080 C.ar      1 TPP902      0.0000 
      3 CM2         1.5010   13.9060   60.2950 C.3       1 TPP902      0.0000 
      4 N3'         0.2610   12.5560   62.0320 N.ar      1 TPP902      0.0000 
      5 C4'        -0.9870   12.0490   62.6360 C.ar      1 TPP902      0.0000 
      6 N4'        -0.6510   11.0570   63.6580 N.pl3     1 TPP902      0.0000 
      7 C5'        -1.8190   11.3850   61.4850 C.ar      1 TPP902      0.0000 
      8 C6'        -2.0630   12.4930   60.4360 C.ar      1 TPP902      0.0000 
      9 C7'        -3.1260   10.7530   62.0690 C.3       1 TPP902      0.0000 
     10 N3         -2.8180    9.5420   62.8920 N.pl3     1 TPP902      0.0000 
     11 C2         -1.6930    8.7340   62.3870 C.2       1 TPP902      0.0000 
     12 S1         -2.3330    7.1130   61.8750 S.3       1 TPP902      0.0000 
     13 C5         -4.0490    7.4150   62.4440 C.2       1 TPP902      0.0000 
     14 C4         -3.9740    8.6800   63.3450 C.2       1 TPP902      0.0000 
     15 CM4        -5.2710    9.4700   63.4680 C.3       1 TPP902      0.0000 
     16 C6         -4.7610    6.1870   63.0240 C.3       1 TPP902      0.0000 
     17 C7         -5.5990    5.4100   61.9890 C.3       1 TPP902      0.0000 
     18 O7         -5.5350    4.0170   62.2770 O.3       1 TPP902      0.0000 
     19 PA         -6.4650    2.8910   61.6330 P.3       1 TPP902      0.0000 
     20 O1A        -7.0940    3.7980   60.5080 O.co2     1 TPP902      0.0000 
     21 O2A        -7.2740    2.0040   62.4780 O.co2     1 TPP902      0.0000 
     22 O3A        -5.8140    1.7210   60.7740 O.3       1 TPP902      0.0000 
     23 PB         -6.3460    0.8120   59.5940 P.3       1 TPP902      0.0000 
     24 O1B        -5.1050    0.0990   58.9570 O.co2     1 TPP902      0.0000 
     25 O2B        -6.9390   -0.4510   60.3380 O.co2     1 TPP902      0.0000 
     26 O3B        -7.4300    1.3470   58.7510 O.co2     1 TPP902      0.0000 
     27 H           0.3218   10.8564   63.7735 H         1 TPP902      0.0000 
     28 H          -1.4218   10.6611   64.1571 H         1 TPP902      0.0000 
     29 H          -2.9348   12.7531   60.1992 H         1 TPP902      0.0000 
     30 H          -3.7738   10.4928   61.2322 H         1 TPP902      0.0000 
     31 H          -3.6220   11.5114   62.6742 H         1 TPP902      0.0000 
     32 H          -0.8413    8.8382   62.2797 H         1 TPP902      0.0000 
     33 H          -5.4207    6.5082   63.8423 H         1 TPP902      0.0000 
     34 H          -4.0114    5.5071   63.4528 H         1 TPP902      0.0000 
     35 H          -5.1961    5.6453   60.9994 H         1 TPP902      0.0000 
     36 H          -6.6217    5.7952   62.0411 H         1 TPP902      0.0000 
     37 H           2.1562   14.1889   60.9955 H         1 TPP902      0.0000 
     38 H           1.9272   13.1640   59.7776 H         1 TPP902      0.0000 
     39 H           1.3924   14.6765   59.6669 H         1 TPP902      0.0000 
     40 H          -5.1908   10.2147   64.1305 H         1 TPP902      0.0000 
     41 H          -5.5399    9.8805   62.5967 H         1 TPP902      0.0000 
     42 H          -6.0307    8.8925   63.7667 H         1 TPP902      0.0000 
@<TRIPOS>BOND
     1    2    1 ar   
     2    8    1 ar   
     3    3    2 1    
     4    4    2 ar   
     5   37    3 1    
     6   38    3 1    
     7   39    3 1    
     8    5    4 ar   
     9    6    5 1    
    10    7    5 ar   
    11   27    6 1    
    12   28    6 1    
    13    8    7 ar   
    14    9    7 1    
    15   29    8 1    
    16   10    9 1    
    17   30    9 1    
    18   31    9 1    
    19   11   10 2    
    20   14   10 1    
    21   12   11 1    
    22   32   11 1    
    23   13   12 1    
    24   14   13 2    
    25   16   13 1    
    26   15   14 1    
    27   40   15 1    
    28   41   15 1    
    29   42   15 1    
    30   17   16 1    
    31   33   16 1    
    32   34   16 1    
    33   18   17 1    
    34   35   17 1    
    35   36   17 1    
    36   19   18 1    
    37   20   19 ar   
    38   21   19 ar   
    39   22   19 1    
    40   23   22 1    
    41   24   23 ar   
    42   25   23 ar   
    43   26   23 ar   
@<TRIPOS>SUBSTRUCTURE
     1 TPP902      1 GROUP   
@<TRIPOS>SET

