#    Name: 3r8z_Z63_1_INTS_M
#    Modification time : Tue Mar 25 11:16:14 2014

@<TRIPOS>MOLECULE
3r8z_Z63_1_INTS_M
   48     0     9     0     0
SMALL
NO_CHARGES


@<TRIPOS>ATOM
      1 N         -63.7120  -47.2070  -50.1130 N.am      2 SEC2        0.0000 
      2 N         -64.7410  -46.5530  -49.0630 N.am      8 SEL2        0.0000 
      3 N         -62.6830  -47.8610  -51.1630 N.am      5 SEP2        0.0000 
      4 CA        -65.1790  -47.4780  -50.6155 C.3       3 GLC5        0.0000 
      5 CA        -65.7440  -45.7430  -49.4020 C.3       9 GLL5        0.0000 
      6 CA        -64.6140  -49.2130  -51.8290 C.3       6 GLP5        0.0000 
      7 O         -66.1260  -46.3815  -51.7575 O.2       1 ALC1        0.0000 
      8 O         -66.1350  -45.6630  -50.6820 O.2       7 ALL1        0.0000 
      9 O         -66.1170  -47.1000  -52.8330 O.2       4 ALP1        0.0000 
     10 CA        -68.6990  -45.0465  -46.1875 C.3       3 GLC5        0.0000 
     11 CA        -67.9510  -43.3370  -47.2960 C.3       9 GLL5        0.0000 
     12 CA        -69.4470  -46.7560  -45.0790 C.3       6 GLP5        0.0000 
     13 CA        -67.1175  -41.9070  -48.8010 C.3       3 GLC5        0.0000 
     14 CA        -66.2840  -40.4770  -50.3060 C.3       6 GLP5        0.0000 
     15 CA        -69.1970  -43.4435  -44.5555 C.3       3 GLC5        0.0000 
     16 CA        -67.7650  -41.8900  -45.3130 C.3       9 GLL5        0.0000 
     17 CA        -70.6290  -44.9970  -43.7980 C.3       6 GLP5        0.0000 
     18 CA        -71.9750  -42.7705  -46.1585 C.3       3 GLC5        0.0000 
     19 CA        -69.9570  -42.6260  -46.0530 C.3       9 GLL5        0.0000 
     20 CA        -73.9930  -42.9150  -46.2640 C.3       6 GLP5        0.0000 
     21 CA        -65.9075  -47.2030  -46.0460 C.3       3 GLC5        0.0000 
     22 CA        -65.5030  -45.4110  -46.8510 C.3       9 GLL5        0.0000 
     23 CA        -66.3120  -48.9950  -45.2410 C.3       6 GLP5        0.0000 
     24 CA        -66.8015  -46.8140  -47.8910 C.3       3 GLC5        0.0000 
     25 CA        -68.1000  -48.2170  -48.9310 C.3       6 GLP5        0.0000 
     26 CA        -64.7110  -44.2955  -48.3635 C.3       3 GLC5        0.0000 
     27 CA        -63.9190  -43.1800  -49.8760 C.3       6 GLP5        0.0000 
     28 O         -62.4665  -47.5850  -48.0470 O.2       1 ALC1        0.0000 
     29 O         -63.4770  -47.2460  -47.2030 O.2       7 ALL1        0.0000 
     30 O         -61.4560  -47.9240  -48.8910 O.2       4 ALP1        0.0000 
     31 CA        -64.7240  -48.0555  -45.5200 C.3       3 GLC5        0.0000 
     32 CA        -63.1360  -47.1160  -45.7990 C.3       9 GLL5        0.0000 
     33 CA        -63.3205  -48.9070  -46.7130 C.3       3 GLC5        0.0000 
     34 CA        -63.5050  -50.6980  -47.6270 C.3       6 GLP5        0.0000 
     35 CA        -61.0975  -43.2535  -45.4060 C.3       3 GLC5        0.0000 
     36 CA        -61.8490  -44.8820  -45.6440 C.3       9 GLL5        0.0000 
     37 CA        -60.3460  -41.6250  -45.1680 C.3       6 GLP5        0.0000 
     38 CA        -62.1930  -43.5730  -46.8080 C.3       3 GLC5        0.0000 
     39 CA        -62.5370  -42.2640  -47.9720 C.3       6 GLP5        0.0000 
     40 CA        -67.0625  -46.7990  -48.9010 C.3       3 GLC5        0.0000 
     41 CA        -66.3060  -45.0190  -48.3400 C.3       9 GLL5        0.0000 
     42 CA        -64.9720  -44.2805  -49.3735 C.3       3 GLC5        0.0000 
     43 CA        -68.5789  -40.7867  -46.7696 C.3       3 GLC5        0.0000 
     44 CA        -69.5020  -39.1450  -47.4650 C.3       6 GLP5        0.0000 
     45 CA        -70.1485  -43.9920  -45.1942 C.3       3 GLC5        0.0000 
     46 CA        -69.5850  -41.0660  -47.0277 C.3       3 GLC5        0.0000 
     47 CA        -59.8972  -45.5478  -46.1470 C.3       3 GLC5        0.0000 
     48 CA        -57.9390  -45.4820  -46.6530 C.3       6 GLP5        0.0000 
@<TRIPOS>BOND
@<TRIPOS>SUBSTRUCTURE
     1 ALC1        7 GROUP        1 X    ALC  0     ROOT ALC X 1
     2 SEC2        1 GROUP        1 X    SEC  0     **** SEC X 2
     3 GLC5        4 GROUP        1 X    GLC  0     **** GLC X 6
     4 ALP1        9 GROUP        1 Y    ALP  0     ROOT ALP Y 8
     5 SEP2        3 GROUP        1 Y    SEP  0     **** SEP Y 9
     6 GLP5        6 GROUP        1 Y    GLP  0     **** GLP Y 13
     7 ALL1        8 GROUP        1 Z    ALL  0     ROOT ALL Z 15
     8 SEL2        2 GROUP        1 Z    SEL  0     **** SEL Z 16
     9 GLL5        5 GROUP        1 Z    GLL  0     **** GLL Z 20
@<TRIPOS>SET

