#    Name: 3r8z_Z63_1_ligand
#    Modification time : Tue Mar 25 11:16:14 2014

@<TRIPOS>MOLECULE
3r8z_Z63_1_ligand
   28    29     1     0     0
SMALL
NO_CHARGES


@<TRIPOS>ATOM
      1 N1        -64.7410  -46.5530  -49.0630 N.2       1 Z63440      0.0000 
      2 C2        -65.7440  -45.7430  -49.4020 C.2       1 Z63440      0.0000 
      3 N3        -66.1350  -45.6630  -50.6820 N.pl3     1 Z63440      0.0000 
      4 C4        -66.3060  -45.0190  -48.3400 C.2       1 Z63440      0.0000 
      5 C5        -67.3590  -44.1040  -48.4410 C.2       1 Z63440      0.0000 
      6 C6        -67.9510  -43.3370  -47.2960 C.ar      1 Z63440      0.0000 
      7 C7        -67.1420  -42.5970  -46.3750 C.ar      1 Z63440      0.0000 
      8 C8        -67.7650  -41.8900  -45.3130 C.ar      1 Z63440      0.0000 
      9 N9        -69.1450  -41.9230  -45.1820 N.ar      1 Z63440      0.0000 
     10 C10       -69.9570  -42.6260  -46.0530 C.ar      1 Z63440      0.0000 
     11 C11       -69.3790  -43.3480  -47.1280 C.ar      1 Z63440      0.0000 
     12 O12       -67.9310  -43.8540  -49.6470 O.2       1 Z63440      0.0000 
     13 S13       -65.5030  -45.4110  -46.8510 S.3       1 Z63440      0.0000 
     14 C14       -64.4830  -46.4940  -47.7480 C.2       1 Z63440      0.0000 
     15 N15       -63.4770  -47.2460  -47.2030 N.pl3     1 Z63440      0.0000 
     16 C16       -63.1360  -47.1160  -45.7990 C.3       1 Z63440      0.0000 
     17 C17       -61.8620  -46.3450  -45.6380 C.2       1 Z63440      0.0000 
     18 C18       -61.8490  -44.8820  -45.6440 C.2       1 Z63440      0.0000 
     19 H         -65.6573  -46.2604  -51.3262 H         1 Z63440      0.0000 
     20 H         -66.8694  -45.0131  -50.8780 H         1 Z63440      0.0000 
     21 H         -66.1360  -42.5815  -46.4846 H         1 Z63440      0.0000 
     22 H         -67.1858  -41.3635  -44.6557 H         1 Z63440      0.0000 
     23 H         -70.9739  -42.6351  -45.9356 H         1 Z63440      0.0000 
     24 H         -69.9572  -43.8677  -47.7742 H         1 Z63440      0.0000 
     25 H         -62.9384  -47.9174  -47.7626 H         1 Z63440      0.0000 
     26 H         -63.0114  -48.1057  -45.3367 H         1 Z63440      0.0000 
     27 H         -63.9356  -46.5962  -45.2520 H         1 Z63440      0.0000 
     28 H         -61.0012  -46.8595  -45.5238 H         1 Z63440      0.0000 
@<TRIPOS>BOND
     1    2    1 1    
     2   14    1 2    
     3    3    2 1    
     4    4    2 2    
     5   19    3 1    
     6   20    3 1    
     7    5    4 1    
     8   13    4 1    
     9    6    5 1    
    10   12    5 2    
    11    7    6 ar   
    12   11    6 ar   
    13    8    7 ar   
    14   21    7 1    
    15    9    8 ar   
    16   22    8 1    
    17   10    9 ar   
    18   11   10 ar   
    19   23   10 1    
    20   24   11 1    
    21   14   13 1    
    22   15   14 1    
    23   16   15 1    
    24   25   15 1    
    25   17   16 1    
    26   26   16 1    
    27   27   16 1    
    28   18   17 2    
    29   28   17 1    
@<TRIPOS>SUBSTRUCTURE
     1 Z63440      1 GROUP   
@<TRIPOS>SET

