#    Name: 3vzc_UUL_5_INTS_M
#    Modification time : Tue Mar 25 01:52:30 2014

@<TRIPOS>MOLECULE
3vzc_UUL_5_INTS_M
   59     0     6     0     0
SMALL
NO_CHARGES


@<TRIPOS>ATOM
      1 CA        -30.7645  -25.6105   24.8215 C.3       2 GLC5        0.0000 
      2 CA        -30.5550  -24.5680   26.2750 C.3       6 GLL5        0.0000 
      3 CA        -30.9740  -26.6530   23.3680 C.3       4 GLP5        0.0000 
      4 CA        -29.7540  -23.8100   24.3595 C.3       2 GLC5        0.0000 
      5 CA        -28.9530  -23.0520   22.4440 C.3       4 GLP5        0.0000 
      6 O         -31.1175  -27.8990   29.6160 O.2       1 ALC1        0.0000 
      7 O         -30.5350  -27.5330   28.4140 O.2       5 ALL1        0.0000 
      8 O         -31.7000  -28.2650   30.8180 O.2       3 ALP1        0.0000 
      9 CA        -30.6920  -23.6375   29.7220 C.3       2 GLC5        0.0000 
     10 CA        -31.8570  -24.1270   28.2610 C.3       6 GLL5        0.0000 
     11 CA        -29.5270  -23.1480   31.1830 C.3       4 GLP5        0.0000 
     12 O         -33.1235  -22.5865   26.6105 O.2       1 ALC1        0.0000 
     13 O         -31.6300  -22.4530   26.6090 O.2       5 ALL1        0.0000 
     14 O         -34.6170  -22.7200   26.6120 O.2       3 ALP1        0.0000 
     15 CA        -32.9090  -20.1965   25.8860 C.3       2 GLC5        0.0000 
     16 CA        -31.1660  -19.9920   25.7340 C.3       6 GLL5        0.0000 
     17 CA        -34.6520  -20.4010   26.0380 C.3       4 GLP5        0.0000 
     18 CA        -29.5985  -17.6120   25.3350 C.3       2 GLC5        0.0000 
     19 CA        -29.6500  -19.6120   25.0630 C.3       6 GLL5        0.0000 
     20 CA        -29.5470  -15.6120   25.6070 C.3       4 GLP5        0.0000 
     21 CA        -24.4495  -23.3075   25.5135 C.3       2 GLC5        0.0000 
     22 CA        -25.5060  -22.0710   24.4690 C.3       6 GLL5        0.0000 
     23 CA        -23.3930  -24.5440   26.5580 C.3       4 GLP5        0.0000 
     24 CA        -21.8145  -20.9955   23.0675 C.3       2 GLC5        0.0000 
     25 CA        -23.3850  -21.3150   22.9350 C.3       6 GLL5        0.0000 
     26 CA        -20.2440  -20.6760   23.2000 C.3       4 GLP5        0.0000 
     27 CA        -29.5062  -23.5192   27.8930 C.3       2 GLC5        0.0000 
     28 CA        -28.0660  -22.9070   29.1310 C.3       4 GLP5        0.0000 
     29 CA        -28.5397  -25.4417   25.8395 C.3       2 GLC5        0.0000 
     30 CA        -26.6590  -25.6750   25.1650 C.3       4 GLP5        0.0000 
     31 CA        -30.6908  -27.1403   25.7997 C.3       2 GLC5        0.0000 
     32 CA        -30.8070  -26.2760   27.9720 C.3       6 GLL5        0.0000 
     33 CA        -30.8350  -28.2180   24.2370 C.3       4 GLP5        0.0000 
     34 CA        -29.7176  -25.4511   29.1261 C.3       2 GLC5        0.0000 
     35 CA        -30.2860  -25.8490   26.7530 C.3       6 GLL5        0.0000 
     36 CA        -28.3660  -25.1660   30.2020 C.3       4 GLP5        0.0000 
     37 CA        -32.8577  -24.3528   29.8117 C.3       2 GLC5        0.0000 
     38 CA        -31.5920  -25.4100   28.7380 C.3       6 GLL5        0.0000 
     39 CA        -33.9910  -23.9370   31.1240 C.3       4 GLP5        0.0000 
     40 CA        -31.3890  -19.7125   23.7727 C.3       2 GLC5        0.0000 
     41 CA        -32.3700  -19.6230   22.1470 C.3       4 GLP5        0.0000 
     42 CA        -28.1047  -19.6502   26.5443 C.3       2 GLC5        0.0000 
     43 CA        -26.9410  -19.1350   27.9970 C.3       4 GLP5        0.0000 
     44 CA        -29.1107  -21.6088   23.7677 C.3       2 GLC5        0.0000 
     45 CA        -28.8870  -20.7190   25.1200 C.3       6 GLL5        0.0000 
     46 CA        -28.0715  -22.2132   23.6235 C.3       2 GLC5        0.0000 
     47 CA        -27.5830  -20.8230   24.6240 C.3       6 GLL5        0.0000 
     48 CA        -26.3807  -22.4232   26.7208 C.3       2 GLC5        0.0000 
     49 CA        -26.7970  -21.9260   24.9820 C.3       6 GLL5        0.0000 
     50 CA        -26.6100  -22.8480   28.7160 C.3       4 GLP5        0.0000 
     51 CA        -26.4053  -23.8368   24.9453 C.3       2 GLC5        0.0000 
     52 CA        -26.4382  -22.7280   22.7848 C.3       2 GLC5        0.0000 
     53 CA        -27.6270  -23.8600   21.5470 C.3       4 GLP5        0.0000 
     54 CA        -27.6908  -21.5015   22.9562 C.3       2 GLC5        0.0000 
     55 CA        -25.7820  -20.0240   23.2130 C.3       6 GLL5        0.0000 
     56 CA        -24.7248  -20.5285   21.2166 C.3       2 GLC5        0.0000 
     57 CA        -24.4640  -20.4360   19.1990 C.3       4 GLP5        0.0000 
     58 CA        -27.0367  -19.8806   26.1303 C.3       2 GLC5        0.0000 
     59 CA        -27.0750  -19.8780   23.7240 C.3       6 GLL5        0.0000 
@<TRIPOS>BOND
@<TRIPOS>SUBSTRUCTURE
     1 ALC1        6 GROUP        1 X    ALC  0     ROOT ALC X 1
     2 GLC5        1 GROUP        1 X    GLC  0     **** GLC X 6
     3 ALP1        8 GROUP        1 Y    ALP  0     ROOT ALP Y 8
     4 GLP5        3 GROUP        1 Y    GLP  0     **** GLP Y 13
     5 ALL1        7 GROUP        1 Z    ALL  0     ROOT ALL Z 15
     6 GLL5        2 GROUP        1 Z    GLL  0     **** GLL Z 20
@<TRIPOS>SET

