#    Name: 3vzc_UUL_5_ligand
#    Modification time : Tue Mar 25 01:52:30 2014

@<TRIPOS>MOLECULE
3vzc_UUL_5_ligand
   31    33     1     0     0
SMALL
NO_CHARGES


@<TRIPOS>ATOM
      1 C16       -30.5550  -24.5680   26.2750 C.ar      1 UUL1001     0.0000 
      2 C19       -30.2860  -25.8490   26.7530 C.ar      1 UUL1001     0.0000 
      3 C12       -30.8070  -26.2760   27.9720 C.ar      1 UUL1001     0.0000 
      4 O20       -30.5350  -27.5330   28.4140 O.3       1 UUL1001     0.0000 
      5 C18       -31.5920  -25.4100   28.7380 C.ar      1 UUL1001     0.0000 
      6 C17       -31.8570  -24.1270   28.2610 C.ar      1 UUL1001     0.0000 
      7 C10       -31.3380  -23.6950   27.0350 C.ar      1 UUL1001     0.0000 
      8 N6        -31.6300  -22.4530   26.6090 N.pl3     1 UUL1001     0.0000 
      9 C2        -30.7840  -21.5800   26.0500 C.2       1 UUL1001     0.0000 
     10 N1        -29.5300  -21.7950   25.6430 N.2       1 UUL1001     0.0000 
     11 S4        -31.1660  -19.9920   25.7340 S.3       1 UUL1001     0.0000 
     12 C5        -29.6500  -19.6120   25.0630 C.2       1 UUL1001     0.0000 
     13 C3        -28.8870  -20.7190   25.1200 C.2       1 UUL1001     0.0000 
     14 C7        -27.5830  -20.8230   24.6240 C.ar      1 UUL1001     0.0000 
     15 C8        -26.7970  -21.9260   24.9820 C.ar      1 UUL1001     0.0000 
     16 C14       -25.5060  -22.0710   24.4690 C.ar      1 UUL1001     0.0000 
     17 C11       -24.9930  -21.1210   23.5760 C.ar      1 UUL1001     0.0000 
     18 CL        -23.3850  -21.3150   22.9350 Cl        1 UUL1001     0.0000 
     19 C13       -25.7820  -20.0240   23.2130 C.ar      1 UUL1001     0.0000 
     20 C9        -27.0750  -19.8780   23.7240 C.ar      1 UUL1001     0.0000 
     21 H         -30.1810  -24.2657   25.3701 H         1 UUL1001     0.0000 
     22 H         -29.6948  -26.4874   26.1980 H         1 UUL1001     0.0000 
     23 H         -31.9671  -25.7152   29.6379 H         1 UUL1001     0.0000 
     24 H         -32.4436  -23.4853   28.8177 H         1 UUL1001     0.0000 
     25 H         -32.6631  -22.1265   26.7331 H         1 UUL1001     0.0000 
     26 H         -29.5651  -18.7558   24.7716 H         1 UUL1001     0.0000 
     27 H         -27.1747  -22.6326   25.6269 H         1 UUL1001     0.0000 
     28 H         -24.9303  -22.8746   24.7456 H         1 UUL1001     0.0000 
     29 H         -25.4066  -19.3184   22.5639 H         1 UUL1001     0.0000 
     30 H         -27.6523  -19.0794   23.4405 H         1 UUL1001     0.0000 
     31 H         -31.0623  -27.6302   29.2581 H         1 UUL1001     0.0000 
@<TRIPOS>BOND
     1    2    1 ar   
     2    7    1 ar   
     3   21    1 1    
     4    3    2 ar   
     5   22    2 1    
     6    4    3 1    
     7    5    3 ar   
     8   31    4 1    
     9    6    5 ar   
    10   23    5 1    
    11    7    6 ar   
    12   24    6 1    
    13    8    7 1    
    14    9    8 1    
    15   25    8 1    
    16   10    9 2    
    17   11    9 1    
    18   13   10 1    
    19   12   11 1    
    20   13   12 2    
    21   26   12 1    
    22   14   13 1    
    23   15   14 ar   
    24   20   14 ar   
    25   16   15 ar   
    26   27   15 1    
    27   17   16 ar   
    28   28   16 1    
    29   18   17 1    
    30   19   17 ar   
    31   20   19 ar   
    32   29   19 1    
    33   30   20 1    
@<TRIPOS>SUBSTRUCTURE
     1 UUL1001     1 GROUP   
@<TRIPOS>SET

