#    Name: 4kp8_E1G_2_INTS_M
#    Modification time : Tue Mar 25 08:17:05 2014

@<TRIPOS>MOLECULE
4kp8_E1G_2_INTS_M
   39     0    12     0     0
SMALL
NO_CHARGES


@<TRIPOS>ATOM
      1 N           2.4840   -6.9050   13.5425 N.am      2 SEC2        0.0000 
      2 N           2.7750   -8.2970   14.0100 N.am     10 SEL2        0.0000 
      3 N           2.1930   -5.5130   13.0750 N.am      6 SEP2        0.0000 
      4 O           0.4950   -8.2200   12.2255 O.2       1 ALC1        0.0000 
      5 O           0.5270   -9.3980   13.0140 O.2       9 ALL1        0.0000 
      6 O           0.4630   -7.0420   11.4370 O.2       5 ALP1        0.0000 
      7 Zn          0.2885  -10.1865   12.6600 Zn        3 ZIC7        0.0000 
      8 Zn          0.5270   -9.3980   13.0140 Zn       11 ZIL7        0.0000 
      9 Zn          0.0500  -10.9750   12.3060 Zn        7 ZIP7        0.0000 
     10 CA          1.7655   -6.5090   16.2070 C.3       4 GLC5        0.0000 
     11 CA          0.4020   -7.9150   16.1560 C.3      12 GLL5        0.0000 
     12 CA          3.1290   -5.1030   16.2580 C.3       8 GLP5        0.0000 
     13 CA         -1.1910   -7.0665   15.1095 C.3       4 GLC5        0.0000 
     14 CA         -2.7840   -6.2180   14.0630 C.3       8 GLP5        0.0000 
     15 CA         -1.2300   -6.3920   16.2655 C.3       4 GLC5        0.0000 
     16 CA          0.0180   -7.7070   17.5150 C.3      12 GLL5        0.0000 
     17 CA         -2.4780   -5.0770   15.0160 C.3       8 GLP5        0.0000 
     18 CA          2.3100  -11.7935   16.6930 C.3       4 GLC5        0.0000 
     19 CA          1.4600   -9.9760   16.8910 C.3      12 GLL5        0.0000 
     20 CA          3.1600  -13.6110   16.4950 C.3       8 GLP5        0.0000 
     21 CA          4.6235   -8.8805   20.4515 C.3       4 GLC5        0.0000 
     22 CA          2.6090   -9.2330   21.1230 C.3      12 GLL5        0.0000 
     23 CA          6.6380   -8.5280   19.7800 C.3       8 GLP5        0.0000 
     24 CA          3.3575   -8.1865   19.3190 C.3       4 GLC5        0.0000 
     25 CA          4.1060   -7.1400   17.5150 C.3       8 GLP5        0.0000 
     26 CA          2.3470   -6.5570   20.2565 C.3       4 GLC5        0.0000 
     27 CA          1.5160   -7.9360   21.7700 C.3      12 GLL5        0.0000 
     28 CA          3.1780   -5.1780   18.7430 C.3       8 GLP5        0.0000 
     29 N           3.3370   -6.5435   22.1975 N.am      2 SEC2        0.0000 
     30 N           2.0430   -6.7230   22.1070 N.am     10 SEL2        0.0000 
     31 N           4.6310   -6.3640   22.2880 N.am      6 SEP2        0.0000 
     32 CA          3.2740   -6.2890   23.0230 C.3       4 GLC5        0.0000 
     33 CA          1.2560   -5.7240   22.6130 C.3      12 GLL5        0.0000 
     34 CA          5.2920   -6.8540   23.4330 C.3       8 GLP5        0.0000 
     35 CA          2.2170   -5.4510   20.6780 C.3       4 GLC5        0.0000 
     36 CA          3.6772   -7.7192   22.4398 C.3       4 GLC5        0.0000 
     37 CA          0.3323   -4.4710   21.4975 C.3       4 GLC5        0.0000 
     38 CA          0.0940   -3.1360   20.3030 C.3       8 GLP5        0.0000 
     39 CA          2.3868   -8.0277   17.5875 C.3       4 GLC5        0.0000 
@<TRIPOS>BOND
@<TRIPOS>SUBSTRUCTURE
     1 ALC1        4 GROUP        1 X    ALC  0     ROOT ALC X 1
     2 SEC2        1 GROUP        1 X    SEC  0     **** SEC X 2
     3 ZIC7        7 GROUP        1 X    ZIC  0     **** ZIC X 5
     4 GLC5       10 GROUP        1 X    GLC  0     **** GLC X 6
     5 ALP1        6 GROUP        1 Y    ALP  0     ROOT ALP Y 8
     6 SEP2        3 GROUP        1 Y    SEP  0     **** SEP Y 9
     7 ZIP7        9 GROUP        1 Y    ZIP  0     **** ZIP Y 12
     8 GLP5       12 GROUP        1 Y    GLP  0     **** GLP Y 13
     9 ALL1        5 GROUP        1 Z    ALL  0     ROOT ALL Z 15
    10 SEL2        2 GROUP        1 Z    SEL  0     **** SEL Z 16
    11 ZIL7        8 GROUP        1 Z    ZIL  0     **** ZIL Z 19
    12 GLL5       11 GROUP        1 Z    GLL  0     **** GLL Z 20
@<TRIPOS>SET

