#    Name: 4kp8_E1G_2_ligand
#    Modification time : Tue Mar 25 08:17:05 2014

@<TRIPOS>MOLECULE
4kp8_E1G_2_ligand
   30    31     1     0     0
SMALL
NO_CHARGES


@<TRIPOS>ATOM
      1 O19         2.7750   -8.2970   14.0100 O.2       1 E1G302      0.0000 
      2 S17         1.7540   -9.4040   14.2390 S.o2      1 E1G302      0.0000 
      3 O18         2.4310  -10.7510   14.2660 O.2       1 E1G302      0.0000 
      4 N20         0.5270   -9.3980   13.0140 N.pl3     1 E1G302      0.0000 
      5 C4          1.1280   -9.0800   15.8690 C.ar      1 E1G302      0.0000 
      6 C5          0.4020   -7.9150   16.1560 C.ar      1 E1G302      0.0000 
      7 C6          0.0180   -7.7070   17.5150 C.ar      1 E1G302      0.0000 
      8 C1          0.3050   -8.6320   18.5270 C.ar      1 E1G302      0.0000 
      9 C3          1.4600   -9.9760   16.8910 C.ar      1 E1G302      0.0000 
     10 C2          1.0530   -9.7950   18.2180 C.ar      1 E1G302      0.0000 
     11 C7          1.4240  -10.7980   19.2890 C.2       1 E1G302      0.0000 
     12 O13         1.8280  -11.9330   19.0460 O.2       1 E1G302      0.0000 
     13 C8          1.3170  -10.4460   20.7370 C.3       1 E1G302      0.0000 
     14 S9          2.6090   -9.2330   21.1230 S.3       1 E1G302      0.0000 
     15 C10         1.5160   -7.9360   21.7700 C.ar      1 E1G302      0.0000 
     16 N12         2.0430   -6.7230   22.1070 N.ar      1 E1G302      0.0000 
     17 C15         1.2560   -5.7240   22.6130 C.ar      1 E1G302      0.0000 
     18 C16        -0.1150   -5.8880   22.7710 C.ar      1 E1G302      0.0000 
     19 C14        -0.6520   -7.1270   22.4210 C.ar      1 E1G302      0.0000 
     20 N11         0.1610   -8.1230   21.9290 N.ar      1 E1G302      0.0000 
     21 H           0.5782   -8.6579   12.3435 H         1 E1G302      0.0000 
     22 H           0.1583   -7.2522   15.4486 H         1 E1G302      0.0000 
     23 H          -0.4924   -6.8344   17.7507 H         1 E1G302      0.0000 
     24 H          -0.0184   -8.4763   19.4804 H         1 E1G302      0.0000 
     25 H           2.0356  -10.8151   16.6542 H         1 E1G302      0.0000 
     26 H           1.5522  -11.2360   21.4018 H         1 E1G302      0.0000 
     27 H           0.4364   -9.9195   20.9993 H         1 E1G302      0.0000 
     28 H           1.6865   -4.8152   22.8891 H         1 E1G302      0.0000 
     29 H          -0.6982   -5.1454   23.1230 H         1 E1G302      0.0000 
     30 H          -1.6649   -7.2897   22.5345 H         1 E1G302      0.0000 
@<TRIPOS>BOND
     1    2    1 2    
     2    3    2 2    
     3    4    2 1    
     4    5    2 1    
     5   21    4 1    
     6    6    5 ar   
     7    9    5 ar   
     8    7    6 ar   
     9   22    6 1    
    10    8    7 ar   
    11   23    7 1    
    12   10    8 ar   
    13   24    8 1    
    14   10    9 ar   
    15   25    9 1    
    16   11   10 1    
    17   12   11 2    
    18   13   11 1    
    19   14   13 1    
    20   26   13 1    
    21   27   13 1    
    22   15   14 1    
    23   16   15 ar   
    24   20   15 ar   
    25   17   16 ar   
    26   18   17 ar   
    27   28   17 1    
    28   19   18 ar   
    29   29   18 1    
    30   20   19 ar   
    31   30   19 1    
@<TRIPOS>SUBSTRUCTURE
     1 E1G302      1 GROUP   
@<TRIPOS>SET

