#    Name: 4jwh_SAH_2_INTS_M
#    Modification time : Tue Mar 25 06:38:54 2014

@<TRIPOS>MOLECULE
4jwh_SAH_2_INTS_M
   73     0    12     0     0
SMALL
NO_CHARGES


@<TRIPOS>ATOM
      1 OD1        25.0485   -3.2540   28.3770 O.co2     3 ASC3        0.0000 
      2 OD1        24.9520   -4.9890   27.8870 O.co2    11 ASL3        0.0000 
      3 OD1        25.1450   -1.5190   28.8670 O.co2     7 ASP3        0.0000 
      4 OD1        24.2545   -3.7325   27.8140 O.co2     3 ASC3        0.0000 
      5 OD1        23.5570   -2.4760   27.7410 O.co2     7 ASP3        0.0000 
      6 O          24.2545   -3.7325   27.8140 O.2       1 ALC1        0.0000 
      7 O          24.9520   -4.9890   27.8870 O.2       9 ALL1        0.0000 
      8 O          23.5570   -2.4760   27.7410 O.2       5 ALP1        0.0000 
      9 O          24.6065   -5.3870   29.3675 O.2       1 ALC1        0.0000 
     10 O          24.2610   -5.7850   30.8480 O.2       5 ALP1        0.0000 
     11 O          23.7900   -5.6715   27.3195 O.2       1 ALC1        0.0000 
     12 O          22.6280   -6.3540   26.7520 O.2       5 ALP1        0.0000 
     13 CA         27.2955   -3.4060   26.5680 C.3       4 GLC5        0.0000 
     14 CA         26.4450   -4.9590   27.7580 C.3      12 GLL5        0.0000 
     15 CA         28.1460   -1.8530   25.3780 C.3       8 GLP5        0.0000 
     16 CA         27.6845   -5.7170   26.1035 C.3       4 GLC5        0.0000 
     17 CA         28.9240   -6.4750   24.4490 C.3       8 GLP5        0.0000 
     18 CA         28.1260   -2.5870   27.0730 C.3       4 GLC5        0.0000 
     19 CA         28.1060   -3.3210   28.7680 C.3      12 GLL5        0.0000 
     20 CA         28.2515   -3.2370   31.2775 C.3       4 GLC5        0.0000 
     21 CA         29.3180   -3.1110   30.0620 C.3      12 GLL5        0.0000 
     22 CA         27.1850   -3.3630   32.4930 C.3       8 GLP5        0.0000 
     23 N          26.4975   -7.8155   25.4185 N.am      2 SEC2        0.0000 
     24 N          26.3190   -7.1660   26.7470 N.am     10 SEL2        0.0000 
     25 N          26.6760   -8.4650   24.0900 N.am      6 SEP2        0.0000 
     26 CA         31.8950   -1.2115   28.4560 C.3       4 GLC5        0.0000 
     27 CA         30.7330   -2.7940   29.0350 C.3      12 GLL5        0.0000 
     28 CA         33.0570    0.3710   27.8770 C.3       8 GLP5        0.0000 
     29 CA         33.4415   -3.8240   28.2265 C.3       4 GLC5        0.0000 
     30 CA         31.6270   -4.0100   28.7600 C.3      12 GLL5        0.0000 
     31 CA         35.2560   -3.6380   27.6930 C.3       8 GLP5        0.0000 
     32 CA         31.4980   -8.4530   28.8320 C.3       4 GLC5        0.0000 
     33 CA         31.9870   -6.3580   28.7010 C.3      12 GLL5        0.0000 
     34 CA         31.0090  -10.5480   28.9630 C.3       8 GLP5        0.0000 
     35 N          33.1300   -5.6670   26.3965 N.am      2 SEC2        0.0000 
     36 N          32.9640   -6.5670   27.6530 N.am     10 SEL2        0.0000 
     37 N          33.2960   -4.7670   25.1400 N.am      6 SEP2        0.0000 
     38 O          32.8480   -7.8225   27.5030 O.2       1 ALC1        0.0000 
     39 O          32.9640   -6.5670   27.6530 O.2       9 ALL1        0.0000 
     40 O          32.7320   -9.0780   27.3530 O.2       5 ALP1        0.0000 
     41 CA         33.7770   -5.1820   31.2150 C.3       4 GLC5        0.0000 
     42 CA         32.6930   -5.7570   29.9050 C.3      12 GLL5        0.0000 
     43 CA         34.8610   -4.6070   32.5250 C.3       8 GLP5        0.0000 
     44 CA         30.2005   -8.5720   32.9975 C.3       4 GLC5        0.0000 
     45 CA         31.8690   -7.6380   32.9840 C.3      12 GLL5        0.0000 
     46 CA         28.5320   -9.5060   33.0110 C.3       8 GLP5        0.0000 
     47 CA         30.7070   -9.7665   33.0500 C.3       4 GLC5        0.0000 
     48 CA         32.1290   -8.8960   33.7240 C.3      12 GLL5        0.0000 
     49 CA         29.2850  -10.6370   32.3760 C.3       8 GLP5        0.0000 
     50 CA         33.9695   -9.5100   34.6090 C.3       4 GLC5        0.0000 
     51 CA         35.8100  -10.1240   35.4940 C.3       8 GLP5        0.0000 
     52 N          33.8280  -10.8380   33.6780 N.am      2 SEC2        0.0000 
     53 N          32.9520   -9.8040   33.1500 N.am     10 SEL2        0.0000 
     54 N          34.7040  -11.8720   34.2060 N.am      6 SEP2        0.0000 
     55 CA         34.5070   -9.4950   30.3125 C.3       4 GLC5        0.0000 
     56 CA         33.5480   -9.5950   31.9560 C.3      12 GLL5        0.0000 
     57 CA         35.4660   -9.3950   28.6690 C.3       8 GLP5        0.0000 
     58 CA         32.2785  -10.0715   30.4595 C.3       4 GLC5        0.0000 
     59 CA         31.4165  -10.1160   32.1660 C.3       4 GLC5        0.0000 
     60 CA         33.4985  -11.4120   32.3065 C.3       4 GLC5        0.0000 
     61 CA         33.4490  -13.2290   32.6570 C.3       8 GLP5        0.0000 
     62 CA         35.0245   -9.4590   33.1735 C.3       4 GLC5        0.0000 
     63 CA         36.5010   -9.3230   34.3910 C.3       8 GLP5        0.0000 
     64 CA         31.7795   -9.0195   30.3270 C.3       4 GLC5        0.0000 
     65 CA         32.5500   -7.4910   31.6910 C.3      12 GLL5        0.0000 
     66 CA         27.3882   -3.6200   30.7018 C.3       4 GLC5        0.0000 
     67 CA         31.7302   -4.3768   26.5110 C.3       4 GLC5        0.0000 
     68 CA         30.9600   -5.3010   28.3240 C.3      12 GLL5        0.0000 
     69 CA         32.1670   -4.0980   24.4800 C.3       8 GLP5        0.0000 
     70 CA         33.7980   -4.8477   28.4980 C.3       4 GLC5        0.0000 
     71 CA         32.9070   -7.0020   34.7430 C.3       4 GLC5        0.0000 
     72 CA         33.8150   -5.7370   36.1320 C.3       8 GLP5        0.0000 
     73 CA         33.5352   -6.0857   32.4312 C.3       4 GLC5        0.0000 
@<TRIPOS>BOND
@<TRIPOS>SUBSTRUCTURE
     1 ALC1        6 GROUP        1 X    ALC  0     ROOT ALC X 1
     2 SEC2       23 GROUP        1 X    SEC  0     **** SEC X 2
     3 ASC3        1 GROUP        1 X    ASC  0     **** ASC X 3
     4 GLC5       13 GROUP        1 X    GLC  0     **** GLC X 6
     5 ALP1        8 GROUP        1 Y    ALP  0     ROOT ALP Y 8
     6 SEP2       25 GROUP        1 Y    SEP  0     **** SEP Y 9
     7 ASP3        3 GROUP        1 Y    ASP  0     **** ASP Y 10
     8 GLP5       15 GROUP        1 Y    GLP  0     **** GLP Y 13
     9 ALL1        7 GROUP        1 Z    ALL  0     ROOT ALL Z 15
    10 SEL2       24 GROUP        1 Z    SEL  0     **** SEL Z 16
    11 ASL3        2 GROUP        1 Z    ASL  0     **** ASL Z 17
    12 GLL5       14 GROUP        1 Z    GLL  0     **** GLL Z 20
@<TRIPOS>SET

