#    Name: 4jwh_SAH_2_ligand
#    Modification time : Tue Mar 25 06:38:54 2014

@<TRIPOS>MOLECULE
4jwh_SAH_2_ligand
   46    48     1     0     0
SMALL
NO_CHARGES


@<TRIPOS>ATOM
      1 N          24.9520   -4.9890   27.8870 N.4       1 SAH401      0.0000 
      2 CA         26.4450   -4.9590   27.7580 C.3       1 SAH401      0.0000 
      3 CB         27.0770   -4.4330   29.0530 C.3       1 SAH401      0.0000 
      4 CG         28.1060   -3.3210   28.7680 C.3       1 SAH401      0.0000 
      5 SD         29.3180   -3.1110   30.0620 S.3       1 SAH401      0.0000 
      6 C          26.9810   -6.3210   27.3650 C.2       1 SAH401      0.0000 
      7 O          28.1280   -6.6390   27.6400 O.co2     1 SAH401      0.0000 
      8 OXT        26.3190   -7.1660   26.7470 O.co2     1 SAH401      0.0000 
      9 C5'        30.7330   -2.7940   29.0350 C.3       1 SAH401      0.0000 
     10 C4'        31.6270   -4.0100   28.7600 C.3       1 SAH401      0.0000 
     11 O4'        32.4720   -4.3560   29.8690 O.3       1 SAH401      0.0000 
     12 C3'        30.9600   -5.3010   28.3240 C.3       1 SAH401      0.0000 
     13 O3'        30.5970   -5.2760   26.9280 O.3       1 SAH401      0.0000 
     14 C2'        31.9870   -6.3580   28.7010 C.3       1 SAH401      0.0000 
     15 O2'        32.9640   -6.5670   27.6530 O.3       1 SAH401      0.0000 
     16 C1'        32.6930   -5.7570   29.9050 C.3       1 SAH401      0.0000 
     17 N9         32.1940   -6.3000   31.1950 N.pl3     1 SAH401      0.0000 
     18 C8         31.3650   -5.7100   32.0830 C.2       1 SAH401      0.0000 
     19 N7         31.1480   -6.5200   33.1630 N.2       1 SAH401      0.0000 
     20 C5         31.8690   -7.6380   32.9840 C.ar      1 SAH401      0.0000 
     21 C6         32.1290   -8.8960   33.7240 C.ar      1 SAH401      0.0000 
     22 N6         31.5390   -9.1610   34.9170 N.pl3     1 SAH401      0.0000 
     23 N1         32.9520   -9.8040   33.1500 N.ar      1 SAH401      0.0000 
     24 C2         33.5480   -9.5950   31.9560 C.ar      1 SAH401      0.0000 
     25 N3         33.3600   -8.4890   31.2370 N.ar      1 SAH401      0.0000 
     26 C4         32.5500   -7.4910   31.6910 C.ar      1 SAH401      0.0000 
     27 H          26.7011   -4.2487   26.9578 H         1 SAH401      0.0000 
     28 H          27.5755   -5.2530   29.5686 H         1 SAH401      0.0000 
     29 H          26.2952   -4.0348   29.6987 H         1 SAH401      0.0000 
     30 H          27.6538   -2.3455   28.6948 H         1 SAH401      0.0000 
     31 H          28.7086   -3.5258   27.8984 H         1 SAH401      0.0000 
     32 H          31.2544   -2.0060   29.5696 H         1 SAH401      0.0000 
     33 H          30.2944   -2.3861   28.1295 H         1 SAH401      0.0000 
     34 H          32.3160   -3.7237   27.9083 H         1 SAH401      0.0000 
     35 H          30.1013   -5.4411   28.9723 H         1 SAH401      0.0000 
     36 H          31.4963   -7.2354   29.0015 H         1 SAH401      0.0000 
     37 H          33.7520   -5.9696   29.8096 H         1 SAH401      0.0000 
     38 H          30.9679   -4.8220   31.9763 H         1 SAH401      0.0000 
     39 H          30.8855   -8.4792   35.2458 H         1 SAH401      0.0000 
     40 H          31.8099  -10.0146   35.3619 H         1 SAH401      0.0000 
     41 H          34.1949  -10.3517   31.5795 H         1 SAH401      0.0000 
     42 H          24.5360   -4.1305   27.5870 H         1 SAH401      0.0000 
     43 H          24.5463   -5.7192   27.3372 H         1 SAH401      0.0000 
     44 H          24.6639   -5.1396   28.8327 H         1 SAH401      0.0000 
     45 H          31.3362   -5.7600   26.4598 H         1 SAH401      0.0000 
     46 H          32.6362   -7.3663   27.1494 H         1 SAH401      0.0000 
@<TRIPOS>BOND
     1    2    1 1    
     2   42    1 1    
     3   43    1 1    
     4   44    1 1    
     5    3    2 1    
     6    6    2 1    
     7   27    2 1    
     8    4    3 1    
     9   28    3 1    
    10   29    3 1    
    11    5    4 1    
    12   30    4 1    
    13   31    4 1    
    14    9    5 1    
    15    7    6 ar   
    16    8    6 ar   
    17   10    9 1    
    18   32    9 1    
    19   33    9 1    
    20   11   10 1    
    21   12   10 1    
    22   34   10 1    
    23   16   11 1    
    24   13   12 1    
    25   14   12 1    
    26   35   12 1    
    27   45   13 1    
    28   15   14 1    
    29   16   14 1    
    30   36   14 1    
    31   46   15 1    
    32   17   16 1    
    33   37   16 1    
    34   18   17 1    
    35   26   17 1    
    36   19   18 2    
    37   38   18 1    
    38   20   19 1    
    39   21   20 ar   
    40   26   20 ar   
    41   22   21 1    
    42   23   21 ar   
    43   39   22 1    
    44   40   22 1    
    45   24   23 ar   
    46   25   24 ar   
    47   41   24 1    
    48   26   25 ar   
@<TRIPOS>SUBSTRUCTURE
     1 SAH401      1 GROUP   
@<TRIPOS>SET

