#    Name: 4ere_0R2_1_INTS_M
#    Modification time : Mon Mar 24 18:34:51 2014

@<TRIPOS>MOLECULE
4ere_0R2_1_INTS_M
   76     0     9     0     0
SMALL
NO_CHARGES


@<TRIPOS>ATOM
      1 CA          5.1885   24.7840   23.7640 C.3       3 GLC5        0.0000 
      2 CA          6.8170   24.5610   22.6940 C.3       9 GLL5        0.0000 
      3 CA          3.5600   25.0070   24.8340 C.3       6 GLP5        0.0000 
      4 CA          5.1020   25.3530   21.9305 C.3       3 GLC5        0.0000 
      5 CA          3.3870   26.1450   21.1670 C.3       6 GLP5        0.0000 
      6 CA          8.9350   22.6805   22.6900 C.3       3 GLC5        0.0000 
      7 CA          9.6140   24.5190   22.1620 C.3       9 GLL5        0.0000 
      8 CA          8.2560   20.8420   23.2180 C.3       6 GLP5        0.0000 
      9 CA          9.6010   29.6105   16.6765 C.3       3 GLC5        0.0000 
     10 CA         11.3600   29.2640   17.1030 C.3       9 GLL5        0.0000 
     11 CA          7.8420   29.9570   16.2500 C.3       6 GLP5        0.0000 
     12 NZ         11.9595   32.4965   16.3510 N.4       2 LYC4        0.0000 
     13 NZ         11.8950   31.5220   17.6840 N.4       8 LYL4        0.0000 
     14 NZ         12.0240   33.4710   15.0180 N.4       5 LYP4        0.0000 
     15 N          11.9595   32.4965   16.3510 N.am      1 SEC2        0.0000 
     16 N          11.8950   31.5220   17.6840 N.am      7 SEL2        0.0000 
     17 N          12.0240   33.4710   15.0180 N.am      4 SEP2        0.0000 
     18 N          11.9885   31.5210   19.1490 N.am      1 SEC2        0.0000 
     19 N          12.0820   31.5200   20.6140 N.am      4 SEP2        0.0000 
     20 NZ         12.1970   32.1830   15.3065 N.4       2 LYC4        0.0000 
     21 NZ         12.3700   30.8950   15.5950 N.4       8 LYL4        0.0000 
     22 N          12.1970   32.1830   15.3065 N.am      1 SEC2        0.0000 
     23 N          12.3700   30.8950   15.5950 N.am      7 SEL2        0.0000 
     24 CA         10.3405   30.3700   24.5640 C.3       3 GLC5        0.0000 
     25 CA         10.7840   28.6540   24.7730 C.3       9 GLL5        0.0000 
     26 CA          9.8970   32.0860   24.3550 C.3       6 GLP5        0.0000 
     27 CA          9.1010   28.0770   24.9480 C.3       3 GLC5        0.0000 
     28 CA          7.4180   27.5000   25.1230 C.3       6 GLP5        0.0000 
     29 CA         11.3840   29.4215   26.5130 C.3       3 GLC5        0.0000 
     30 CA         11.9840   30.1890   28.2530 C.3       6 GLP5        0.0000 
     31 CA          9.4265   28.6680   22.3700 C.3       3 GLC5        0.0000 
     32 CA         11.5900   28.2790   22.2400 C.3       9 GLL5        0.0000 
     33 CA          7.2630   29.0570   22.5000 C.3       6 GLP5        0.0000 
     34 CA         10.2020   22.9995   15.0465 C.3       3 GLC5        0.0000 
     35 CA         10.2490   24.3790   16.5810 C.3       9 GLL5        0.0000 
     36 CA         10.1550   21.6200   13.5120 C.3       6 GLP5        0.0000 
     37 CA          9.3045   22.8995   17.9985 C.3       3 GLC5        0.0000 
     38 CA          8.7940   24.7600   16.9540 C.3       9 GLL5        0.0000 
     39 CA          9.8150   21.0390   19.0430 C.3       6 GLP5        0.0000 
     40 CA          7.3465   24.0175   18.1690 C.3       3 GLC5        0.0000 
     41 CA          5.8990   23.2750   19.3840 C.3       6 GLP5        0.0000 
     42 CA          7.7510   26.3645   17.1200 C.3       3 GLC5        0.0000 
     43 CA          6.7080   27.9690   17.2860 C.3       6 GLP5        0.0000 
     44 CA         14.7605   19.4570   17.5120 C.3       3 GLC5        0.0000 
     45 CA         13.4470   20.5590   16.5200 C.3       9 GLL5        0.0000 
     46 CA         16.0740   18.3550   18.5040 C.3       6 GLP5        0.0000 
     47 CA         11.6310   20.7990   17.7815 C.3       3 GLC5        0.0000 
     48 CA         11.9825   20.3195   14.8565 C.3       3 GLC5        0.0000 
     49 CA         10.5180   20.0800   13.1930 C.3       6 GLP5        0.0000 
     50 CA         15.5100   20.5625   18.7105 C.3       3 GLC5        0.0000 
     51 CA         15.0750   22.0720   17.7190 C.3       9 GLL5        0.0000 
     52 CA         15.9450   19.0530   19.7020 C.3       6 GLP5        0.0000 
     53 CA          7.9127   22.8147   22.7405 C.3       3 GLC5        0.0000 
     54 CA          8.3220   25.0140   21.8320 C.3       9 GLL5        0.0000 
     55 CA          7.4937   26.1437   23.6930 C.3       3 GLC5        0.0000 
     56 CA          6.8801   24.3066   20.4430 C.3       3 GLC5        0.0000 
     57 CA          7.7067   27.0295   18.8165 C.3       3 GLC5        0.0000 
     58 CA          8.1530   25.8890   20.7410 C.3       9 GLL5        0.0000 
     59 CA          7.9843   27.5735   21.4235 C.3       3 GLC5        0.0000 
     60 CA          9.2580   26.2910   19.9530 C.3       9 GLL5        0.0000 
     61 CA         10.9817   24.9280   23.6848 C.3       3 GLC5        0.0000 
     62 CA         11.8010   25.1390   25.5970 C.3       6 GLP5        0.0000 
     63 CA         10.2888   22.7593   18.1137 C.3       3 GLC5        0.0000 
     64 CA         11.2760   24.5800   17.7880 C.3       9 GLL5        0.0000 
     65 CA         14.0348   26.8422   24.6713 C.3       3 GLC5        0.0000 
     66 CA         14.2970   28.1450   22.9560 C.3       9 GLL5        0.0000 
     67 CA         14.2630   25.4350   25.8960 C.3       6 GLP5        0.0000 
     68 CA         12.2512   30.1743   23.2530 C.3       3 GLC5        0.0000 
     69 CA         13.3160   28.3540   23.9370 C.3       9 GLL5        0.0000 
     70 CA         11.8560   31.9620   22.7550 C.3       6 GLP5        0.0000 
     71 CA         11.5907   26.8377   24.8830 C.3       3 GLC5        0.0000 
     72 CA         11.9770   28.4190   23.5650 C.3       9 GLL5        0.0000 
     73 CA         11.5675   29.8976   21.4970 C.3       3 GLC5        0.0000 
     74 CA         11.1630   31.6980   21.6200 C.3       6 GLP5        0.0000 
     75 CA          8.5572   24.8392   15.0382 C.3       3 GLC5        0.0000 
     76 CA          7.5930   25.1090   13.3090 C.3       6 GLP5        0.0000 
@<TRIPOS>BOND
@<TRIPOS>SUBSTRUCTURE
     1 SEC2       15 GROUP        1 X    SEC  0     ROOT SEC X 2
     2 LYC4       12 GROUP        1 X    LYC  0     **** LYC X 4
     3 GLC5        1 GROUP        1 X    GLC  0     **** GLC X 6
     4 SEP2       17 GROUP        1 Y    SEP  0     ROOT SEP Y 9
     5 LYP4       14 GROUP        1 Y    LYP  0     **** LYP Y 11
     6 GLP5        3 GROUP        1 Y    GLP  0     **** GLP Y 13
     7 SEL2       16 GROUP        1 Z    SEL  0     ROOT SEL Z 16
     8 LYL4       13 GROUP        1 Z    LYL  0     **** LYL Z 18
     9 GLL5        2 GROUP        1 Z    GLL  0     **** GLL Z 20
@<TRIPOS>SET

