#    Name: 4ere_0R2_1_ligand
#    Modification time : Mon Mar 24 18:34:51 2014

@<TRIPOS>MOLECULE
4ere_0R2_1_ligand
   65    67     1     0     0
SMALL
NO_CHARGES


@<TRIPOS>ATOM
      1 CL1         6.8170   24.5610   22.6940 Cl        1 0R2201      0.0000 
      2 C1          8.3220   25.0140   21.8320 C.ar      1 0R2201      0.0000 
      3 C2          8.1530   25.8890   20.7410 C.ar      1 0R2201      0.0000 
      4 C3          9.2580   26.2910   19.9530 C.ar      1 0R2201      0.0000 
      5 C4          9.6140   24.5190   22.1620 C.ar      1 0R2201      0.0000 
      6 C5         10.7110   24.9150   21.3830 C.ar      1 0R2201      0.0000 
      7 C6         10.5380   25.7980   20.2830 C.ar      1 0R2201      0.0000 
      8 C7         11.7560   26.2730   19.4860 C.3       1 0R2201      0.0000 
      9 N1         11.6390   25.9590   18.0710 N.am      1 0R2201      0.0000 
     10 C8         11.2760   24.5800   17.7880 C.3       1 0R2201      0.0000 
     11 C9         12.8120   24.1200   17.4490 C.2       1 0R2201      0.0000 
     12 O4         13.7910   24.8510   17.4610 O.2       1 0R2201      0.0000 
     13 C11        11.9220   26.8180   17.0340 C.2       1 0R2201      0.0000 
     14 O1         11.7930   26.4570   15.8880 O.2       1 0R2201      0.0000 
     15 C12        12.4820   28.2390   17.3520 C.3       1 0R2201      0.0000 
     16 C13        11.3600   29.2640   17.1030 C.3       1 0R2201      0.0000 
     17 C14        11.9110   30.6820   16.8340 C.2       1 0R2201      0.0000 
     18 O2         11.8950   31.5220   17.6840 O.co2     1 0R2201      0.0000 
     19 O3         12.3700   30.8950   15.5950 O.co2     1 0R2201      0.0000 
     20 C15        13.0990   28.2900   18.7360 C.3       1 0R2201      0.0000 
     21 C16        12.1450   27.7790   19.7870 C.3       1 0R2201      0.0000 
     22 C17        12.5630   28.0520   21.2290 C.ar      1 0R2201      0.0000 
     23 C18        13.9190   27.9980   21.6120 C.ar      1 0R2201      0.0000 
     24 C19        14.2970   28.1450   22.9560 C.ar      1 0R2201      0.0000 
     25 C20        13.3160   28.3540   23.9370 C.ar      1 0R2201      0.0000 
     26 C21        11.9770   28.4190   23.5650 C.ar      1 0R2201      0.0000 
     27 CL2        10.7840   28.6540   24.7730 Cl        1 0R2201      0.0000 
     28 C22        11.5900   28.2790   22.2400 C.ar      1 0R2201      0.0000 
     29 C10        10.2490   24.3790   16.5810 C.3       1 0R2201      0.0000 
     30 C23         8.7940   24.7600   16.9540 C.3       1 0R2201      0.0000 
     31 O5         12.8170   22.7390   17.1720 O.3       1 0R2201      0.0000 
     32 C24        13.9950   21.9680   16.6390 C.3       1 0R2201      0.0000 
     33 C25        13.4470   20.5590   16.5200 C.3       1 0R2201      0.0000 
     34 C26        15.0750   22.0720   17.7190 C.3       1 0R2201      0.0000 
     35 C27        14.2290   22.5700   15.2440 C.3       1 0R2201      0.0000 
     36 H           7.2155   26.2420   20.5116 H         1 0R2201      0.0000 
     37 H           9.1305   26.9183   19.1706 H         1 0R2201      0.0000 
     38 H           9.7305   23.8911   22.9486 H         1 0R2201      0.0000 
     39 H          11.6513   24.5682   21.6029 H         1 0R2201      0.0000 
     40 H          12.6329   25.6710   19.8988 H         1 0R2201      0.0000 
     41 H          11.0093   24.0671   18.6460 H         1 0R2201      0.0000 
     42 H          13.2688   28.4255   16.6029 H         1 0R2201      0.0000 
     43 H          10.7070   29.2983   17.9773 H         1 0R2201      0.0000 
     44 H          10.7692   28.9449   16.2420 H         1 0R2201      0.0000 
     45 H          13.3774   29.3236   18.9675 H         1 0R2201      0.0000 
     46 H          14.0111   27.6838   18.7455 H         1 0R2201      0.0000 
     47 H          11.1679   28.3474   19.6206 H         1 0R2201      0.0000 
     48 H          14.6409   27.8484   20.8929 H         1 0R2201      0.0000 
     49 H          15.2841   28.0998   23.2187 H         1 0R2201      0.0000 
     50 H          13.5887   28.4572   24.9174 H         1 0R2201      0.0000 
     51 H          10.6011   28.3372   21.9735 H         1 0R2201      0.0000 
     52 H          10.2882   23.3329   16.2828 H         1 0R2201      0.0000 
     53 H          10.5875   24.9965   15.7510 H         1 0R2201      0.0000 
     54 H           8.4485   24.2080   17.7129 H         1 0R2201      0.0000 
     55 H           8.7203   25.7180   17.2310 H         1 0R2201      0.0000 
     56 H           8.1670   24.6279   16.1862 H         1 0R2201      0.0000 
     57 H          14.1344   19.9213   16.1723 H         1 0R2201      0.0000 
     58 H          13.1384   20.2047   17.4028 H         1 0R2201      0.0000 
     59 H          12.6656   20.5158   15.8975 H         1 0R2201      0.0000 
     60 H          15.9078   21.5829   17.4597 H         1 0R2201      0.0000 
     61 H          15.3352   23.0216   17.8938 H         1 0R2201      0.0000 
     62 H          14.7680   21.6872   18.5895 H         1 0R2201      0.0000 
     63 H          14.4317   23.5481   15.2908 H         1 0R2201      0.0000 
     64 H          14.9970   22.1336   14.7752 H         1 0R2201      0.0000 
     65 H          13.4279   22.4646   14.6549 H         1 0R2201      0.0000 
@<TRIPOS>BOND
     1    2    1 1    
     2    3    2 ar   
     3    5    2 ar   
     4    4    3 ar   
     5   36    3 1    
     6    7    4 ar   
     7   37    4 1    
     8    6    5 ar   
     9   38    5 1    
    10    7    6 ar   
    11   39    6 1    
    12    8    7 1    
    13    9    8 1    
    14   21    8 1    
    15   40    8 1    
    16   10    9 1    
    17   13    9 am   
    18   11   10 1    
    19   29   10 1    
    20   41   10 1    
    21   12   11 2    
    22   31   11 1    
    23   14   13 2    
    24   15   13 1    
    25   16   15 1    
    26   20   15 1    
    27   42   15 1    
    28   17   16 1    
    29   43   16 1    
    30   44   16 1    
    31   18   17 ar   
    32   19   17 ar   
    33   21   20 1    
    34   45   20 1    
    35   46   20 1    
    36   22   21 1    
    37   47   21 1    
    38   23   22 ar   
    39   28   22 ar   
    40   24   23 ar   
    41   48   23 1    
    42   25   24 ar   
    43   49   24 1    
    44   26   25 ar   
    45   50   25 1    
    46   27   26 1    
    47   28   26 ar   
    48   51   28 1    
    49   30   29 1    
    50   52   29 1    
    51   53   29 1    
    52   54   30 1    
    53   55   30 1    
    54   56   30 1    
    55   32   31 1    
    56   33   32 1    
    57   34   32 1    
    58   35   32 1    
    59   57   33 1    
    60   58   33 1    
    61   59   33 1    
    62   60   34 1    
    63   61   34 1    
    64   62   34 1    
    65   63   35 1    
    66   64   35 1    
    67   65   35 1    
@<TRIPOS>SUBSTRUCTURE
     1 0R2201      1 GROUP   
@<TRIPOS>SET

