#    Name: 2hb7_O1C_1_INTS_M
#    Modification time : Tue Mar 25 15:50:06 2014

@<TRIPOS>MOLECULE
2hb7_O1C_1_INTS_M
  139     0     9     0     0
SMALL
NO_CHARGES


@<TRIPOS>ATOM
      1 CA         12.4440   17.9375   33.0510 C.3       3 GLC5        0.0000 
      2 CA         13.4410   18.7110   34.7900 C.3       9 GLL5        0.0000 
      3 CA         11.4470   17.1640   31.3120 C.3       6 GLP5        0.0000 
      4 CA         11.9415   17.0525   36.1310 C.3       3 GLC5        0.0000 
      5 CA         14.0730   17.6960   35.8140 C.3       9 GLL5        0.0000 
      6 CA          9.8100   16.4090   36.4480 C.3       6 GLP5        0.0000 
      7 CA         14.3705   17.4775   37.6655 C.3       3 GLC5        0.0000 
      8 CA         14.6680   17.2590   39.5170 C.3       6 GLP5        0.0000 
      9 CA         15.5820   18.8790   36.5395 C.3       3 GLC5        0.0000 
     10 CA         17.0910   20.0620   37.2650 C.3       6 GLP5        0.0000 
     11 CA         16.1840   15.6930   36.0970 C.3       3 GLC5        0.0000 
     12 CA         14.8400   16.5060   35.0630 C.3       9 GLL5        0.0000 
     13 CA         17.5280   14.8800   37.1310 C.3       6 GLP5        0.0000 
     14 CA         17.1835   15.9295   35.0760 C.3       3 GLC5        0.0000 
     15 CA         15.9170   17.1270   34.0470 C.3       9 GLL5        0.0000 
     16 CA         18.4500   14.7320   36.1050 C.3       6 GLP5        0.0000 
     17 CA         16.9955   15.7900   33.1650 C.3       3 GLC5        0.0000 
     18 CA         18.0740   14.4530   32.2830 C.3       6 GLP5        0.0000 
     19 CA         14.6640   16.7490   31.5940 C.3       3 GLC5        0.0000 
     20 CA         15.2750   18.2000   33.0740 C.3       9 GLL5        0.0000 
     21 CA         14.0530   15.2980   30.1140 C.3       6 GLP5        0.0000 
     22 CA         13.3610   17.6820   32.1930 C.3       3 GLC5        0.0000 
     23 CA         15.2000   24.4360   34.3655 C.3       3 GLC5        0.0000 
     24 CA         13.1510   24.0590   34.3700 C.3       9 GLL5        0.0000 
     25 CA         17.2490   24.8130   34.3610 C.3       6 GLP5        0.0000 
     26 CA         14.9730   24.8150   31.7470 C.3       3 GLC5        0.0000 
     27 CA         12.9640   23.8880   31.3570 C.3       9 GLL5        0.0000 
     28 CA         16.9820   25.7420   32.1370 C.3       6 GLP5        0.0000 
     29 CA         14.1175   23.9580   29.7890 C.3       3 GLC5        0.0000 
     30 CA         15.2710   24.0280   28.2210 C.3       6 GLP5        0.0000 
     31 CA         14.6540   22.3925   30.3560 C.3       3 GLC5        0.0000 
     32 CA         14.1590   23.2610   32.1500 C.3       9 GLL5        0.0000 
     33 CA         15.1490   21.5240   28.5620 C.3       6 GLP5        0.0000 
     34 CA         11.9180   22.2885   36.9025 C.3       3 GLC5        0.0000 
     35 CA         12.7250   23.8900   35.8980 C.3       9 GLL5        0.0000 
     36 CA         11.1110   20.6870   37.9070 C.3       6 GLP5        0.0000 
     37 CA         14.4430   22.5415   36.3500 C.3       3 GLC5        0.0000 
     38 CA         16.1610   21.1930   36.8020 C.3       6 GLP5        0.0000 
     39 CA         12.0380   25.0170   38.1760 C.3       3 GLC5        0.0000 
     40 CA         11.5180   24.8700   36.0900 C.3       9 GLL5        0.0000 
     41 CA         12.5580   25.1640   40.2620 C.3       6 GLP5        0.0000 
     42 CA         11.4115   18.7600   33.0440 C.3       3 GLC5        0.0000 
     43 CA         12.0940   19.0120   34.7560 C.3       9 GLL5        0.0000 
     44 CA         10.7290   18.5080   31.3320 C.3       6 GLP5        0.0000 
     45 CA         10.9520   17.7105   35.6020 C.3       3 GLC5        0.0000 
     46 N          17.8875   16.7950   35.0655 N.am      2 SEC2        0.0000 
     47 N          16.9470   17.7700   34.7820 N.am      8 SEL2        0.0000 
     48 N          18.8280   15.8200   35.3490 N.am      5 SEP2        0.0000 
     49 O          17.7710   18.6440   34.0540 O.2       1 ALC1        0.0000 
     50 O          16.9470   17.7700   34.7820 O.2       7 ALL1        0.0000 
     51 O          18.5950   19.5180   33.3260 O.2       4 ALP1        0.0000 
     52 N          13.2665   15.8395   37.2455 N.am      2 SEC2        0.0000 
     53 N          13.1000   17.1420   36.6560 N.am      8 SEL2        0.0000 
     54 N          13.4330   14.5370   37.8350 N.am      5 SEP2        0.0000 
     55 O          11.8475   16.7530   35.9610 O.2       1 ALC1        0.0000 
     56 O          13.1000   17.1420   36.6560 O.2       7 ALL1        0.0000 
     57 O          10.5950   16.3640   35.2660 O.2       4 ALP1        0.0000 
     58 CA          8.2820   24.8275   37.0850 C.3       3 GLC5        0.0000 
     59 CA          8.5950   25.4620   35.0540 C.3       9 GLL5        0.0000 
     60 CA          7.9690   24.1930   39.1160 C.3       6 GLP5        0.0000 
     61 CA          9.2355   22.2780   33.9455 C.3       3 GLC5        0.0000 
     62 CA         10.7230   23.1810   33.6070 C.3       9 GLL5        0.0000 
     63 CA          7.7480   21.3750   34.2840 C.3       6 GLP5        0.0000 
     64 CA          8.2350   28.4920   34.1510 C.3       3 GLC5        0.0000 
     65 CA          9.8150   27.6420   35.2310 C.3       9 GLL5        0.0000 
     66 CA          6.6550   29.3420   33.0710 C.3       6 GLP5        0.0000 
     67 CA          9.3165   29.2525   36.0145 C.3       3 GLC5        0.0000 
     68 CA          8.8180   30.8630   36.7980 C.3       6 GLP5        0.0000 
     69 CA         11.8185   27.8560   35.8805 C.3       3 GLC5        0.0000 
     70 CA         13.8220   28.0700   36.5300 C.3       6 GLP5        0.0000 
     71 CA          8.0120   27.7140   36.5055 C.3       3 GLC5        0.0000 
     72 CA          6.2090   27.7860   37.7800 C.3       6 GLP5        0.0000 
     73 CA          7.0235   27.4900   33.5840 C.3       3 GLC5        0.0000 
     74 CA          7.3920   25.6380   34.0970 C.3       9 GLL5        0.0000 
     75 N           4.8695   26.6955   36.1670 N.am      2 SEC2        0.0000 
     76 N           4.4790   26.5560   34.8420 N.am      8 SEL2        0.0000 
     77 N           5.2600   26.8350   37.4920 N.am      5 SEP2        0.0000 
     78 O           5.1470   27.7180   34.4480 O.2       1 ALC1        0.0000 
     79 O           4.4790   26.5560   34.8420 O.2       7 ALL1        0.0000 
     80 O           5.8150   28.8800   34.0540 O.2       4 ALP1        0.0000 
     81 CA          2.1310   25.5550   35.3430 C.3       3 GLC5        0.0000 
     82 CA          3.6270   24.3300   34.4790 C.3       9 GLL5        0.0000 
     83 CA          0.6350   26.7800   36.2070 C.3       6 GLP5        0.0000 
     84 CA          1.9260   24.0615   33.0340 C.3       3 GLC5        0.0000 
     85 CA          0.2250   23.7930   31.5890 C.3       6 GLP5        0.0000 
     86 CA          2.1980   23.0810   34.8010 C.3       3 GLC5        0.0000 
     87 CA          0.7690   21.8320   35.1230 C.3       6 GLP5        0.0000 
     88 CA          3.4875   23.4195   36.4485 C.3       3 GLC5        0.0000 
     89 CA          3.3480   22.5090   38.4180 C.3       6 GLP5        0.0000 
     90 CA          3.8220   25.5885   31.0315 C.3       3 GLC5        0.0000 
     91 CA          4.6060   25.6710   32.5760 C.3       9 GLL5        0.0000 
     92 CA          3.0380   25.5060   29.4870 C.3       6 GLP5        0.0000 
     93 CA          5.6305   27.5065   32.8235 C.3       3 GLC5        0.0000 
     94 CA          3.0655   27.0700   32.2420 C.3       3 GLC5        0.0000 
     95 CA          1.5250   28.4690   31.9080 C.3       6 GLP5        0.0000 
     96 CA         12.6560   16.3485   32.7810 C.3       3 GLC5        0.0000 
     97 CA         13.8650   15.5330   34.2500 C.3       9 GLL5        0.0000 
     98 CA         15.9180   14.0895   32.4520 C.3       3 GLC5        0.0000 
     99 CA         14.5000   14.2340   33.6840 C.3       9 GLL5        0.0000 
    100 CA         17.3360   13.9450   31.2200 C.3       6 GLP5        0.0000 
    101 CA         16.0525   13.5055   36.3300 C.3       3 GLC5        0.0000 
    102 CA         14.9760   13.2490   34.7920 C.3       9 GLL5        0.0000 
    103 CA         17.1290   13.7620   37.8680 C.3       6 GLP5        0.0000 
    104 CA         16.5250   13.8510   33.5375 C.3       3 GLC5        0.0000 
    105 N          13.6850   13.6710   36.7270 N.am      2 SEC2        0.0000 
    106 N          13.9370   12.8050   35.6190 N.am      8 SEL2        0.0000 
    107 O          13.8450   11.4775   35.1935 O.2       1 ALC1        0.0000 
    108 O          13.9370   12.8050   35.6190 O.2       7 ALL1        0.0000 
    109 O          13.7530   10.1500   34.7680 O.2       4 ALP1        0.0000 
    110 CA         13.1247   19.7707   32.2245 C.3       3 GLC5        0.0000 
    111 CA         14.4930   19.2840   33.8150 C.3       9 GLL5        0.0000 
    112 CA         11.6180   19.6070   30.7540 C.3       6 GLP5        0.0000 
    113 CA         15.0640   20.0953   35.5523 C.3       3 GLC5        0.0000 
    114 CA         11.9392   19.7742   36.3400 C.3       3 GLC5        0.0000 
    115 CA         17.5720   18.1172   33.2283 C.3       3 GLC5        0.0000 
    116 CA         19.5480   18.5710   32.8960 C.3       6 GLP5        0.0000 
    117 CA         16.4170   17.7957   31.7872 C.3       3 GLC5        0.0000 
    118 CA         17.2380   17.9280   30.0140 C.3       6 GLP5        0.0000 
    119 CA         16.2047   21.9520   33.9038 C.3       3 GLC5        0.0000 
    120 CA         14.1330   21.7450   34.1820 C.3       9 GLL5        0.0000 
    121 CA         17.9580   22.7390   33.9290 C.3       6 GLP5        0.0000 
    122 CA         15.1546   21.6175   35.2774 C.3       3 GLC5        0.0000 
    123 CA         14.7700   20.5850   33.5750 C.3       9 GLL5        0.0000 
    124 CA         15.6655   23.8750   32.9233 C.3       3 GLC5        0.0000 
    125 CA         13.8450   22.9190   33.6270 C.3       9 GLL5        0.0000 
    126 CA         17.3290   24.6600   32.9580 C.3       6 GLP5        0.0000 
    127 CA         11.3775   23.6310   30.2222 C.3       3 GLC5        0.0000 
    128 CA         10.2600   22.8950   28.6820 C.3       6 GLP5        0.0000 
    129 CA         12.5235   26.3130   31.1567 C.3       3 GLC5        0.0000 
    130 CA         12.5520   28.2590   30.5510 C.3       6 GLP5        0.0000 
    131 CA         12.7719   26.5235   35.9378 C.3       3 GLC5        0.0000 
    132 CA         10.2193   28.2010   33.2208 C.3       3 GLC5        0.0000 
    133 CA         10.6020   29.4600   31.5550 C.3       6 GLP5        0.0000 
    134 CA          7.4121   23.2728   34.4016 C.3       3 GLC5        0.0000 
    135 CA          6.6426   26.4783   36.1496 C.3       3 GLC5        0.0000 
    136 CA          6.1590   24.7910   34.4630 C.3       9 GLL5        0.0000 
    137 CA         14.1178   15.0907   32.0405 C.3       3 GLC5        0.0000 
    138 CA         12.9300   12.8753   33.6920 C.3       3 GLC5        0.0000 
    139 CA         11.1220   12.0090   33.1460 C.3       6 GLP5        0.0000 
@<TRIPOS>BOND
@<TRIPOS>SUBSTRUCTURE
     1 ALC1       49 GROUP        1 X    ALC  0     ROOT ALC X 1
     2 SEC2       46 GROUP        1 X    SEC  0     **** SEC X 2
     3 GLC5        1 GROUP        1 X    GLC  0     **** GLC X 6
     4 ALP1       51 GROUP        1 Y    ALP  0     ROOT ALP Y 8
     5 SEP2       48 GROUP        1 Y    SEP  0     **** SEP Y 9
     6 GLP5        3 GROUP        1 Y    GLP  0     **** GLP Y 13
     7 ALL1       50 GROUP        1 Z    ALL  0     ROOT ALL Z 15
     8 SEL2       47 GROUP        1 Z    SEL  0     **** SEL Z 16
     9 GLL5        2 GROUP        1 Z    GLL  0     **** GLL Z 20
@<TRIPOS>SET

