#    Name: 2hb7_O1C_1_ligand
#    Modification time : Tue Mar 25 15:50:06 2014

@<TRIPOS>MOLECULE
2hb7_O1C_1_ligand
   82    84     1     0     0
SMALL
NO_CHARGES


@<TRIPOS>ATOM
      1 C5         14.4930   19.2840   33.8150 C.2       1 O1C1001     0.0000 
      2 C10        13.4410   18.7110   34.7900 C.2       1 O1C1001     0.0000 
      3 C1         14.0730   17.6960   35.8140 C.3       1 O1C1001     0.0000 
      4 C2         14.8400   16.5060   35.0630 C.3       1 O1C1001     0.0000 
      5 C3         15.9170   17.1270   34.0470 C.3       1 O1C1001     0.0000 
      6 C4         15.2750   18.2000   33.0740 C.3       1 O1C1001     0.0000 
      7 C6         14.7700   20.5850   33.5750 C.2       1 O1C1001     0.0000 
      8 C7         14.1330   21.7450   34.1820 C.2       1 O1C1001     0.0000 
      9 C8         13.8450   22.9190   33.6270 C.2       1 O1C1001     0.0000 
     10 C14        13.1510   24.0590   34.3700 C.3       1 O1C1001     0.0000 
     11 C13        11.7260   24.4310   33.6840 C.3       1 O1C1001     0.0000 
     12 C12        12.0260   24.8460   32.1680 C.3       1 O1C1001     0.0000 
     13 C11        12.9640   23.8880   31.3570 C.3       1 O1C1001     0.0000 
     14 C9         14.1590   23.2610   32.1500 C.3       1 O1C1001     0.0000 
     15 C15        12.7250   23.8900   35.8980 C.3       1 O1C1001     0.0000 
     16 C16        11.5180   24.8700   36.0900 C.3       1 O1C1001     0.0000 
     17 C17        11.3220   25.5740   34.6970 C.3       1 O1C1001     0.0000 
     18 C19        12.0940   19.0120   34.7560 C.2       1 O1C1001     0.0000 
     19 O2         16.9470   17.7700   34.7820 O.3       1 O1C1001     0.0000 
     20 O1         13.1000   17.1420   36.6560 O.3       1 O1C1001     0.0000 
     21 C20         9.8580   26.2420   34.5420 C.3       1 O1C1001     0.0000 
     22 C22         8.5950   25.4620   35.0540 C.3       1 O1C1001     0.0000 
     23 C18        10.7230   23.1810   33.6070 C.3       1 O1C1001     0.0000 
     24 C21         9.8150   27.6420   35.2310 C.3       1 O1C1001     0.0000 
     25 C23         7.3920   25.6380   34.0970 C.3       1 O1C1001     0.0000 
     26 C24         6.1590   24.7910   34.4630 C.3       1 O1C1001     0.0000 
     27 C25         4.7290   25.3680   34.1090 C.3       1 O1C1001     0.0000 
     28 O25         4.4790   26.5560   34.8420 O.3       1 O1C1001     0.0000 
     29 C27         3.6270   24.3300   34.4790 C.3       1 O1C1001     0.0000 
     30 C26         4.6060   25.6710   32.5760 C.3       1 O1C1001     0.0000 
     31 C28        13.8650   15.5330   34.2500 C.3       1 O1C1001     0.0000 
     32 C29        14.5000   14.2340   33.6840 C.3       1 O1C1001     0.0000 
     33 C30        14.9760   13.2490   34.7920 C.3       1 O1C1001     0.0000 
     34 O31        13.9370   12.8050   35.6190 O.3       1 O1C1001     0.0000 
     35 H          14.8368   18.2333   36.3726 H         1 O1C1001     0.0000 
     36 H          15.3766   15.9313   35.7850 H         1 O1C1001     0.0000 
     37 H          16.2912   16.3245   33.4446 H         1 O1C1001     0.0000 
     38 H          16.0847   18.6529   32.4981 H         1 O1C1001     0.0000 
     39 H          14.6146   17.6701   32.3844 H         1 O1C1001     0.0000 
     40 H          15.5391   20.8308   32.8640 H         1 O1C1001     0.0000 
     41 H          13.8757   21.5853   35.2295 H         1 O1C1001     0.0000 
     42 H          13.7143   24.9897   34.3050 H         1 O1C1001     0.0000 
     43 H          12.4700   25.8540   32.1801 H         1 O1C1001     0.0000 
     44 H          11.0590   24.9243   31.6464 H         1 O1C1001     0.0000 
     45 H          13.3710   24.4463   30.4962 H         1 O1C1001     0.0000 
     46 H          12.3509   23.0683   30.9440 H         1 O1C1001     0.0000 
     47 H          14.4753   22.3453   31.6306 H         1 O1C1001     0.0000 
     48 H          15.0021   23.9655   32.1178 H         1 O1C1001     0.0000 
     49 H          13.5293   24.1913   36.5068 H         1 O1C1001     0.0000 
     50 H          12.4068   22.8982   36.0508 H         1 O1C1001     0.0000 
     51 H          11.7680   25.5983   36.8150 H         1 O1C1001     0.0000 
     52 H          10.6484   24.3155   36.3242 H         1 O1C1001     0.0000 
     53 H          12.0780   26.3441   34.6385 H         1 O1C1001     0.0000 
     54 H           9.7040   26.4456   33.4639 H         1 O1C1001     0.0000 
     55 H           8.3322   25.8397   36.0367 H         1 O1C1001     0.0000 
     56 H           8.8468   24.4090   35.1266 H         1 O1C1001     0.0000 
     57 H           7.7135   25.3775   33.0768 H         1 O1C1001     0.0000 
     58 H           7.1042   26.7005   34.0860 H         1 O1C1001     0.0000 
     59 H           6.1727   24.5848   35.5577 H         1 O1C1001     0.0000 
     60 H           6.2458   23.7940   33.9736 H         1 O1C1001     0.0000 
     61 H          13.4332   16.1175   33.4197 H         1 O1C1001     0.0000 
     62 H          13.0306   15.2665   34.9210 H         1 O1C1001     0.0000 
     63 H          15.3574   14.5017   33.0605 H         1 O1C1001     0.0000 
     64 H          13.7645   13.7254   33.0548 H         1 O1C1001     0.0000 
     65 H          15.7723   13.7794   35.3582 H         1 O1C1001     0.0000 
     66 H          15.4870   12.4133   34.2663 H         1 O1C1001     0.0000 
     67 H          11.1084   22.4279   33.0738 H         1 O1C1001     0.0000 
     68 H          10.5105   22.8188   34.5146 H         1 O1C1001     0.0000 
     69 H           9.8536   23.4282   33.1792 H         1 O1C1001     0.0000 
     70 H          10.0164   27.5811   36.2086 H         1 O1C1001     0.0000 
     71 H          10.4816   28.2724   34.8331 H         1 O1C1001     0.0000 
     72 H           8.9164   28.0718   35.1430 H         1 O1C1001     0.0000 
     73 H           3.7458   23.4696   33.9835 H         1 O1C1001     0.0000 
     74 H           3.6364   24.1101   35.4545 H         1 O1C1001     0.0000 
     75 H           2.7109   24.6682   34.2636 H         1 O1C1001     0.0000 
     76 H           5.2843   26.3409   32.2742 H         1 O1C1001     0.0000 
     77 H           4.7400   24.8487   32.0230 H         1 O1C1001     0.0000 
     78 H           3.7062   26.0388   32.3411 H         1 O1C1001     0.0000 
     79 H          17.5978   18.0872   34.0922 H         1 O1C1001     0.0000 
     80 H          12.3419   16.8993   36.0507 H         1 O1C1001     0.0000 
     81 H           5.1457   27.2227   34.5087 H         1 O1C1001     0.0000 
     82 H          13.8097   11.8423   35.3802 H         1 O1C1001     0.0000 
@<TRIPOS>BOND
     1    2    1 1    
     2    6    1 1    
     3    7    1 2    
     4    3    2 1    
     5   18    2 2    
     6    4    3 1    
     7   20    3 1    
     8   35    3 1    
     9    5    4 1    
    10   31    4 1    
    11   36    4 1    
    12    6    5 1    
    13   19    5 1    
    14   37    5 1    
    15   38    6 1    
    16   39    6 1    
    17    8    7 1    
    18   40    7 1    
    19    9    8 2    
    20   41    8 1    
    21   10    9 1    
    22   14    9 1    
    23   11   10 1    
    24   15   10 1    
    25   42   10 1    
    26   12   11 1    
    27   17   11 1    
    28   23   11 1    
    29   13   12 1    
    30   43   12 1    
    31   44   12 1    
    32   14   13 1    
    33   45   13 1    
    34   46   13 1    
    35   47   14 1    
    36   48   14 1    
    37   16   15 1    
    38   49   15 1    
    39   50   15 1    
    40   17   16 1    
    41   51   16 1    
    42   52   16 1    
    43   21   17 1    
    44   53   17 1    
    45   79   19 1    
    46   80   20 1    
    47   22   21 1    
    48   24   21 1    
    49   54   21 1    
    50   25   22 1    
    51   55   22 1    
    52   56   22 1    
    53   67   23 1    
    54   68   23 1    
    55   69   23 1    
    56   70   24 1    
    57   71   24 1    
    58   72   24 1    
    59   26   25 1    
    60   57   25 1    
    61   58   25 1    
    62   27   26 1    
    63   59   26 1    
    64   60   26 1    
    65   28   27 1    
    66   29   27 1    
    67   30   27 1    
    68   81   28 1    
    69   73   29 1    
    70   74   29 1    
    71   75   29 1    
    72   76   30 1    
    73   77   30 1    
    74   78   30 1    
    75   32   31 1    
    76   61   31 1    
    77   62   31 1    
    78   33   32 1    
    79   63   32 1    
    80   64   32 1    
    81   34   33 1    
    82   65   33 1    
    83   66   33 1    
    84   82   34 1    
@<TRIPOS>SUBSTRUCTURE
     1 O1C1001     1 GROUP   
@<TRIPOS>SET

