#    Name: 1t6y_AMP_5_INTS_M
#    Modification time : Tue Mar 25 04:25:37 2014

@<TRIPOS>MOLECULE
1t6y_AMP_5_INTS_M
   44     0     9     0     0
SMALL
NO_CHARGES


@<TRIPOS>ATOM
      1 N          14.5480  -10.4425   53.0455 N.am      2 SEC2        0.0000 
      2 N          14.1390   -9.2980   53.8190 N.am      8 SEL2        0.0000 
      3 N          14.9570  -11.5870   52.2720 N.am      5 SEP2        0.0000 
      4 N          13.8155   -8.6130   51.1115 N.am      2 SEC2        0.0000 
      5 N          13.6800   -7.4740   52.2160 N.am      8 SEL2        0.0000 
      6 N          13.9510   -9.7520   50.0070 N.am      5 SEP2        0.0000 
      7 N          13.8775   -6.6640   51.1125 N.am      2 SEC2        0.0000 
      8 N          14.0750   -5.8540   50.0090 N.am      5 SEP2        0.0000 
      9 CA         19.7810   -4.1110   52.5440 C.3       3 GLC5        0.0000 
     10 CA         18.5490   -4.4540   53.7990 C.3       9 GLL5        0.0000 
     11 CA         21.0130   -3.7680   51.2890 C.3       6 GLP5        0.0000 
     12 CA         17.8610    1.2115   54.7795 C.3       3 GLC5        0.0000 
     13 CA         16.8590    0.1620   53.4460 C.3       9 GLL5        0.0000 
     14 CA         18.8630    2.2610   56.1130 C.3       6 GLP5        0.0000 
     15 CA         17.3125    1.8780   52.5280 C.3       3 GLC5        0.0000 
     16 CA         17.7660    3.5940   51.6100 C.3       6 GLP5        0.0000 
     17 O          15.5985    2.5520   53.3025 O.2       1 ALC1        0.0000 
     18 O          15.7240    0.9500   53.3500 O.2       7 ALL1        0.0000 
     19 O          15.4730    4.1540   53.2550 O.2       4 ALP1        0.0000 
     20 O          14.3170    0.4200   53.4025 O.2       1 ALC1        0.0000 
     21 O          12.9100   -0.1100   53.4550 O.2       4 ALP1        0.0000 
     22 N          18.1720    1.9255   53.7395 N.am      2 SEC2        0.0000 
     23 N          18.1740    0.6470   53.4770 N.am      8 SEL2        0.0000 
     24 N          18.1700    3.2040   54.0020 N.am      5 SEP2        0.0000 
     25 CA         18.1275   -0.1850   51.6530 C.3       3 GLC5        0.0000 
     26 CA         19.2650   -0.1460   53.5730 C.3       9 GLL5        0.0000 
     27 CA         16.9900   -0.2240   49.7330 C.3       6 GLP5        0.0000 
     28 CA         21.3590   -0.0870   53.2255 C.3       3 GLC5        0.0000 
     29 CA         23.4530   -0.0280   52.8780 C.3       6 GLP5        0.0000 
     30 CA         19.0640    1.0575   54.8430 C.3       3 GLC5        0.0000 
     31 CA         19.1480    1.3440   52.4325 C.3       3 GLC5        0.0000 
     32 CA         19.0310    2.8340   51.2920 C.3       6 GLP5        0.0000 
     33 CA         19.4875   -2.8710   52.4535 C.3       3 GLC5        0.0000 
     34 CA         17.9620   -1.9740   53.6180 C.3       9 GLL5        0.0000 
     35 CA         17.8980   -7.2405   50.8923 C.3       3 GLC5        0.0000 
     36 CA         18.0560   -6.6910   53.0620 C.3       9 GLL5        0.0000 
     37 CA         18.4710   -7.7440   48.9510 C.3       6 GLP5        0.0000 
     38 CA         16.3405   -6.0860   51.2832 C.3       3 GLC5        0.0000 
     39 CA         16.5940   -6.7830   52.6050 C.3       9 GLL5        0.0000 
     40 CA         15.3560   -5.4350   49.7330 C.3       6 GLP5        0.0000 
     41 CA         20.0600   -4.2988   55.5790 C.3       3 GLC5        0.0000 
     42 CA         21.7670   -3.7240   56.6860 C.3       6 GLP5        0.0000 
     43 CA         17.1837   -0.7424   51.6418 C.3       3 GLC5        0.0000 
     44 CA         16.7270   -1.2570   53.5200 C.3       9 GLL5        0.0000 
@<TRIPOS>BOND
@<TRIPOS>SUBSTRUCTURE
     1 ALC1       17 GROUP        1 X    ALC  0     ROOT ALC X 1
     2 SEC2        1 GROUP        1 X    SEC  0     **** SEC X 2
     3 GLC5        9 GROUP        1 X    GLC  0     **** GLC X 6
     4 ALP1       19 GROUP        1 Y    ALP  0     ROOT ALP Y 8
     5 SEP2        3 GROUP        1 Y    SEP  0     **** SEP Y 9
     6 GLP5       11 GROUP        1 Y    GLP  0     **** GLP Y 13
     7 ALL1       18 GROUP        1 Z    ALL  0     ROOT ALL Z 15
     8 SEL2        2 GROUP        1 Z    SEL  0     **** SEL Z 16
     9 GLL5       10 GROUP        1 Z    GLL  0     **** GLL Z 20
@<TRIPOS>SET

