#    Name: 1t6y_AMP_5_ligand
#    Modification time : Tue Mar 25 04:25:37 2014

@<TRIPOS>MOLECULE
1t6y_AMP_5_ligand
   35    37     1     0     0
SMALL
NO_CHARGES


@<TRIPOS>ATOM
      1 P          14.4700   -7.9340   53.4320 P.3       1 AMP595      0.0000 
      2 O1P        14.1390   -9.2980   53.8190 O.co2     1 AMP595      0.0000 
      3 O2P        14.3370   -6.9670   54.5380 O.co2     1 AMP595      0.0000 
      4 O3P        13.6800   -7.4740   52.2160 O.co2     1 AMP595      0.0000 
      5 O5'        16.0370   -8.0250   52.9970 O.3       1 AMP595      0.0000 
      6 C5'        16.5940   -6.7830   52.6050 C.3       1 AMP595      0.0000 
      7 C4'        18.0560   -6.6910   53.0620 C.3       1 AMP595      0.0000 
      8 O4'        18.3470   -5.3170   52.6540 O.3       1 AMP595      0.0000 
      9 C3'        18.1880   -6.8180   54.7220 C.3       1 AMP595      0.0000 
     10 O3'        19.5320   -7.4860   54.9350 O.3       1 AMP595      0.0000 
     11 C2'        18.1570   -5.2930   55.1450 C.3       1 AMP595      0.0000 
     12 O2'        19.0550   -4.9560   56.1790 O.3       1 AMP595      0.0000 
     13 C1'        18.5490   -4.4540   53.7990 C.3       1 AMP595      0.0000 
     14 N9         17.6200   -3.2850   53.6790 N.pl3     1 AMP595      0.0000 
     15 C8         16.2010   -3.2830   53.6140 C.2       1 AMP595      0.0000 
     16 N7         15.5880   -2.0830   53.5160 N.2       1 AMP595      0.0000 
     17 C5         16.7270   -1.2570   53.5200 C.ar      1 AMP595      0.0000 
     18 C6         16.8590    0.1620   53.4460 C.ar      1 AMP595      0.0000 
     19 N6         15.7240    0.9500   53.3500 N.pl3     1 AMP595      0.0000 
     20 N1         18.1740    0.6470   53.4770 N.ar      1 AMP595      0.0000 
     21 C2         19.2650   -0.1460   53.5730 C.ar      1 AMP595      0.0000 
     22 N3         19.2350   -1.4870   53.6500 N.ar      1 AMP595      0.0000 
     23 C4         17.9620   -1.9740   53.6180 C.ar      1 AMP595      0.0000 
     24 H          16.0582   -5.9315   53.0468 H         1 AMP595      0.0000 
     25 H          16.5824   -6.6503   51.5143 H         1 AMP595      0.0000 
     26 H          18.6376   -7.3833   52.6114 H         1 AMP595      0.0000 
     27 H          17.3862   -7.3215   55.0377 H         1 AMP595      0.0000 
     28 H          17.1357   -5.0325   55.3412 H         1 AMP595      0.0000 
     29 H          19.5422   -4.1445   53.9103 H         1 AMP595      0.0000 
     30 H          15.7005   -4.1613   53.6423 H         1 AMP595      0.0000 
     31 H          14.8500    0.4640   53.3452 H         1 AMP595      0.0000 
     32 H          15.8768    1.9367   53.2938 H         1 AMP595      0.0000 
     33 H          20.2268    0.3359   53.5886 H         1 AMP595      0.0000 
     34 H          19.9613   -7.4972   54.0319 H         1 AMP595      0.0000 
     35 H          19.5841   -5.7885   56.3437 H         1 AMP595      0.0000 
@<TRIPOS>BOND
     1    2    1 ar   
     2    3    1 ar   
     3    4    1 ar   
     4    5    1 1    
     5    6    5 1    
     6    7    6 1    
     7   24    6 1    
     8   25    6 1    
     9    8    7 1    
    10    9    7 1    
    11   26    7 1    
    12   13    8 1    
    13   10    9 1    
    14   11    9 1    
    15   27    9 1    
    16   34   10 1    
    17   12   11 1    
    18   13   11 1    
    19   28   11 1    
    20   35   12 1    
    21   14   13 1    
    22   29   13 1    
    23   15   14 1    
    24   23   14 1    
    25   16   15 2    
    26   30   15 1    
    27   17   16 1    
    28   18   17 ar   
    29   23   17 ar   
    30   19   18 1    
    31   20   18 ar   
    32   31   19 1    
    33   32   19 1    
    34   21   20 ar   
    35   22   21 ar   
    36   33   21 1    
    37   23   22 ar   
@<TRIPOS>SUBSTRUCTURE
     1 AMP595      1 GROUP   
@<TRIPOS>SET

