#    Name: 4dfx_ANP_1_INTS_M
#    Modification time : Mon Apr  7 22:44:46 2014

@<TRIPOS>MOLECULE
4dfx_ANP_1_INTS_M
   91     0    18     0     0
SMALL
NO_CHARGES


@<TRIPOS>ATOM
      1 N           2.9765    2.1160  -22.8040 N.am      2 SEC2        0.0000 
      2 N           2.4340    1.8090  -21.4230 N.am     14 SEL2        0.0000 
      3 N           3.5190    2.4230  -24.1850 N.am      8 SEP2        0.0000 
      4 NZ          0.1610    1.7845  -23.4345 N.4       4 LYC4        0.0000 
      5 NZ         -0.0140    2.0610  -22.0370 N.4      16 LYL4        0.0000 
      6 NZ          0.3360    1.5080  -24.8320 N.4      10 LYP4        0.0000 
      7 Zn         -0.8705    1.9735  -21.5385 Zn        5 ZIC7        0.0000 
      8 Zn         -0.0140    2.0610  -22.0370 Zn       17 ZIL7        0.0000 
      9 Zn         -1.7270    1.8860  -21.0400 Zn       11 ZIP7        0.0000 
     10 N           0.1610    1.7845  -23.4345 N.am      2 SEC2        0.0000 
     11 N          -0.0140    2.0610  -22.0370 N.am     14 SEL2        0.0000 
     12 N           0.3360    1.5080  -24.8320 N.am      8 SEP2        0.0000 
     13 Zn          0.5960    4.6515  -20.7105 Zn        5 ZIC7        0.0000 
     14 Zn          1.2690    4.0140  -21.0650 Zn       17 ZIL7        0.0000 
     15 Zn         -0.0770    5.2890  -20.3560 Zn       11 ZIP7        0.0000 
     16 N           2.2330    4.4565  -21.8690 N.am      2 SEC2        0.0000 
     17 N           1.2690    4.0140  -21.0650 N.am     14 SEL2        0.0000 
     18 N           3.1970    4.8990  -22.6730 N.am      8 SEP2        0.0000 
     19 NZ         -0.7560    4.9275  -17.4585 N.4       4 LYC4        0.0000 
     20 NZ          0.0340    4.3320  -18.5730 N.4      16 LYL4        0.0000 
     21 NZ         -1.5460    5.5230  -16.3440 N.4      10 LYP4        0.0000 
     22 Zn         -0.0215    4.8105  -19.4645 Zn        5 ZIC7        0.0000 
     23 Zn          0.0340    4.3320  -18.5730 Zn       17 ZIL7        0.0000 
     24 N          -0.7560    4.9275  -17.4585 N.am      2 SEC2        0.0000 
     25 N           0.0340    4.3320  -18.5730 N.am     14 SEL2        0.0000 
     26 N          -1.5460    5.5230  -16.3440 N.am      8 SEP2        0.0000 
     27 OD1        -0.5885    3.0275  -20.2360 O.co2     3 ASC3        0.0000 
     28 OD1         0.6140    2.0500  -19.5910 O.co2    15 ASL3        0.0000 
     29 OD1        -1.7910    4.0050  -20.8810 O.co2     9 ASP3        0.0000 
     30 NZ         -2.3270    4.3880  -16.8025 N.4       4 LYC4        0.0000 
     31 NZ         -3.1080    3.2530  -17.2610 N.4      16 LYL4        0.0000 
     32 N          -2.3270    4.3880  -16.8025 N.am      2 SEC2        0.0000 
     33 N          -3.1080    3.2530  -17.2610 N.am     14 SEL2        0.0000 
     34 Zn         -2.1185    1.8060  -20.1375 Zn        5 ZIC7        0.0000 
     35 Zn         -2.5100    1.7260  -19.2350 Zn       17 ZIL7        0.0000 
     36 CA         -1.7705   -2.9185  -16.2255 C.3       6 GLC5        0.0000 
     37 CA         -2.8890   -1.5390  -17.2100 C.3      18 GLL5        0.0000 
     38 CA         -0.6520   -4.2980  -15.2410 C.3      12 GLP5        0.0000 
     39 N          -2.0455   -2.5660  -19.6010 N.am      2 SEC2        0.0000 
     40 N          -3.3710   -1.8340  -19.5900 N.am     14 SEL2        0.0000 
     41 N          -0.7200   -3.2980  -19.6120 N.am      8 SEP2        0.0000 
     42 O          -4.1110   -1.7485  -20.7620 O.2       1 ALC1        0.0000 
     43 O          -3.3710   -1.8340  -19.5900 O.2      13 ALL1        0.0000 
     44 O          -4.8510   -1.6630  -21.9340 O.2       7 ALP1        0.0000 
     45 CA         -5.3480   -3.7270  -19.3150 C.3       6 GLC5        0.0000 
     46 CA         -4.9530   -2.4830  -17.7950 C.3      18 GLL5        0.0000 
     47 CA         -5.7430   -4.9710  -20.8350 C.3      12 GLP5        0.0000 
     48 CA         -6.8965   -2.6600  -18.1900 C.3       6 GLC5        0.0000 
     49 CA         -8.8400   -2.8370  -18.5850 C.3      12 GLP5        0.0000 
     50 O          -3.9745   -4.3000  -19.0540 O.2       1 ALC1        0.0000 
     51 O          -4.4900   -3.8260  -17.9600 O.2      13 ALL1        0.0000 
     52 O          -3.4590   -4.7740  -20.1480 O.2       7 ALP1        0.0000 
     53 CA         -4.7410   -3.6185  -14.6130 C.3       6 GLC5        0.0000 
     54 CA         -4.9150   -2.2250  -16.3030 C.3      18 GLL5        0.0000 
     55 CA         -4.5670   -5.0120  -12.9230 C.3      12 GLP5        0.0000 
     56 CA         -4.6580   -1.4055  -14.3260 C.3       6 GLC5        0.0000 
     57 CA         -4.4010   -0.5860  -12.3490 C.3      12 GLP5        0.0000 
     58 N          -7.1725    1.8860  -16.3065 N.am      2 SEC2        0.0000 
     59 N          -6.8890    0.7320  -15.4370 N.am     14 SEL2        0.0000 
     60 N          -7.4560    3.0400  -17.1760 N.am      8 SEP2        0.0000 
     61 CA         -7.1640    1.4665  -13.9480 C.3       6 GLC5        0.0000 
     62 CA         -7.7030   -0.2660  -15.0190 C.3      18 GLL5        0.0000 
     63 CA         -6.6250    3.1990  -12.8770 C.3      12 GLP5        0.0000 
     64 CA         -7.8520    1.1805  -16.7255 C.3       6 GLC5        0.0000 
     65 CA         -8.0010    2.6270  -18.4320 C.3      12 GLP5        0.0000 
     66 CA        -11.1170   -0.5230  -15.0335 C.3       6 GLC5        0.0000 
     67 CA         -9.0130   -0.3330  -14.3800 C.3      18 GLL5        0.0000 
     68 CA        -13.2210   -0.7130  -15.6870 C.3      12 GLP5        0.0000 
     69 O         -10.8185    0.7685  -13.1980 O.2       1 ALC1        0.0000 
     70 O          -9.7090    0.7840  -14.0790 O.2      13 ALL1        0.0000 
     71 O         -11.9280    0.7530  -12.3170 O.2       7 ALP1        0.0000 
     72 N         -10.9570   -2.0230  -13.8520 N.am      2 SEC2        0.0000 
     73 N          -9.5090   -1.5590  -14.1260 N.am     14 SEL2        0.0000 
     74 N         -12.4050   -2.4870  -13.5780 N.am      8 SEP2        0.0000 
     75 CA         -7.7075   -3.4615  -13.0300 C.3       6 GLC5        0.0000 
     76 CA         -8.8550   -2.6970  -14.4220 C.3      18 GLL5        0.0000 
     77 CA         -6.5600   -4.2260  -11.6380 C.3      12 GLP5        0.0000 
     78 CA         -8.4835   -1.6290  -12.7500 C.3       6 GLC5        0.0000 
     79 CA         -8.1120   -0.5610  -11.0780 C.3      12 GLP5        0.0000 
     80 CA        -10.9820   -2.8630  -14.5815 C.3       6 GLC5        0.0000 
     81 CA        -13.1090   -3.0290  -14.7410 C.3      12 GLP5        0.0000 
     82 CA         -9.2660   -1.6340  -16.1410 C.3       6 GLC5        0.0000 
     83 CA         -9.6770   -0.5710  -17.8600 C.3      12 GLP5        0.0000 
     84 CA         -2.5355   -0.1042  -15.3475 C.3       6 GLC5        0.0000 
     85 CA         -2.6400    0.7280  -13.5530 C.3      12 GLP5        0.0000 
     86 CA         -6.0460   -4.1430  -16.7200 C.3       6 GLC5        0.0000 
     87 CA         -7.1580   -5.9320  -16.3910 C.3      12 GLP5        0.0000 
     88 CA         -5.8895   -0.7445  -13.7518 C.3       6 GLC5        0.0000 
     89 CA         -7.0530   -1.5400  -15.2900 C.3      18 GLL5        0.0000 
     90 CA         -7.9087   -0.7404  -13.0364 C.3       6 GLC5        0.0000 
     91 CA         -8.6913   -0.7454  -16.4274 C.3       6 GLC5        0.0000 
@<TRIPOS>BOND
@<TRIPOS>SUBSTRUCTURE
     1 ALC1       42 GROUP        1 X    ALC  0     ROOT ALC X 1
     2 SEC2        1 GROUP        1 X    SEC  0     **** SEC X 2
     3 ASC3       27 GROUP        1 X    ASC  0     **** ASC X 3
     4 LYC4        4 GROUP        1 X    LYC  0     **** LYC X 4
     5 ZIC7        7 GROUP        1 X    ZIC  0     **** ZIC X 5
     6 GLC5       36 GROUP        1 X    GLC  0     **** GLC X 6
     7 ALP1       44 GROUP        1 Y    ALP  0     ROOT ALP Y 8
     8 SEP2        3 GROUP        1 Y    SEP  0     **** SEP Y 9
     9 ASP3       29 GROUP        1 Y    ASP  0     **** ASP Y 10
    10 LYP4        6 GROUP        1 Y    LYP  0     **** LYP Y 11
    11 ZIP7        9 GROUP        1 Y    ZIP  0     **** ZIP Y 12
    12 GLP5       38 GROUP        1 Y    GLP  0     **** GLP Y 13
    13 ALL1       43 GROUP        1 Z    ALL  0     ROOT ALL Z 15
    14 SEL2        2 GROUP        1 Z    SEL  0     **** SEL Z 16
    15 ASL3       28 GROUP        1 Z    ASL  0     **** ASL Z 17
    16 LYL4        5 GROUP        1 Z    LYL  0     **** LYL Z 18
    17 ZIL7        8 GROUP        1 Z    ZIL  0     **** ZIL Z 19
    18 GLL5       37 GROUP        1 Z    GLL  0     **** GLL Z 20
@<TRIPOS>SET

