#    Name: 4dfx_ANP_1_ligand
#    Modification time : Mon Apr  7 22:44:47 2014

@<TRIPOS>MOLECULE
4dfx_ANP_1_ligand
   43    45     1     0     0
SMALL
NO_CHARGES


@<TRIPOS>ATOM
      1 PG          1.1250    2.5000  -21.1120 P.3       1 ANP402      0.0000 
      2 O1G         2.4340    1.8090  -21.4230 O.co2     1 ANP402      0.0000 
      3 O2G        -0.0140    2.0610  -22.0370 O.co2     1 ANP402      0.0000 
      4 O3G         1.2690    4.0140  -21.0650 O.co2     1 ANP402      0.0000 
      5 PB          0.4380    2.9370  -18.2220 P.3       1 ANP402      0.0000 
      6 O1B         0.0340    4.3320  -18.5730 O.co2     1 ANP402      0.0000 
      7 O2B         1.6000    2.7640  -17.2850 O.co2     1 ANP402      0.0000 
      8 N3B         0.6140    2.0500  -19.5910 N.4       1 ANP402      0.0000 
      9 PA         -2.3470    2.1000  -17.8030 P.3       1 ANP402      0.0000 
     10 O1A        -3.1080    3.2530  -17.2610 O.co2     1 ANP402      0.0000 
     11 O2A        -2.5100    1.7260  -19.2350 O.co2     1 ANP402      0.0000 
     12 O3A        -0.7830    2.2570  -17.4230 O.3       1 ANP402      0.0000 
     13 O5'        -2.7370    0.8570  -16.8870 O.3       1 ANP402      0.0000 
     14 C5'        -1.9730   -0.3340  -17.0740 C.3       1 ANP402      0.0000 
     15 C4'        -2.8890   -1.5390  -17.2100 C.3       1 ANP402      0.0000 
     16 O4'        -3.6270   -1.6990  -15.9900 O.3       1 ANP402      0.0000 
     17 C3'        -3.9360   -1.4770  -18.3190 C.3       1 ANP402      0.0000 
     18 O3'        -3.3710   -1.8340  -19.5900 O.3       1 ANP402      0.0000 
     19 C2'        -4.9530   -2.4830  -17.7950 C.3       1 ANP402      0.0000 
     20 O2'        -4.4900   -3.8260  -17.9600 O.3       1 ANP402      0.0000 
     21 C1'        -4.9150   -2.2250  -16.3030 C.3       1 ANP402      0.0000 
     22 N9         -5.8980   -1.2230  -15.8690 N.pl3     1 ANP402      0.0000 
     23 C8         -5.7910    0.1260  -15.9420 C.2       1 ANP402      0.0000 
     24 N7         -6.8890    0.7320  -15.4370 N.2       1 ANP402      0.0000 
     25 C5         -7.7030   -0.2660  -15.0190 C.ar      1 ANP402      0.0000 
     26 C6         -9.0130   -0.3330  -14.3800 C.ar      1 ANP402      0.0000 
     27 N6         -9.7090    0.7840  -14.0790 N.pl3     1 ANP402      0.0000 
     28 N1         -9.5090   -1.5590  -14.1260 N.ar      1 ANP402      0.0000 
     29 C2         -8.8550   -2.6970  -14.4220 C.ar      1 ANP402      0.0000 
     30 N3         -7.6360   -2.7280  -14.9880 N.ar      1 ANP402      0.0000 
     31 C4         -7.0530   -1.5400  -15.2900 C.ar      1 ANP402      0.0000 
     32 H          -1.2968   -0.5183  -16.2258 H         1 ANP402      0.0000 
     33 H          -1.3521   -0.2782  -17.9806 H         1 ANP402      0.0000 
     34 H          -2.2821   -2.4299  -17.3705 H         1 ANP402      0.0000 
     35 H          -4.3765   -0.5137  -18.2882 H         1 ANP402      0.0000 
     36 H          -5.8880   -2.2868  -18.1578 H         1 ANP402      0.0000 
     37 H          -5.0733   -3.1503  -15.7844 H         1 ANP402      0.0000 
     38 H          -5.0156    0.6003  -16.3139 H         1 ANP402      0.0000 
     39 H         -10.5968    0.6445  -13.6403 H         1 ANP402      0.0000 
     40 H          -9.2749    1.6516  -14.3214 H         1 ANP402      0.0000 
     41 H          -9.3305   -3.6258  -14.1948 H         1 ANP402      0.0000 
     42 H          -4.0914   -1.6420  -20.2564 H         1 ANP402      0.0000 
     43 H          -4.1362   -3.8647  -18.8945 H         1 ANP402      0.0000 
@<TRIPOS>BOND
     1    2    1 ar   
     2    3    1 ar   
     3    4    1 ar   
     4    8    1 1    
     5    6    5 ar   
     6    7    5 ar   
     7    8    5 1    
     8   12    5 1    
     9   10    9 ar   
    10   11    9 ar   
    11   12    9 1    
    12   13    9 1    
    13   14   13 1    
    14   15   14 1    
    15   32   14 1    
    16   33   14 1    
    17   16   15 1    
    18   17   15 1    
    19   34   15 1    
    20   21   16 1    
    21   18   17 1    
    22   19   17 1    
    23   35   17 1    
    24   42   18 1    
    25   20   19 1    
    26   21   19 1    
    27   36   19 1    
    28   43   20 1    
    29   22   21 1    
    30   37   21 1    
    31   23   22 1    
    32   31   22 1    
    33   24   23 2    
    34   38   23 1    
    35   25   24 1    
    36   26   25 ar   
    37   31   25 ar   
    38   27   26 1    
    39   28   26 ar   
    40   39   27 1    
    41   40   27 1    
    42   29   28 ar   
    43   30   29 ar   
    44   41   29 1    
    45   31   30 ar   
@<TRIPOS>SUBSTRUCTURE
     1 ANP402      1 GROUP   
@<TRIPOS>SET

