#    Name: 1efa_NPF_1_INTS_M
#    Modification time : Mon Mar 24 23:38:04 2014

@<TRIPOS>MOLECULE
1efa_NPF_1_INTS_M
   39     0     6     0     0
SMALL
NO_CHARGES


@<TRIPOS>ATOM
      1 N         -15.6505   84.7960   34.2175 N.am      1 SEC2        0.0000 
      2 N         -14.4160   84.8790   33.1700 N.am      5 SEL2        0.0000 
      3 N         -16.8850   84.7130   35.2650 N.am      3 SEP2        0.0000 
      4 N         -16.0335   84.9955   33.1485 N.am      1 SEC2        0.0000 
      5 N         -17.6510   85.1120   33.1270 N.am      3 SEP2        0.0000 
      6 N         -14.3770   83.5135   32.9290 N.am      1 SEC2        0.0000 
      7 N         -14.3380   82.1480   32.6880 N.am      3 SEP2        0.0000 
      8 N         -11.7810   84.6280   35.5635 N.am      1 SEC2        0.0000 
      9 N         -12.5370   84.4820   34.1270 N.am      5 SEL2        0.0000 
     10 N         -11.0250   84.7740   37.0000 N.am      3 SEP2        0.0000 
     11 N         -13.4375   83.3150   33.4075 N.am      1 SEC2        0.0000 
     12 CA        -14.0550   86.5605   30.1335 C.3       2 GLC5        0.0000 
     13 CA        -15.7170   87.2620   31.0790 C.3       6 GLL5        0.0000 
     14 CA        -12.3930   85.8590   29.1880 C.3       4 GLP5        0.0000 
     15 CA        -15.8935   87.1260   27.0175 C.3       2 GLC5        0.0000 
     16 CA        -17.3820   87.5070   28.6040 C.3       6 GLL5        0.0000 
     17 CA        -14.4050   86.7450   25.4310 C.3       4 GLP5        0.0000 
     18 CA        -15.7100   85.8965   26.8570 C.3       2 GLC5        0.0000 
     19 CA        -17.0150   85.0480   28.2830 C.3       6 GLL5        0.0000 
     20 CA        -17.2630   85.3175   26.3110 C.3       2 GLC5        0.0000 
     21 CA        -17.5110   85.5870   24.3390 C.3       4 GLP5        0.0000 
     22 CA         -9.5490   89.2330   31.9488 C.3       2 GLC5        0.0000 
     23 CA        -11.4450   88.9690   32.5040 C.3       6 GLL5        0.0000 
     24 CA         -8.0000   89.9980   31.0400 C.3       4 GLP5        0.0000 
     25 CA        -10.9204   88.4544   30.7745 C.3       2 GLC5        0.0000 
     26 CA        -10.7510   87.9670   33.2110 C.3       6 GLL5        0.0000 
     27 CA        -10.4150   88.5130   28.7910 C.3       4 GLP5        0.0000 
     28 CA        -10.7123   88.0150   35.3595 C.3       2 GLC5        0.0000 
     29 CA        -10.3590   88.6770   37.3540 C.3       4 GLP5        0.0000 
     30 CA        -12.6543   86.5684   30.9345 C.3       2 GLC5        0.0000 
     31 CA        -12.7300   86.4850   33.1210 C.3       6 GLL5        0.0000 
     32 CA        -17.8945   88.6899   31.5320 C.3       2 GLC5        0.0000 
     33 CA        -17.3490   88.6360   29.6330 C.3       6 GLL5        0.0000 
     34 CA        -19.1810   89.0900   32.8840 C.3       4 GLP5        0.0000 
     35 CA        -18.2608   84.1912   28.1243 C.3       2 GLC5        0.0000 
     36 CA        -17.1260   86.1550   29.3060 C.3       6 GLL5        0.0000 
     37 CA        -19.4510   82.7810   27.4540 C.3       4 GLP5        0.0000 
     38 CA        -15.6943   84.2987   28.4873 C.3       2 GLC5        0.0000 
     39 CA        -14.3180   82.9960   28.1800 C.3       4 GLP5        0.0000 
@<TRIPOS>BOND
@<TRIPOS>SUBSTRUCTURE
     1 SEC2        1 GROUP        1 X    SEC  0     ROOT SEC X 2
     2 GLC5       12 GROUP        1 X    GLC  0     **** GLC X 6
     3 SEP2        3 GROUP        1 Y    SEP  0     ROOT SEP Y 9
     4 GLP5       14 GROUP        1 Y    GLP  0     **** GLP Y 13
     5 SEL2        2 GROUP        1 Z    SEL  0     ROOT SEL Z 16
     6 GLL5       13 GROUP        1 Z    GLL  0     **** GLL Z 20
@<TRIPOS>SET

