#    Name: 1efa_NPF_1_ligand
#    Modification time : Mon Mar 24 23:38:04 2014

@<TRIPOS>MOLECULE
1efa_NPF_1_ligand
   35    36     1     0     0
SMALL
NO_CHARGES


@<TRIPOS>ATOM
      1 C1        -13.4460   87.4610   32.3760 C.ar      1 NPF901      0.0000 
      2 C2        -12.7560   88.6800   32.1060 C.ar      1 NPF901      0.0000 
      3 C3        -11.4450   88.9690   32.5040 C.ar      1 NPF901      0.0000 
      4 C4        -10.7510   87.9670   33.2110 C.ar      1 NPF901      0.0000 
      5 C5        -11.3800   86.7390   33.5190 C.ar      1 NPF901      0.0000 
      6 C6        -12.7300   86.4850   33.1210 C.ar      1 NPF901      0.0000 
      7 N6        -13.2760   85.2310   33.4850 N.pl3     1 NPF901      0.0000 
      8 O6A       -14.4160   84.8790   33.1700 O.2       1 NPF901      0.0000 
      9 O6B       -12.5370   84.4820   34.1270 O.2       1 NPF901      0.0000 
     10 O1'       -14.3510   86.9100   31.4130 O.3       1 NPF901      0.0000 
     11 C1'       -15.7170   87.2620   31.0790 C.3       1 NPF901      0.0000 
     12 C2'       -16.0170   88.6250   30.3750 C.3       1 NPF901      0.0000 
     13 O2'       -16.0360   89.7350   31.3030 O.3       1 NPF901      0.0000 
     14 C3'       -17.3490   88.6360   29.6330 C.3       1 NPF901      0.0000 
     15 O3'       -17.4430   89.9200   28.9760 O.3       1 NPF901      0.0000 
     16 C4'       -17.3820   87.5070   28.6040 C.3       1 NPF901      0.0000 
     17 O4'       -16.3710   87.8450   27.6350 O.3       1 NPF901      0.0000 
     18 C5'       -17.1260   86.1550   29.3060 C.3       1 NPF901      0.0000 
     19 C6'       -17.0150   85.0480   28.2830 C.3       1 NPF901      0.0000 
     20 O5'       -15.9370   86.1840   30.1310 O.3       1 NPF901      0.0000 
     21 H         -13.2850   89.4168   31.5619 H         1 NPF901      0.0000 
     22 H         -11.0140   89.8515   32.2965 H         1 NPF901      0.0000 
     23 H          -9.7823   88.1278   33.5052 H         1 NPF901      0.0000 
     24 H         -10.8679   86.0166   34.0340 H         1 NPF901      0.0000 
     25 H         -16.3648   87.1135   31.9055 H         1 NPF901      0.0000 
     26 H         -15.2294   88.7891   29.6288 H         1 NPF901      0.0000 
     27 H         -18.1332   88.5013   30.3376 H         1 NPF901      0.0000 
     28 H         -18.3581   87.4968   28.1640 H         1 NPF901      0.0000 
     29 H         -18.0056   85.9431   29.9251 H         1 NPF901      0.0000 
     30 H         -16.2624   85.2069   27.6440 H         1 NPF901      0.0000 
     31 H         -16.8519   84.1600   28.7129 H         1 NPF901      0.0000 
     32 H         -17.8489   84.9610   27.7379 H         1 NPF901      0.0000 
     33 H         -16.6533   89.4490   32.0358 H         1 NPF901      0.0000 
     34 H         -17.0538   90.5724   29.6263 H         1 NPF901      0.0000 
     35 H         -16.3735   88.8443   27.5964 H         1 NPF901      0.0000 
@<TRIPOS>BOND
     1    2    1 ar   
     2    6    1 ar   
     3   10    1 1    
     4    3    2 ar   
     5   21    2 1    
     6    4    3 ar   
     7   22    3 1    
     8    5    4 ar   
     9   23    4 1    
    10    6    5 ar   
    11   24    5 1    
    12    7    6 1    
    13    8    7 2    
    14    9    7 2    
    15   11   10 1    
    16   12   11 1    
    17   20   11 1    
    18   25   11 1    
    19   13   12 1    
    20   14   12 1    
    21   26   12 1    
    22   33   13 1    
    23   15   14 1    
    24   16   14 1    
    25   27   14 1    
    26   34   15 1    
    27   17   16 1    
    28   18   16 1    
    29   28   16 1    
    30   35   17 1    
    31   19   18 1    
    32   20   18 1    
    33   29   18 1    
    34   30   19 1    
    35   31   19 1    
    36   32   19 1    
@<TRIPOS>SUBSTRUCTURE
     1 NPF901      1 GROUP   
@<TRIPOS>SET

