#    Name: 4h2o_0YW_1_INTS_M
#    Modification time : Tue Mar 25 00:09:23 2014

@<TRIPOS>MOLECULE
4h2o_0YW_1_INTS_M
   70     0     6     0     0
SMALL
NO_CHARGES


@<TRIPOS>ATOM
      1 N          29.6585   16.4100   23.0455 N.am      1 SEC2        0.0000 
      2 N          31.1380   16.2870   23.4130 N.am      5 SEL2        0.0000 
      3 N          28.1790   16.5330   22.6780 N.am      3 SEP2        0.0000 
      4 CA         27.3640   20.6165   21.5090 C.3       2 GLC5        0.0000 
      5 CA         29.1120   20.5660   22.8960 C.3       6 GLL5        0.0000 
      6 CA         25.6160   20.6670   20.1220 C.3       4 GLP5        0.0000 
      7 N          26.3095   19.9640   23.7125 N.am      1 SEC2        0.0000 
      8 N          26.4810   18.8100   24.9970 N.am      5 SEL2        0.0000 
      9 N          26.1380   21.1180   22.4280 N.am      3 SEP2        0.0000 
     10 CA         27.3550   18.4510   27.3950 C.3       2 GLC5        0.0000 
     11 CA         26.7440   17.1480   26.4310 C.3       6 GLL5        0.0000 
     12 CA         27.9660   19.7540   28.3590 C.3       4 GLP5        0.0000 
     13 CA         27.4990   15.7790   24.9045 C.3       2 GLC5        0.0000 
     14 CA         27.5470   16.1630   26.9020 C.3       6 GLL5        0.0000 
     15 CA         27.4510   15.3950   22.9070 C.3       4 GLP5        0.0000 
     16 CA         24.0660   18.0085   25.4690 C.3       2 GLC5        0.0000 
     17 CA         25.4470   17.2630   26.7950 C.3       6 GLL5        0.0000 
     18 CA         22.6850   18.7540   24.1430 C.3       4 GLP5        0.0000 
     19 CA         25.2355   13.6710   27.5535 C.3       2 GLC5        0.0000 
     20 CA         26.9230   13.5330   29.0100 C.3       6 GLL5        0.0000 
     21 CA         23.5480   13.8090   26.0970 C.3       4 GLP5        0.0000 
     22 CA         28.0420   14.1685   30.8170 C.3       2 GLC5        0.0000 
     23 CA         29.1610   14.8040   32.6240 C.3       4 GLP5        0.0000 
     24 CA         24.6565   12.5915   27.3805 C.3       2 GLC5        0.0000 
     25 CA         25.7650   11.3740   28.6640 C.3       6 GLL5        0.0000 
     26 CA         26.4795    9.9940   31.2195 C.3       2 GLC5        0.0000 
     27 CA         25.7550   10.1610   29.5630 C.3       6 GLL5        0.0000 
     28 CA         27.2040    9.8270   32.8760 C.3       4 GLP5        0.0000 
     29 CA         24.0415    7.4115   30.8295 C.3       2 GLC5        0.0000 
     30 CA         25.5560    6.6590   29.5480 C.3       6 GLL5        0.0000 
     31 CA         22.5270    8.1640   32.1110 C.3       4 GLP5        0.0000 
     32 CA         25.0885    5.4725   26.8605 C.3       2 GLC5        0.0000 
     33 CA         25.4500    4.3890   28.7150 C.3       6 GLL5        0.0000 
     34 CA         24.7270    6.5560   25.0060 C.3       4 GLP5        0.0000 
     35 CA         25.9395    2.6765   31.1365 C.3       2 GLC5        0.0000 
     36 CA         25.1960    3.0920   29.4380 C.3       6 GLL5        0.0000 
     37 CA         26.6830    2.2610   32.8350 C.3       4 GLP5        0.0000 
     38 CA         28.4825   16.9305   23.5033 C.3       2 GLC5        0.0000 
     39 CA         30.0400   18.1920   23.7700 C.3       6 GLL5        0.0000 
     40 CA         28.3490   19.5455   26.2817 C.3       2 GLC5        0.0000 
     41 CA         28.9880   18.7400   24.4290 C.3       6 GLL5        0.0000 
     42 CA         26.0442   16.4727   24.7785 C.3       2 GLC5        0.0000 
     43 CA         25.9930   15.7400   22.9440 C.3       4 GLP5        0.0000 
     44 CA         27.2907   17.3960   28.3443 C.3       2 GLC5        0.0000 
     45 CA         27.2800   19.0810   29.3400 C.3       4 GLP5        0.0000 
     46 CA         24.3775   15.3080   26.6688 C.3       2 GLC5        0.0000 
     47 CA         24.9790   14.5550   27.0455 C.3       2 GLC5        0.0000 
     48 CA         25.7640   15.3430   28.1930 C.3       6 GLL5        0.0000 
     49 CA         25.6788   17.6230   28.7464 C.3       2 GLC5        0.0000 
     50 CA         25.8720   19.1710   29.7760 C.3       4 GLP5        0.0000 
     51 CA         23.8373   16.7520   28.3619 C.3       2 GLC5        0.0000 
     52 CA         22.1890   17.4290   29.0070 C.3       4 GLP5        0.0000 
     53 CA         24.9794   14.5875   29.0266 C.3       2 GLC5        0.0000 
     54 CA         24.9670   16.3510   27.6860 C.3       6 GLL5        0.0000 
     55 CA         23.7480   13.6220   30.1860 C.3       4 GLP5        0.0000 
     56 CA         25.3830   13.2108   29.5355 C.3       2 GLC5        0.0000 
     57 CA         27.7195   10.6640   27.7830 C.3       2 GLC5        0.0000 
     58 CA         29.0000    9.6080   26.8540 C.3       4 GLP5        0.0000 
     59 CA         24.7540   12.1948   29.6497 C.3       2 GLC5        0.0000 
     60 CA         27.5153    9.1372   27.9949 C.3       2 GLC5        0.0000 
     61 CA         26.4380    7.7940   29.1070 C.3       6 GLL5        0.0000 
     62 CA         24.8651    7.4966   27.6171 C.3       2 GLC5        0.0000 
     63 CA         25.4910    8.9170   28.7660 C.3       6 GLL5        0.0000 
     64 CA         23.9700    7.4860   25.9920 C.3       4 GLP5        0.0000 
     65 CA         26.7921    8.0131   30.8466 C.3       2 GLC5        0.0000 
     66 CA         27.8240    8.5190   32.4510 C.3       4 GLP5        0.0000 
     67 CA         23.8295    3.2903   28.9887 C.3       2 GLC5        0.0000 
     68 CA         22.3360    2.8400   28.9010 C.3       4 GLP5        0.0000 
     69 CA         26.9870    3.6433   28.2560 C.3       2 GLC5        0.0000 
     70 CA         28.4470    3.3110   27.2250 C.3       4 GLP5        0.0000 
@<TRIPOS>BOND
@<TRIPOS>SUBSTRUCTURE
     1 SEC2        1 GROUP        1 X    SEC  0     ROOT SEC X 2
     2 GLC5        4 GROUP        1 X    GLC  0     **** GLC X 6
     3 SEP2        3 GROUP        1 Y    SEP  0     ROOT SEP Y 9
     4 GLP5        6 GROUP        1 Y    GLP  0     **** GLP Y 13
     5 SEL2        2 GROUP        1 Z    SEL  0     ROOT SEL Z 16
     6 GLL5        5 GROUP        1 Z    GLL  0     **** GLL Z 20
@<TRIPOS>SET

