#    Name: 4h2o_0YW_1_ligand
#    Modification time : Tue Mar 25 00:09:23 2014

@<TRIPOS>MOLECULE
4h2o_0YW_1_ligand
   61    62     1     0     0
SMALL
NO_CHARGES


@<TRIPOS>ATOM
      1 OAB        31.1380   16.2870   23.4130 O.co2     1 0YW301      0.0000 
      2 CAY        30.5240   16.9980   24.2280 C.2       1 0YW301      0.0000 
      3 OAE        30.4040   16.6750   25.4300 O.co2     1 0YW301      0.0000 
      4 CBE        30.0400   18.1920   23.7700 C.ar      1 0YW301      0.0000 
      5 CAM        30.6640   18.8180   22.6890 C.ar      1 0YW301      0.0000 
      6 CBC        30.2110   20.0270   22.2250 C.ar      1 0YW301      0.0000 
      7 NBF        30.8030   20.6430   21.1800 N.pl3     1 0YW301      0.0000 
      8 OAF        30.9650   19.9860   20.0000 O.2       1 0YW301      0.0000 
      9 OAD        31.1680   21.9090   21.2910 O.2       1 0YW301      0.0000 
     10 CAJ        29.1120   20.5660   22.8960 C.ar      1 0YW301      0.0000 
     11 CAK        28.4760   19.9340   23.9800 C.ar      1 0YW301      0.0000 
     12 CBD        28.9880   18.7400   24.4290 C.ar      1 0YW301      0.0000 
     13 NAW        28.5250   17.9890   25.3780 N.am      1 0YW301      0.0000 
     14 CAZ        27.2320   18.0320   25.5460 C.2       1 0YW301      0.0000 
     15 OAC        26.4810   18.8100   24.9970 O.2       1 0YW301      0.0000 
     16 CBB        26.7440   17.1480   26.4310 C.ar      1 0YW301      0.0000 
     17 CAL        27.5470   16.1630   26.9020 C.ar      1 0YW301      0.0000 
     18 CAI        25.4470   17.2630   26.7950 C.ar      1 0YW301      0.0000 
     19 CAG        24.9670   16.3510   27.6860 C.ar      1 0YW301      0.0000 
     20 CAH        25.7640   15.3430   28.1930 C.ar      1 0YW301      0.0000 
     21 CBA        27.0560   15.2590   27.7950 C.ar      1 0YW301      0.0000 
     22 OAX        27.8140   14.2800   28.2670 O.3       1 0YW301      0.0000 
     23 CAV        26.9230   13.5330   29.0100 C.3       1 0YW301      0.0000 
     24 CAU        27.1130   12.0660   28.7600 C.3       1 0YW301      0.0000 
     25 CAT        25.7650   11.3740   28.6640 C.3       1 0YW301      0.0000 
     26 CAS        25.7550   10.1610   29.5630 C.3       1 0YW301      0.0000 
     27 CAR        25.4910    8.9170   28.7660 C.3       1 0YW301      0.0000 
     28 CAQ        26.4380    7.7940   29.1070 C.3       1 0YW301      0.0000 
     29 CAP        25.5560    6.6590   29.5480 C.3       1 0YW301      0.0000 
     30 CAO        26.2660    5.3290   29.5570 C.3       1 0YW301      0.0000 
     31 CAN        25.4500    4.3890   28.7150 C.3       1 0YW301      0.0000 
     32 CAA        25.1960    3.0920   29.4380 C.3       1 0YW301      0.0000 
     33 H          31.4749   18.3570   22.2410 H         1 0YW301      0.0000 
     34 H          28.7363   21.4935   22.5777 H         1 0YW301      0.0000 
     35 H          27.6601   20.3612   24.4097 H         1 0YW301      0.0000 
     36 H          29.1318   17.3976   25.9616 H         1 0YW301      0.0000 
     37 H          28.5325   16.0950   26.5855 H         1 0YW301      0.0000 
     38 H          24.8487   18.0001   26.4209 H         1 0YW301      0.0000 
     39 H          23.9705   16.4085   27.9994 H         1 0YW301      0.0000 
     40 H          25.3689   14.6694   28.8651 H         1 0YW301      0.0000 
     41 H          25.8665   13.7778   28.7728 H         1 0YW301      0.0000 
     42 H          27.0369   13.7030   30.1011 H         1 0YW301      0.0000 
     43 H          27.6846   11.6227   29.5752 H         1 0YW301      0.0000 
     44 H          27.6579   11.9170   27.8280 H         1 0YW301      0.0000 
     45 H          25.5898   11.0689   27.6362 H         1 0YW301      0.0000 
     46 H          24.9840   12.0636   28.9717 H         1 0YW301      0.0000 
     47 H          24.9798   10.2816   30.3233 H         1 0YW301      0.0000 
     48 H          26.7210   10.0768   30.0663 H         1 0YW301      0.0000 
     49 H          25.5761    9.1463   27.6913 H         1 0YW301      0.0000 
     50 H          24.4561    8.5820   28.9432 H         1 0YW301      0.0000 
     51 H          27.0811    8.0917   29.9090 H         1 0YW301      0.0000 
     52 H          26.9935    7.5102   28.2374 H         1 0YW301      0.0000 
     53 H          24.6811    6.5967   28.8790 H         1 0YW301      0.0000 
     54 H          25.1707    6.8694   30.5600 H         1 0YW301      0.0000 
     55 H          26.3282    4.9570   30.5669 H         1 0YW301      0.0000 
     56 H          27.2511    5.4400   29.1334 H         1 0YW301      0.0000 
     57 H          25.9796    4.1843   27.7783 H         1 0YW301      0.0000 
     58 H          24.4924    4.8590   28.4662 H         1 0YW301      0.0000 
     59 H          26.0481    2.6217   29.6675 H         1 0YW301      0.0000 
     60 H          24.7004    3.2352   30.2947 H         1 0YW301      0.0000 
     61 H          24.6516    2.4599   28.8866 H         1 0YW301      0.0000 
@<TRIPOS>BOND
     1    2    1 ar   
     2    3    2 ar   
     3    4    2 1    
     4    5    4 ar   
     5   12    4 ar   
     6    6    5 ar   
     7   33    5 1    
     8    7    6 1    
     9   10    6 ar   
    10    8    7 2    
    11    9    7 2    
    12   11   10 ar   
    13   34   10 1    
    14   12   11 ar   
    15   35   11 1    
    16   13   12 1    
    17   14   13 am   
    18   36   13 1    
    19   15   14 2    
    20   16   14 1    
    21   17   16 ar   
    22   18   16 ar   
    23   21   17 ar   
    24   37   17 1    
    25   19   18 ar   
    26   38   18 1    
    27   20   19 ar   
    28   39   19 1    
    29   21   20 ar   
    30   40   20 1    
    31   22   21 1    
    32   23   22 1    
    33   24   23 1    
    34   41   23 1    
    35   42   23 1    
    36   25   24 1    
    37   43   24 1    
    38   44   24 1    
    39   26   25 1    
    40   45   25 1    
    41   46   25 1    
    42   27   26 1    
    43   47   26 1    
    44   48   26 1    
    45   28   27 1    
    46   49   27 1    
    47   50   27 1    
    48   29   28 1    
    49   51   28 1    
    50   52   28 1    
    51   30   29 1    
    52   53   29 1    
    53   54   29 1    
    54   31   30 1    
    55   55   30 1    
    56   56   30 1    
    57   32   31 1    
    58   57   31 1    
    59   58   31 1    
    60   59   32 1    
    61   60   32 1    
    62   61   32 1    
@<TRIPOS>SUBSTRUCTURE
     1 0YW301      1 GROUP   
@<TRIPOS>SET

