#    Name: 3inf_X45_1_INTS_M
#    Modification time : Tue Mar 25 16:48:11 2014

@<TRIPOS>MOLECULE
3inf_X45_1_INTS_M
   59     0    12     0     0
SMALL
NO_CHARGES


@<TRIPOS>ATOM
      1 CA         16.5715  -12.8160   19.8600 C.3       4 GLC5        0.0000 
      2 CA         15.9340  -11.0450   19.3700 C.3      12 GLL5        0.0000 
      3 CA         17.2090  -14.5870   20.3500 C.3       8 GLP5        0.0000 
      4 CA         15.1700  -11.4255   20.8630 C.3       4 GLC5        0.0000 
      5 CA         14.4060  -11.8060   22.3560 C.3       8 GLP5        0.0000 
      6 N          15.6020  -13.7035   17.5500 N.am      2 SEC2        0.0000 
      7 N          16.6360  -12.6110   17.1770 N.am     10 SEL2        0.0000 
      8 N          14.5680  -14.7960   17.9230 N.am      6 SEP2        0.0000 
      9 O          15.1515   -7.3560   13.8465 O.2       1 ALC1        0.0000 
     10 O          14.8120   -6.8510   14.9570 O.2       9 ALL1        0.0000 
     11 O          15.4910   -7.8610   12.7360 O.2       5 ALP1        0.0000 
     12 O          16.2605   -5.5250   13.1930 O.2       1 ALC1        0.0000 
     13 O          16.3280   -5.1020   14.4830 O.2       9 ALL1        0.0000 
     14 O          16.1930   -5.9480   11.9030 O.2       5 ALP1        0.0000 
     15 O          15.9095   -6.4815   13.6095 O.2       1 ALC1        0.0000 
     16 O          17.0285   -3.9100   14.6300 O.2       1 ALC1        0.0000 
     17 O          17.7290   -2.7180   14.7770 O.2       5 ALP1        0.0000 
     18 CA         17.8635  -11.5050   14.8850 C.3       4 GLC5        0.0000 
     19 CA         17.3890  -13.2800   16.1700 C.3      12 GLL5        0.0000 
     20 CA         18.3380   -9.7300   13.6000 C.3       8 GLP5        0.0000 
     21 CA         17.6525  -14.4485   14.4120 C.3       4 GLC5        0.0000 
     22 CA         17.9160  -15.6170   12.6540 C.3       8 GLP5        0.0000 
     23 CA         17.2990  -13.9335   18.2600 C.3       4 GLC5        0.0000 
     24 CA         16.5025  -14.9240   16.3335 C.3       4 GLC5        0.0000 
     25 CA         15.6160  -16.5680   16.4970 C.3       8 GLP5        0.0000 
     26 CA         18.9700  -14.4450   17.0060 C.3       4 GLC5        0.0000 
     27 CA         20.5510  -15.6100   17.8420 C.3       8 GLP5        0.0000 
     28 OD1        15.9095   -6.4815   13.6095 O.co2     3 ASC3        0.0000 
     29 OD1        15.5380   -5.8370   15.3300 O.co2    11 ASL3        0.0000 
     30 OD1        16.1930   -5.9480   11.9030 O.co2     7 ASP3        0.0000 
     31 OD1        15.1515   -7.3560   13.8465 O.co2     3 ASC3        0.0000 
     32 OD1        15.4910   -7.8610   12.7360 O.co2     7 ASP3        0.0000 
     33 OD1        17.0285   -3.9100   14.6300 O.co2     3 ASC3        0.0000 
     34 OD1        17.7290   -2.7180   14.7770 O.co2     7 ASP3        0.0000 
     35 CA          8.5440   -2.6475   12.3995 C.3       4 GLC5        0.0000 
     36 CA          9.0040   -2.6120   14.2550 C.3      12 GLL5        0.0000 
     37 CA          8.0840   -2.6830   10.5440 C.3       8 GLP5        0.0000 
     38 CA         12.3375   -3.9025   13.1950 C.3       4 GLC5        0.0000 
     39 CA         10.5810   -4.2950   14.0660 C.3      12 GLL5        0.0000 
     40 CA         14.0940   -3.5100   12.3240 C.3       8 GLP5        0.0000 
     41 CA         13.7183  -10.3340   14.7526 C.3       4 GLC5        0.0000 
     42 CA         15.8290  -10.9440   15.5650 C.3      12 GLL5        0.0000 
     43 CA         11.9920  -10.5580   13.7770 C.3       8 GLP5        0.0000 
     44 CA         17.0688  -10.2952   14.8805 C.3       4 GLC5        0.0000 
     45 CA         15.2430   -9.6880   15.3550 C.3      12 GLL5        0.0000 
     46 CA         12.1515   -9.3285   15.0250 C.3       4 GLC5        0.0000 
     47 CA         12.7050   -7.5400   16.1110 C.3      12 GLL5        0.0000 
     48 CA         11.0943   -9.2838   14.9480 C.3       4 GLC5        0.0000 
     49 CA         10.5180   -8.5940   16.3280 C.3      12 GLL5        0.0000 
     50 CA         11.1954   -6.9195   13.7124 C.3       4 GLC5        0.0000 
     51 CA          9.8750   -7.4250   15.9100 C.3      12 GLL5        0.0000 
     52 CA         11.2420   -7.2220   11.7050 C.3       8 GLP5        0.0000 
     53 CA         10.7788   -5.9387   13.1540 C.3       4 GLC5        0.0000 
     54 CA         10.0500   -5.0160   15.1400 C.3      12 GLL5        0.0000 
     55 CA          6.9952   -2.5755   13.9165 C.3       4 GLC5        0.0000 
     56 CA          8.3990   -3.2400   15.3330 C.3      12 GLL5        0.0000 
     57 CA          5.2890   -2.2250   13.0390 C.3       8 GLP5        0.0000 
     58 CA          7.4021   -4.5981   15.8911 C.3       4 GLC5        0.0000 
     59 CA          5.8590   -5.2090   16.3870 C.3       8 GLP5        0.0000 
@<TRIPOS>BOND
@<TRIPOS>SUBSTRUCTURE
     1 ALC1        9 GROUP        1 X    ALC  0     ROOT ALC X 1
     2 SEC2        6 GROUP        1 X    SEC  0     **** SEC X 2
     3 ASC3       28 GROUP        1 X    ASC  0     **** ASC X 3
     4 GLC5        1 GROUP        1 X    GLC  0     **** GLC X 6
     5 ALP1       11 GROUP        1 Y    ALP  0     ROOT ALP Y 8
     6 SEP2        8 GROUP        1 Y    SEP  0     **** SEP Y 9
     7 ASP3       30 GROUP        1 Y    ASP  0     **** ASP Y 10
     8 GLP5        3 GROUP        1 Y    GLP  0     **** GLP Y 13
     9 ALL1       10 GROUP        1 Z    ALL  0     ROOT ALL Z 15
    10 SEL2        7 GROUP        1 Z    SEL  0     **** SEL Z 16
    11 ASL3       29 GROUP        1 Z    ASL  0     **** ASL Z 17
    12 GLL5        2 GROUP        1 Z    GLL  0     **** GLL Z 20
@<TRIPOS>SET

