#    Name: 3inf_X45_1_ligand
#    Modification time : Tue Mar 25 16:48:11 2014

@<TRIPOS>MOLECULE
3inf_X45_1_ligand
   52    55     1     0     0
SMALL
NO_CHARGES


@<TRIPOS>ATOM
      1 C1         15.9340  -11.0450   19.3700 C.3       1 X451        0.0000 
      2 N1         15.4270   -5.5280   16.6520 N.am      1 X451        0.0000 
      3 O1         16.6360  -12.6110   17.1770 O.3       1 X451        0.0000 
      4 C2         15.7030  -10.5920   17.9530 C.ar      1 X451        0.0000 
      5 N2         14.8120   -6.8510   14.9570 N.pl3     1 X451        0.0000 
      6 O2         14.3490   -6.5030   18.4430 O.2       1 X451        0.0000 
      7 C3         15.1160   -9.3370   17.7260 C.ar      1 X451        0.0000 
      8 N3         16.3280   -5.1020   14.4830 N.pl3     1 X451        0.0000 
      9 C4         14.8770   -8.8640   16.4280 C.ar      1 X451        0.0000 
     10 N4         10.0820   -3.1160   13.6120 N.ar      1 X451        0.0000 
     11 C5         15.2430   -9.6880   15.3550 C.ar      1 X451        0.0000 
     12 C6         15.8290  -10.9440   15.5650 C.ar      1 X451        0.0000 
     13 C7         16.0630  -11.4050   16.8620 C.ar      1 X451        0.0000 
     14 C8         17.3890  -13.2800   16.1700 C.3       1 X451        0.0000 
     15 C9         14.2410   -7.4860   16.1880 C.3       1 X451        0.0000 
     16 C10        14.6700   -6.4780   17.2670 C.2       1 X451        0.0000 
     17 C11        15.5380   -5.8370   15.3300 C.cat     1 X451        0.0000 
     18 C12        16.0120   -4.3860   17.3490 C.3       1 X451        0.0000 
     19 C13        12.7050   -7.5400   16.1110 C.ar      1 X451        0.0000 
     20 C14        11.9170   -8.6580   16.4350 C.ar      1 X451        0.0000 
     21 C15        10.5180   -8.5940   16.3280 C.ar      1 X451        0.0000 
     22 C16         9.8750   -7.4250   15.9100 C.ar      1 X451        0.0000 
     23 C17        10.6400   -6.2910   15.5810 C.ar      1 X451        0.0000 
     24 C18        12.0400   -6.3760   15.6940 C.ar      1 X451        0.0000 
     25 C19        10.0500   -5.0160   15.1400 C.ar      1 X451        0.0000 
     26 C20         8.9330   -4.4530   15.7750 C.ar      1 X451        0.0000 
     27 C21         8.3990   -3.2400   15.3330 C.ar      1 X451        0.0000 
     28 C22         9.0040   -2.6120   14.2550 C.ar      1 X451        0.0000 
     29 C23        10.5810   -4.2950   14.0660 C.ar      1 X451        0.0000 
     30 H          14.6114   -7.2111   14.1041 H         1 X451        0.0000 
     31 H          14.8541   -8.7483   18.5357 H         1 X451        0.0000 
     32 H          16.3239   -5.3825   13.5231 H         1 X451        0.0000 
     33 H          16.8389   -4.3500   14.8995 H         1 X451        0.0000 
     34 H          15.0772   -9.3624   14.3870 H         1 X451        0.0000 
     35 H          16.0868  -11.5267   14.7585 H         1 X451        0.0000 
     36 H          12.3661   -9.5242   16.7509 H         1 X451        0.0000 
     37 H           9.9555   -9.4286   16.5634 H         1 X451        0.0000 
     38 H           8.8564   -7.3904   15.8426 H         1 X451        0.0000 
     39 H          12.6099   -5.5330   15.4562 H         1 X451        0.0000 
     40 H           8.5044   -4.9404   16.5743 H         1 X451        0.0000 
     41 H           7.5898   -2.8334   15.7920 H         1 X451        0.0000 
     42 H           8.5914   -1.6935   13.9299 H         1 X451        0.0000 
     43 H          11.4321   -4.7108   13.5831 H         1 X451        0.0000 
     44 H          16.3567  -11.9505   19.4062 H         1 X451        0.0000 
     45 H          16.5368  -10.4201   19.8661 H         1 X451        0.0000 
     46 H          15.0794  -11.0996   19.8864 H         1 X451        0.0000 
     47 H          18.1616  -12.7282   15.8558 H         1 X451        0.0000 
     48 H          17.7629  -14.1468   16.5001 H         1 X451        0.0000 
     49 H          16.8316  -13.4883   15.3663 H         1 X451        0.0000 
     50 H          16.6341   -4.6741   18.0770 H         1 X451        0.0000 
     51 H          16.5363   -3.8017   16.7296 H         1 X451        0.0000 
     52 H          15.3120   -3.8108   17.7722 H         1 X451        0.0000 
@<TRIPOS>BOND
     1    4    1 1    
     2   44    1 1    
     3   45    1 1    
     4   46    1 1    
     5   16    2 am   
     6   17    2 ar   
     7   18    2 1    
     8   13    3 1    
     9   14    3 1    
    10    7    4 ar   
    11   13    4 ar   
    12   15    5 1    
    13   17    5 ar   
    14   30    5 1    
    15   16    6 2    
    16    9    7 ar   
    17   31    7 1    
    18   17    8 ar   
    19   32    8 1    
    20   33    8 1    
    21   11    9 ar   
    22   15    9 1    
    23   28   10 ar   
    24   29   10 ar   
    25   12   11 ar   
    26   34   11 1    
    27   13   12 ar   
    28   35   12 1    
    29   47   14 1    
    30   48   14 1    
    31   49   14 1    
    32   16   15 1    
    33   19   15 1    
    34   50   18 1    
    35   51   18 1    
    36   52   18 1    
    37   20   19 ar   
    38   24   19 ar   
    39   21   20 ar   
    40   36   20 1    
    41   22   21 ar   
    42   37   21 1    
    43   23   22 ar   
    44   38   22 1    
    45   24   23 ar   
    46   25   23 1    
    47   39   24 1    
    48   26   25 ar   
    49   29   25 ar   
    50   27   26 ar   
    51   40   26 1    
    52   28   27 ar   
    53   41   27 1    
    54   42   28 1    
    55   43   29 1    
@<TRIPOS>SUBSTRUCTURE
     1 X451        1 GROUP   
@<TRIPOS>SET

