#    Name: 3qt6_2P0_1_INTS_M
#    Modification time : Tue Mar 25 10:06:36 2014

@<TRIPOS>MOLECULE
3qt6_2P0_1_INTS_M
   72     0     9     0     0
SMALL
NO_CHARGES


@<TRIPOS>ATOM
      1 NZ        -23.5845  -23.1935  -16.1520 N.4       2 LYC4        0.0000 
      2 NZ        -24.5740  -23.1160  -17.3430 N.4       8 LYL4        0.0000 
      3 NZ        -21.7620  -24.0100  -15.6770 N.4       5 LYP4        0.0000 
      4 N         -23.5845  -23.1935  -16.1520 N.am      1 SEC2        0.0000 
      5 N         -24.5740  -23.1160  -17.3430 N.am      7 SEL2        0.0000 
      6 N         -22.5950  -23.2710  -14.9610 N.am      4 SEP2        0.0000 
      7 N         -23.2925  -23.6740  -17.1525 N.am      1 SEC2        0.0000 
      8 N         -22.0110  -24.2320  -16.9620 N.am      4 SEP2        0.0000 
      9 CA        -25.9435  -21.2060  -17.3305 C.3       3 GLC5        0.0000 
     10 CA        -26.6360  -22.7670  -18.4540 C.3       9 GLL5        0.0000 
     11 CA        -25.2510  -19.6450  -16.2070 C.3       6 GLP5        0.0000 
     12 CA        -26.2510  -25.2345  -17.0945 C.3       3 GLC5        0.0000 
     13 CA        -27.5340  -23.8540  -17.9730 C.3       9 GLL5        0.0000 
     14 CA        -24.9680  -26.6150  -16.2160 C.3       6 GLP5        0.0000 
     15 CA        -27.4415  -22.9085  -16.0275 C.3       3 GLC5        0.0000 
     16 CA        -27.3490  -21.9630  -14.0820 C.3       6 GLP5        0.0000 
     17 CA        -29.3820  -22.0165  -20.1185 C.3       3 GLC5        0.0000 
     18 CA        -27.8900  -23.4920  -20.2990 C.3       9 GLL5        0.0000 
     19 CA        -30.8740  -20.5410  -19.9380 C.3       6 GLP5        0.0000 
     20 CA        -29.6945  -22.4635  -18.8375 C.3       3 GLC5        0.0000 
     21 CA        -28.4920  -24.1450  -19.0980 C.3       9 GLL5        0.0000 
     22 CA        -30.8970  -20.7820  -18.5770 C.3       6 GLP5        0.0000 
     23 CA        -30.2885  -24.2845  -18.4475 C.3       3 GLC5        0.0000 
     24 CA        -32.0850  -24.4240  -17.7970 C.3       6 GLP5        0.0000 
     25 NZ        -26.1735  -14.3435  -18.8300 N.4       2 LYC4        0.0000 
     26 NZ        -25.4300  -14.6190  -19.8330 N.4       8 LYL4        0.0000 
     27 NZ        -26.9170  -14.0680  -17.8270 N.4       5 LYP4        0.0000 
     28 NZ        -25.2620  -13.4235  -20.4960 N.4       2 LYC4        0.0000 
     29 NZ        -23.8610  -11.7840  -21.4020 N.4       5 LYP4        0.0000 
     30 N         -26.1735  -14.3435  -18.8300 N.am      1 SEC2        0.0000 
     31 N         -25.4300  -14.6190  -19.8330 N.am      7 SEL2        0.0000 
     32 N         -26.9170  -14.0680  -17.8270 N.am      4 SEP2        0.0000 
     33 N         -25.2620  -13.4235  -20.4960 N.am      1 SEC2        0.0000 
     34 N         -25.0940  -12.2280  -21.1590 N.am      4 SEP2        0.0000 
     35 N         -22.2320  -18.4510  -22.7150 N.am      1 SEC2        0.0000 
     36 N         -23.4860  -18.0640  -22.0650 N.am      7 SEL2        0.0000 
     37 N         -20.9780  -18.8380  -23.3650 N.am      4 SEP2        0.0000 
     38 NZ        -25.3795  -14.9195  -18.0795 N.4       2 LYC4        0.0000 
     39 NZ        -23.8420  -15.7710  -18.3320 N.4       8 LYL4        0.0000 
     40 N         -24.7260  -15.8935  -17.3000 N.am      1 SEC2        0.0000 
     41 N         -23.8420  -15.7710  -18.3320 N.am      7 SEL2        0.0000 
     42 N         -25.6100  -16.0160  -16.2680 N.am      4 SEP2        0.0000 
     43 N         -22.4935  -16.0980  -17.9760 N.am      1 SEC2        0.0000 
     44 N         -21.1450  -16.4250  -17.6200 N.am      4 SEP2        0.0000 
     45 NZ        -22.9885  -13.9450  -20.8630 N.4       2 LYC4        0.0000 
     46 NZ        -23.1720  -15.3450  -20.5960 N.4       8 LYL4        0.0000 
     47 N         -21.9795  -16.2860  -20.7455 N.am      1 SEC2        0.0000 
     48 N         -23.1720  -15.3450  -20.5960 N.am      7 SEL2        0.0000 
     49 N         -20.7870  -17.2270  -20.8950 N.am      4 SEP2        0.0000 
     50 N         -22.9885  -13.9450  -20.8630 N.am      1 SEC2        0.0000 
     51 N         -22.8050  -12.5450  -21.1300 N.am      4 SEP2        0.0000 
     52 N         -22.1770  -19.0890  -18.5515 N.am      1 SEC2        0.0000 
     53 N         -23.2270  -18.8310  -19.6940 N.am      7 SEL2        0.0000 
     54 N         -21.1270  -19.3470  -17.4090 N.am      4 SEP2        0.0000 
     55 N         -22.2645  -19.7325  -19.7765 N.am      1 SEC2        0.0000 
     56 N         -21.3020  -20.6340  -19.8590 N.am      4 SEP2        0.0000 
     57 CA        -25.5060  -19.9560  -18.1150 C.3       3 GLC5        0.0000 
     58 CA        -25.7610  -20.2670  -20.0230 C.3       9 GLL5        0.0000 
     59 CA        -27.1415  -19.5670  -21.5820 C.3       3 GLC5        0.0000 
     60 CA        -28.5220  -18.8670  -23.1410 C.3       6 GLP5        0.0000 
     61 CA        -27.0360  -19.0475  -19.2855 C.3       3 GLC5        0.0000 
     62 CA        -28.3110  -17.8280  -18.5480 C.3       6 GLP5        0.0000 
     63 N         -26.2530  -18.8655  -21.9735 N.am      1 SEC2        0.0000 
     64 N         -25.2630  -19.4300  -21.0070 N.am      7 SEL2        0.0000 
     65 N         -27.2430  -18.3010  -22.9400 N.am      4 SEP2        0.0000 
     66 N         -24.6965  -24.9825  -19.6375 N.am      1 SEC2        0.0000 
     67 N         -24.6740  -23.7410  -19.4210 N.am      7 SEL2        0.0000 
     68 N         -24.7190  -26.2240  -19.8540 N.am      4 SEP2        0.0000 
     69 CA        -28.4940  -25.5727  -17.6517 C.3       3 GLC5        0.0000 
     70 CA        -28.9750  -27.1460  -16.7680 C.3       6 GLP5        0.0000 
     71 CA        -28.0810  -25.0173  -21.1863 C.3       3 GLC5        0.0000 
     72 CA        -27.9710  -26.2160  -22.6740 C.3       6 GLP5        0.0000 
@<TRIPOS>BOND
@<TRIPOS>SUBSTRUCTURE
     1 SEC2        4 GROUP        1 X    SEC  0     ROOT SEC X 2
     2 LYC4        1 GROUP        1 X    LYC  0     **** LYC X 4
     3 GLC5        9 GROUP        1 X    GLC  0     **** GLC X 6
     4 SEP2        6 GROUP        1 Y    SEP  0     ROOT SEP Y 9
     5 LYP4        3 GROUP        1 Y    LYP  0     **** LYP Y 11
     6 GLP5       11 GROUP        1 Y    GLP  0     **** GLP Y 13
     7 SEL2        5 GROUP        1 Z    SEL  0     ROOT SEL Z 16
     8 LYL4        2 GROUP        1 Z    LYL  0     **** LYL Z 18
     9 GLL5       10 GROUP        1 Z    GLL  0     **** GLL Z 20
@<TRIPOS>SET

