#    Name: 3qt6_2P0_1_ligand
#    Modification time : Tue Mar 25 10:06:36 2014

@<TRIPOS>MOLECULE
3qt6_2P0_1_ligand
   29    29     1     0     0
SMALL
NO_CHARGES


@<TRIPOS>ATOM
      1 C         -25.2360  -23.2340  -18.4070 C.2       1 2P0328      0.0000 
      2 N         -27.0380  -22.4710  -19.7900 N.am      1 2P0328      0.0000 
      3 O         -24.5740  -23.1160  -17.3430 O.co2     1 2P0328      0.0000 
      4 CA        -26.6360  -22.7670  -18.4540 C.3       1 2P0328      0.0000 
      5 CB        -27.5340  -23.8540  -17.9730 C.3       1 2P0328      0.0000 
      6 CD        -27.8900  -23.4920  -20.2990 C.3       1 2P0328      0.0000 
      7 CG        -28.4920  -24.1450  -19.0980 C.3       1 2P0328      0.0000 
      8 OAB       -27.0920  -21.2310  -21.6910 O.2       1 2P0328      0.0000 
      9 OAC       -25.4300  -14.6190  -19.8330 O.co2     1 2P0328      0.0000 
     10 OAD       -23.4860  -18.0640  -22.0650 O.co2     1 2P0328      0.0000 
     11 OAF       -23.8420  -15.7710  -18.3320 O.co2     1 2P0328      0.0000 
     12 OAG       -23.1720  -15.3450  -20.5960 O.co2     1 2P0328      0.0000 
     13 OAH       -23.2270  -18.8310  -19.6940 O.co2     1 2P0328      0.0000 
     14 CAK       -25.7610  -20.2670  -20.0230 C.3       1 2P0328      0.0000 
     15 OAM       -25.2630  -19.4300  -21.0070 O.3       1 2P0328      0.0000 
     16 OAN       -24.9670  -17.0590  -20.2170 O.3       1 2P0328      0.0000 
     17 CAP       -26.6590  -21.3330  -20.5550 C.2       1 2P0328      0.0000 
     18 PAS       -24.3680  -15.6790  -19.7420 P.3       1 2P0328      0.0000 
     19 PAT       -24.1880  -18.3240  -20.7570 P.3       1 2P0328      0.0000 
     20 OXT       -24.6740  -23.7410  -19.4210 O.co2     1 2P0328      0.0000 
     21 H         -26.7626  -21.9142  -17.8154 H         1 2P0328      0.0000 
     22 H         -28.0838  -23.5272  -17.1059 H         1 2P0328      0.0000 
     23 H         -26.9614  -24.7387  -17.7483 H         1 2P0328      0.0000 
     24 H         -27.3367  -24.2338  -20.8618 H         1 2P0328      0.0000 
     25 H         -28.6842  -23.0842  -20.9122 H         1 2P0328      0.0000 
     26 H         -29.4480  -23.7126  -18.8806 H         1 2P0328      0.0000 
     27 H         -28.5637  -25.2035  -19.2480 H         1 2P0328      0.0000 
     28 H         -26.3353  -19.6996  -19.2467 H         1 2P0328      0.0000 
     29 H         -24.9400  -20.7722  -19.4529 H         1 2P0328      0.0000 
@<TRIPOS>BOND
     1    3    1 ar   
     2    4    1 1    
     3   20    1 ar   
     4    4    2 1    
     5    6    2 1    
     6   17    2 am   
     7    5    4 1    
     8   21    4 1    
     9    7    5 1    
    10   22    5 1    
    11   23    5 1    
    12    7    6 1    
    13   24    6 1    
    14   25    6 1    
    15   26    7 1    
    16   27    7 1    
    17   17    8 2    
    18   18    9 ar   
    19   19   10 ar   
    20   18   11 ar   
    21   18   12 ar   
    22   19   13 ar   
    23   15   14 1    
    24   17   14 1    
    25   28   14 1    
    26   29   14 1    
    27   19   15 1    
    28   18   16 1    
    29   19   16 1    
@<TRIPOS>SUBSTRUCTURE
     1 2P0328      1 GROUP   
@<TRIPOS>SET

