#    Name: 3eo8_FMN_4_INTS_M
#    Modification time : Tue Mar 25 02:14:16 2014

@<TRIPOS>MOLECULE
3eo8_FMN_4_INTS_M
   92     0    12     0     0
SMALL
NO_CHARGES


@<TRIPOS>ATOM
      1 N          61.3480  103.7040  -22.0865 N.am      2 SEC2        0.0000 
      2 N          62.7790  103.3120  -21.4740 N.am     10 SEL2        0.0000 
      3 N          59.9170  104.0960  -22.6990 N.am      6 SEP2        0.0000 
      4 N          61.4180  105.8805  -21.8575 N.am      2 SEC2        0.0000 
      5 N          62.7030  105.5280  -21.8480 N.am     10 SEL2        0.0000 
      6 N          60.1330  106.2330  -21.8670 N.am      6 SEP2        0.0000 
      7 N          61.3100  104.8120  -22.2735 N.am      2 SEC2        0.0000 
      8 O          65.2570  105.9780  -21.4280 O.2       1 ALC1        0.0000 
      9 O          64.7330  104.6890  -21.4160 O.2       9 ALL1        0.0000 
     10 O          65.7810  107.2670  -21.4400 O.2       5 ALP1        0.0000 
     11 N          67.4630  102.7705  -19.8825 N.am      2 SEC2        0.0000 
     12 N          66.7510  103.8250  -20.9090 N.am     10 SEL2        0.0000 
     13 N          68.1750  101.7160  -18.8560 N.am      6 SEP2        0.0000 
     14 N          68.1835  103.5430  -20.7175 N.am      2 SEC2        0.0000 
     15 N          69.6160  103.2610  -20.5260 N.am      6 SEP2        0.0000 
     16 N          67.6225  104.7940  -21.0245 N.am      2 SEC2        0.0000 
     17 N          68.4940  105.7630  -21.1400 N.am      6 SEP2        0.0000 
     18 N          66.9455  101.4835  -19.7870 N.am      2 SEC2        0.0000 
     19 N          65.7160  101.2510  -20.7180 N.am     10 SEL2        0.0000 
     20 CA         65.7020  101.3165  -19.1360 C.3       4 GLC5        0.0000 
     21 CA         65.1280  100.0160  -20.5880 C.3      12 GLL5        0.0000 
     22 CA         66.2760  102.6170  -17.6840 C.3       8 GLP5        0.0000 
     23 CA         68.1260   95.7860  -20.1480 C.3       4 GLC5        0.0000 
     24 CA         66.2500   96.5880  -19.5010 C.3      12 GLL5        0.0000 
     25 CA         70.0020   94.9840  -20.7950 C.3       8 GLP5        0.0000 
     26 CA         66.9550   95.0100  -18.6270 C.3       4 GLC5        0.0000 
     27 CA         67.6600   93.4320  -17.7530 C.3       8 GLP5        0.0000 
     28 CA         65.7120   97.5855  -17.9635 C.3       4 GLC5        0.0000 
     29 CA         65.1740   98.5830  -16.4260 C.3       8 GLP5        0.0000 
     30 CA         61.3390   96.4675  -19.5685 C.3       4 GLC5        0.0000 
     31 CA         63.3130   96.3030  -19.6640 C.3      12 GLL5        0.0000 
     32 CA         59.3650   96.6320  -19.4730 C.3       8 GLP5        0.0000 
     33 CA         63.9065   94.2630  -20.0965 C.3       4 GLC5        0.0000 
     34 CA         64.5000   92.2230  -20.5290 C.3       8 GLP5        0.0000 
     35 CA         63.3885   96.7350  -17.8945 C.3       4 GLC5        0.0000 
     36 CA         63.4640   97.1670  -16.1250 C.3       8 GLP5        0.0000 
     37 CA         61.2840   97.6215  -20.0125 C.3       4 GLC5        0.0000 
     38 CA         63.2030   98.6110  -20.5520 C.3      12 GLL5        0.0000 
     39 CA         59.6965  101.7460  -20.7770 C.3       4 GLC5        0.0000 
     40 CA         61.4950  100.8630  -21.3600 C.3      12 GLL5        0.0000 
     41 CA         57.8980  102.6290  -20.1940 C.3       8 GLP5        0.0000 
     42 CA         61.2170  102.5080  -20.0565 C.3       4 GLC5        0.0000 
     43 CA         60.9390  104.1530  -18.7530 C.3       8 GLP5        0.0000 
     44 CA         58.8045  101.2365  -21.5145 C.3       4 GLC5        0.0000 
     45 CA         59.7110   99.8440  -22.8350 C.3      12 GLL5        0.0000 
     46 N          60.1885   97.2735  -22.0705 N.am      2 SEC2        0.0000 
     47 N          59.5430   98.7570  -21.9220 N.am     10 SEL2        0.0000 
     48 N          60.8340   95.7900  -22.2190 N.am      6 SEP2        0.0000 
     49 CA         56.9230   99.6825  -25.9620 C.3       4 GLC5        0.0000 
     50 CA         57.7710   98.9290  -24.2300 C.3      12 GLL5        0.0000 
     51 CA         56.0750  100.4360  -27.6940 C.3       8 GLP5        0.0000 
     52 CA         56.2145   97.8295  -24.8270 C.3       4 GLC5        0.0000 
     53 CA         54.6580   96.7300  -25.4240 C.3       8 GLP5        0.0000 
     54 N          55.5310  101.4005  -20.7600 N.am      2 SEC2        0.0000 
     55 N          55.3180  101.0350  -22.1410 N.am     10 SEL2        0.0000 
     56 N          55.7440  101.7660  -19.3790 N.am      6 SEP2        0.0000 
     57 N          54.0760  101.3410  -22.5350 N.am      2 SEC2        0.0000 
     58 N          52.8340  101.6470  -22.9290 N.am      6 SEP2        0.0000 
     59 NZ         56.6185   98.8720  -20.0575 N.4       3 LYC4        0.0000 
     60 NZ         57.0450   99.4630  -21.2710 N.4      11 LYL4        0.0000 
     61 NZ         55.6830   97.0740  -19.1170 N.4       7 LYP4        0.0000 
     62 N          56.6185   98.8720  -20.0575 N.am      2 SEC2        0.0000 
     63 N          57.0450   99.4630  -21.2710 N.am     10 SEL2        0.0000 
     64 N          56.1920   98.2810  -18.8440 N.am      6 SEP2        0.0000 
     65 N          56.2195   98.1030  -20.8265 N.am      2 SEC2        0.0000 
     66 N          55.3940   96.7430  -20.3820 N.am      6 SEP2        0.0000 
     67 N          57.7625  100.4100  -20.7565 N.am      2 SEC2        0.0000 
     68 N          58.4800  101.3570  -20.2420 N.am      6 SEP2        0.0000 
     69 NZ         55.2625   97.6880  -21.5390 N.4       3 LYC4        0.0000 
     70 NZ         55.1310   98.6330  -22.6960 N.4      11 LYL4        0.0000 
     71 NZ         54.8540   97.4635  -23.3500 N.4       3 LYC4        0.0000 
     72 NZ         54.5770   96.2940  -24.0040 N.4       7 LYP4        0.0000 
     73 N          55.2625   97.6880  -21.5390 N.am      2 SEC2        0.0000 
     74 N          55.1310   98.6330  -22.6960 N.am     10 SEL2        0.0000 
     75 N          54.8540   97.4635  -23.3500 N.am      2 SEC2        0.0000 
     76 N          54.5770   96.2940  -24.0040 N.am      6 SEP2        0.0000 
     77 CA         65.1822   98.5393  -22.2945 C.3       4 GLC5        0.0000 
     78 CA         64.8310   97.6050  -24.1710 C.3       8 GLP5        0.0000 
     79 CA         64.7587   97.6050  -22.1600 C.3       4 GLC5        0.0000 
     80 CA         65.3830   97.6790  -20.0910 C.3      12 GLL5        0.0000 
     81 CA         67.6372   98.1687  -19.0586 C.3       4 GLC5        0.0000 
     82 CA         65.9390   98.9310  -20.2480 C.3      12 GLL5        0.0000 
     83 CA         69.3190   98.8910  -18.2820 C.3       8 GLP5        0.0000 
     84 CA         62.7501   96.5850  -21.5514 C.3       4 GLC5        0.0000 
     85 CA         62.0730   95.4060  -22.8590 C.3       8 GLP5        0.0000 
     86 CA         64.1565   98.4243  -22.4102 C.3       4 GLC5        0.0000 
     87 CA         63.2509   99.2768  -18.6296 C.3       4 GLC5        0.0000 
     88 CA         63.7610   99.8760  -20.7470 C.3      12 GLL5        0.0000 
     89 CA         62.8230   99.5800  -16.6960 C.3       8 GLP5        0.0000 
     90 CA         58.9675   98.6312  -26.0075 C.3       4 GLC5        0.0000 
     91 CA         59.2250   99.4060  -24.2280 C.3      12 GLL5        0.0000 
     92 CA         59.4370   98.0950  -27.7860 C.3       8 GLP5        0.0000 
@<TRIPOS>BOND
@<TRIPOS>SUBSTRUCTURE
     1 ALC1        8 GROUP        1 X    ALC  0     ROOT ALC X 1
     2 SEC2        1 GROUP        1 X    SEC  0     **** SEC X 2
     3 LYC4       59 GROUP        1 X    LYC  0     **** LYC X 4
     4 GLC5       20 GROUP        1 X    GLC  0     **** GLC X 6
     5 ALP1       10 GROUP        1 Y    ALP  0     ROOT ALP Y 8
     6 SEP2        3 GROUP        1 Y    SEP  0     **** SEP Y 9
     7 LYP4       61 GROUP        1 Y    LYP  0     **** LYP Y 11
     8 GLP5       22 GROUP        1 Y    GLP  0     **** GLP Y 13
     9 ALL1        9 GROUP        1 Z    ALL  0     ROOT ALL Z 15
    10 SEL2        2 GROUP        1 Z    SEL  0     **** SEL Z 16
    11 LYL4       60 GROUP        1 Z    LYL  0     **** LYL Z 18
    12 GLL5       21 GROUP        1 Z    GLL  0     **** GLL Z 20
@<TRIPOS>SET

