#    Name: 1zfn_ATP_3_INTS_M
#    Modification time : Tue Mar 25 11:43:59 2014

@<TRIPOS>MOLECULE
1zfn_ATP_3_INTS_M
   72     0    12     0     0
SMALL
NO_CHARGES


@<TRIPOS>ATOM
      1 N         -71.6055  179.9825   67.3200 N.am      2 SEC2        0.0000 
      2 N         -71.1630  181.5880   67.7970 N.am     10 SEL2        0.0000 
      3 N         -72.0480  178.3770   66.8430 N.am      6 SEP2        0.0000 
      4 NZ        -68.3360  178.8995   66.8435 N.4       3 LYC4        0.0000 
      5 NZ        -69.5300  179.4530   67.7330 N.4      11 LYL4        0.0000 
      6 NZ        -66.3880  179.2150   65.2980 N.4       7 LYP4        0.0000 
      7 NZ        -70.5210  178.4180   66.9330 N.4       3 LYC4        0.0000 
      8 NZ        -71.5120  177.3830   66.1330 N.4       7 LYP4        0.0000 
      9 N         -68.3360  178.8995   66.8435 N.am      2 SEC2        0.0000 
     10 N         -69.5300  179.4530   67.7330 N.am     10 SEL2        0.0000 
     11 N         -67.1420  178.3460   65.9540 N.am      6 SEP2        0.0000 
     12 NZ        -70.5750  179.3380   65.3775 N.4       3 LYC4        0.0000 
     13 NZ        -70.3840  181.0410   65.6900 N.4      11 LYL4        0.0000 
     14 N         -70.5750  179.3380   65.3775 N.am      2 SEC2        0.0000 
     15 N         -70.3840  181.0410   65.6900 N.am     10 SEL2        0.0000 
     16 N         -70.7660  177.6350   65.0650 N.am      6 SEP2        0.0000 
     17 N         -71.2160  179.7090   66.2665 N.am      2 SEC2        0.0000 
     18 NZ        -66.6950  182.9255   70.5340 N.4       3 LYC4        0.0000 
     19 NZ        -67.6250  183.2370   69.4620 N.4      11 LYL4        0.0000 
     20 NZ        -65.7650  182.6140   71.6060 N.4       7 LYP4        0.0000 
     21 N         -67.6770  181.1490   66.3740 N.am      2 SEC2        0.0000 
     22 N         -68.6750  181.7910   67.4040 N.am     10 SEL2        0.0000 
     23 N         -66.6790  180.5070   65.3440 N.am      6 SEP2        0.0000 
     24 N         -64.2185  184.0915   65.9975 N.am      2 SEC2        0.0000 
     25 N         -65.5830  184.5910   65.8460 N.am     10 SEL2        0.0000 
     26 N         -62.8540  183.5920   66.1490 N.am      6 SEP2        0.0000 
     27 CA        -66.4350  188.7465   67.0585 C.3       4 GLC5        0.0000 
     28 CA        -66.1080  186.6620   67.6090 C.3      12 GLL5        0.0000 
     29 CA        -66.7620  190.8310   66.5080 C.3       8 GLP5        0.0000 
     30 CA        -64.9790  188.6350   69.5640 C.3       4 GLC5        0.0000 
     31 CA        -66.1080  187.1720   69.0730 C.3      12 GLL5        0.0000 
     32 CA        -63.8500  190.0980   70.0550 C.3       8 GLP5        0.0000 
     33 CA        -65.0835  185.3995   69.2145 C.3       4 GLC5        0.0000 
     34 CA        -66.8530  186.2200   70.1160 C.3      12 GLL5        0.0000 
     35 CA        -63.3140  184.5790   68.3130 C.3       8 GLP5        0.0000 
     36 N         -65.8740  184.0520   71.2870 N.am      2 SEC2        0.0000 
     37 N         -65.9830  185.4900   70.9680 N.am     10 SEL2        0.0000 
     38 N         -65.7650  182.6140   71.6060 N.am      6 SEP2        0.0000 
     39 O         -65.4205  186.4400   71.6790 O.2       1 ALC1        0.0000 
     40 O         -65.9830  185.4900   70.9680 O.2       9 ALL1        0.0000 
     41 O         -64.8580  187.3900   72.3900 O.2       5 ALP1        0.0000 
     42 O         -67.2535  187.0680   72.9785 O.2       1 ALC1        0.0000 
     43 O         -68.2560  186.8250   71.8890 O.2       9 ALL1        0.0000 
     44 O         -66.2510  187.3110   74.0680 O.2       5 ALP1        0.0000 
     45 O         -66.5570  187.1075   72.1395 O.2       1 ALC1        0.0000 
     46 CA        -65.5385  189.3150   70.3145 C.3       4 GLC5        0.0000 
     47 CA        -67.2270  188.5320   70.5740 C.3      12 GLL5        0.0000 
     48 CA        -66.7455  190.4495   69.5005 C.3       4 GLC5        0.0000 
     49 CA        -66.2640  192.3670   68.4270 C.3       8 GLP5        0.0000 
     50 CA        -66.7895  193.9040   71.0390 C.3       4 GLC5        0.0000 
     51 CA        -68.7080  193.1180   71.5200 C.3      12 GLL5        0.0000 
     52 CA        -64.8710  194.6900   70.5580 C.3       8 GLP5        0.0000 
     53 O         -70.3675  194.2785   69.9580 O.2       1 ALC1        0.0000 
     54 O         -69.5750  194.1180   71.3510 O.2       9 ALL1        0.0000 
     55 O         -71.1600  194.4390   68.5650 O.2       5 ALP1        0.0000 
     56 CA        -65.7775  193.5460   71.5990 C.3       4 GLC5        0.0000 
     57 CA        -66.6840  192.4020   72.6400 C.3      12 GLL5        0.0000 
     58 CA        -65.2670  191.2500   71.3475 C.3       4 GLC5        0.0000 
     59 CA        -65.7920  191.0745   73.8315 C.3       4 GLC5        0.0000 
     60 CA        -64.9000  189.7470   75.0230 C.3       8 GLP5        0.0000 
     61 CA        -67.8685  192.9645   74.1295 C.3       4 GLC5        0.0000 
     62 CA        -69.0530  193.5270   75.6190 C.3       8 GLP5        0.0000 
     63 CA        -66.4740  192.3845   70.5335 C.3       4 GLC5        0.0000 
     64 CA        -65.8225  190.4850   70.6260 C.3       4 GLC5        0.0000 
     65 CA        -67.7950  190.8720   71.1970 C.3      12 GLL5        0.0000 
     66 CA        -64.7110  185.7480   68.3270 C.3       4 GLC5        0.0000 
     67 CA        -69.8255  192.5228   72.6643 C.3       4 GLC5        0.0000 
     68 CA        -68.7780  191.8170   70.9050 C.3      12 GLL5        0.0000 
     69 CA        -70.9080  192.5780   74.1160 C.3       8 GLP5        0.0000 
     70 CA        -68.8850  194.0208   69.8377 C.3       4 GLC5        0.0000 
     71 CA        -69.0270  195.5740   68.4630 C.3       8 GLP5        0.0000 
     72 CA        -67.2665  192.0184   69.8159 C.3       4 GLC5        0.0000 
@<TRIPOS>BOND
@<TRIPOS>SUBSTRUCTURE
     1 ALC1       39 GROUP        1 X    ALC  0     ROOT ALC X 1
     2 SEC2        1 GROUP        1 X    SEC  0     **** SEC X 2
     3 LYC4        4 GROUP        1 X    LYC  0     **** LYC X 4
     4 GLC5       27 GROUP        1 X    GLC  0     **** GLC X 6
     5 ALP1       41 GROUP        1 Y    ALP  0     ROOT ALP Y 8
     6 SEP2        3 GROUP        1 Y    SEP  0     **** SEP Y 9
     7 LYP4        6 GROUP        1 Y    LYP  0     **** LYP Y 11
     8 GLP5       29 GROUP        1 Y    GLP  0     **** GLP Y 13
     9 ALL1       40 GROUP        1 Z    ALL  0     ROOT ALL Z 15
    10 SEL2        2 GROUP        1 Z    SEL  0     **** SEL Z 16
    11 LYL4        5 GROUP        1 Z    LYL  0     **** LYL Z 18
    12 GLL5       28 GROUP        1 Z    GLL  0     **** GLL Z 20
@<TRIPOS>SET

