#    Name: 1zfn_ATP_3_ligand
#    Modification time : Tue Mar 25 11:43:59 2014

@<TRIPOS>MOLECULE
1zfn_ATP_3_ligand
   42    44     1     0     0
SMALL
NO_CHARGES


@<TRIPOS>ATOM
      1 PG        -70.0080  180.9110   67.1790 P.3       1 ATP346      0.0000 
      2 O1G       -71.1630  181.5880   67.7970 O.co2     1 ATP346      0.0000 
      3 O2G       -69.5300  179.4530   67.7330 O.co2     1 ATP346      0.0000 
      4 O3G       -70.3840  181.0410   65.6900 O.co2     1 ATP346      0.0000 
      5 PB        -68.5210  183.1600   68.2300 P.3       1 ATP346      0.0000 
      6 O1B       -69.4920  184.2970   68.0420 O.co2     1 ATP346      0.0000 
      7 O2B       -67.6250  183.2370   69.4620 O.co2     1 ATP346      0.0000 
      8 O3B       -68.6750  181.7910   67.4040 O.3       1 ATP346      0.0000 
      9 PA        -66.9650  184.6510   66.2080 P.3       1 ATP346      0.0000 
     10 O1A       -65.5830  184.5910   65.8460 O.co2     1 ATP346      0.0000 
     11 O2A       -68.0980  184.8980   65.1220 O.co2     1 ATP346      0.0000 
     12 O3A       -67.2040  183.4100   67.2310 O.3       1 ATP346      0.0000 
     13 O5'       -67.1200  185.8180   67.2620 O.3       1 ATP346      0.0000 
     14 C5'       -66.1080  186.6620   67.6090 C.3       1 ATP346      0.0000 
     15 C4'       -66.1080  187.1720   69.0730 C.3       1 ATP346      0.0000 
     16 O4'       -66.4400  188.4860   69.4310 O.3       1 ATP346      0.0000 
     17 C3'       -66.8530  186.2200   70.1160 C.3       1 ATP346      0.0000 
     18 O3'       -65.9830  185.4900   70.9680 O.3       1 ATP346      0.0000 
     19 C2'       -67.8990  187.2180   70.5850 C.3       1 ATP346      0.0000 
     20 O2'       -68.2560  186.8250   71.8890 O.3       1 ATP346      0.0000 
     21 C1'       -67.2270  188.5320   70.5740 C.3       1 ATP346      0.0000 
     22 N9        -68.0750  189.7430   70.5110 N.pl3     1 ATP346      0.0000 
     23 C8        -69.2160  189.9800   69.8070 C.2       1 ATP346      0.0000 
     24 N7        -69.6480  191.2410   70.0430 N.2       1 ATP346      0.0000 
     25 C5        -68.7780  191.8170   70.9050 C.ar      1 ATP346      0.0000 
     26 C6        -68.7080  193.1180   71.5200 C.ar      1 ATP346      0.0000 
     27 N6        -69.5750  194.1180   71.3510 N.pl3     1 ATP346      0.0000 
     28 N1        -67.6530  193.3630   72.3700 N.ar      1 ATP346      0.0000 
     29 C2        -66.6840  192.4020   72.6400 C.ar      1 ATP346      0.0000 
     30 N3        -66.7710  191.1590   72.0390 N.ar      1 ATP346      0.0000 
     31 C4        -67.7950  190.8720   71.1970 C.ar      1 ATP346      0.0000 
     32 H         -66.0762  187.5930   66.9671 H         1 ATP346      0.0000 
     33 H         -65.0850  186.2058   67.4503 H         1 ATP346      0.0000 
     34 H         -64.9864  187.0128   69.4350 H         1 ATP346      0.0000 
     35 H         -67.4188  185.5408   69.3967 H         1 ATP346      0.0000 
     36 H         -68.7004  187.1971   69.9030 H         1 ATP346      0.0000 
     37 H         -66.5704  188.5907   71.4489 H         1 ATP346      0.0000 
     38 H         -69.6518  189.3369   69.2233 H         1 ATP346      0.0000 
     39 H         -65.9120  192.6169   73.2806 H         1 ATP346      0.0000 
     40 H         -65.8870  186.0566   71.7864 H         1 ATP346      0.0000 
     41 H         -67.4720  187.0734   72.4578 H         1 ATP346      0.0000 
     42 H         -69.9307  193.9981   70.4241 H         1 ATP346      0.0000 
@<TRIPOS>BOND
     1    2    1 ar   
     2    3    1 ar   
     3    4    1 ar   
     4    8    1 1    
     5    6    5 ar   
     6    7    5 ar   
     7    8    5 1    
     8   12    5 1    
     9   10    9 ar   
    10   11    9 ar   
    11   12    9 1    
    12   13    9 1    
    13   14   13 1    
    14   15   14 1    
    15   32   14 1    
    16   33   14 1    
    17   16   15 1    
    18   17   15 1    
    19   34   15 1    
    20   21   16 1    
    21   18   17 1    
    22   19   17 1    
    23   35   17 1    
    24   40   18 1    
    25   20   19 1    
    26   21   19 1    
    27   36   19 1    
    28   41   20 1    
    29   22   21 1    
    30   37   21 1    
    31   23   22 1    
    32   31   22 1    
    33   24   23 2    
    34   38   23 1    
    35   25   24 1    
    36   26   25 ar   
    37   31   25 ar   
    38   27   26 1    
    39   28   26 ar   
    40   42   27 1    
    41   29   28 ar   
    42   30   29 ar   
    43   39   29 1    
    44   31   30 ar   
@<TRIPOS>SUBSTRUCTURE
     1 ATP346      1 GROUP   
@<TRIPOS>SET

