#    Name: 2r0p_K2C_1_INTS_M
#    Modification time : Mon Mar 24 23:02:11 2014

@<TRIPOS>MOLECULE
2r0p_K2C_1_INTS_M
   51     0     9     0     0
SMALL
NO_CHARGES


@<TRIPOS>ATOM
      1 CA         16.9070  -23.6795   15.8090 C.3       3 GLC5        0.0000 
      2 CA         15.5330  -25.0460   14.8270 C.3       9 GLL5        0.0000 
      3 CA         18.2810  -22.3130   16.7910 C.3       6 GLP5        0.0000 
      4 O          16.5115  -22.8940   13.4995 O.2       1 ALC1        0.0000 
      5 O          15.3250  -23.8900   13.9680 O.2       7 ALL1        0.0000 
      6 O          17.6980  -21.8980   13.0310 O.2       4 ALP1        0.0000 
      7 O          10.4870  -27.9620   16.7000 O.2       1 ALC1        0.0000 
      8 O          11.9690  -28.0850   16.5610 O.2       7 ALL1        0.0000 
      9 O           9.0050  -27.8390   16.8390 O.2       4 ALP1        0.0000 
     10 CA         15.5370  -28.9960   15.2485 C.3       3 GLC5        0.0000 
     11 CA         15.6140  -27.9560   16.9370 C.3       9 GLL5        0.0000 
     12 CA         15.4600  -30.0360   13.5600 C.3       6 GLP5        0.0000 
     13 N          14.8035  -21.7000   13.4050 N.am      2 SEC2        0.0000 
     14 N          13.6600  -22.7310   12.9240 N.am      8 SEL2        0.0000 
     15 N          15.9470  -20.6690   13.8860 N.am      5 SEP2        0.0000 
     16 CA         13.4210  -23.1600   15.5445 C.3       3 GLC5        0.0000 
     17 CA         13.2310  -24.7160   14.2970 C.3       9 GLL5        0.0000 
     18 CA         13.6110  -21.6040   16.7920 C.3       6 GLP5        0.0000 
     19 O           9.4830  -27.0170   15.8900 O.2       1 ALC1        0.0000 
     20 O           9.9610  -26.1950   14.9410 O.2       7 ALL1        0.0000 
     21 CA          7.4720  -22.3070   11.4890 C.3       3 GLC5        0.0000 
     22 CA          7.9780  -23.7300   12.9170 C.3       9 GLL5        0.0000 
     23 CA          6.9660  -20.8840   10.0610 C.3       6 GLP5        0.0000 
     24 CA         14.6403  -23.9065   16.2637 C.3       3 GLC5        0.0000 
     25 CA         14.1140  -25.5480   15.0080 C.3       9 GLL5        0.0000 
     26 CA         14.4570  -22.5160   17.6100 C.3       6 GLP5        0.0000 
     27 CA         10.8302  -25.3570   16.7705 C.3       3 GLC5        0.0000 
     28 CA         12.2110  -26.9650   15.7850 C.3       9 GLL5        0.0000 
     29 CA          9.8970  -24.1740   18.1190 C.3       6 GLP5        0.0000 
     30 CA         14.5114  -28.9534   15.0861 C.3       3 GLC5        0.0000 
     31 CA         13.6230  -26.6830   15.7640 C.3       9 GLL5        0.0000 
     32 CA         14.2240  -27.8495   18.9207 C.3       3 GLC5        0.0000 
     33 CA         14.2440  -27.6960   16.5730 C.3       9 GLL5        0.0000 
     34 CA         14.7300  -27.5750   21.0270 C.3       6 GLP5        0.0000 
     35 CA         15.2453  -28.0403   19.1898 C.3       3 GLC5        0.0000 
     36 CA         15.9070  -29.0550   17.7680 C.3       9 GLL5        0.0000 
     37 CA         15.7718  -30.3490   16.1142 C.3       3 GLC5        0.0000 
     38 CA         16.1600  -31.2210   14.2230 C.3       6 GLP5        0.0000 
     39 CA         14.4550  -28.6800   19.5500 C.3       3 GLC5        0.0000 
     40 CA         14.8600  -29.8990   18.2430 C.3       9 GLL5        0.0000 
     41 CA         13.1830  -31.3525   18.8660 C.3       3 GLC5        0.0000 
     42 CA         12.1860  -32.9200   19.6590 C.3       6 GLP5        0.0000 
     43 CA         10.1273  -24.5456   16.0964 C.3       3 GLC5        0.0000 
     44 CA         11.7990  -24.9780   14.3020 C.3       9 GLL5        0.0000 
     45 CA          9.0948  -21.8725   11.2570 C.3       3 GLC5        0.0000 
     46 CA          9.0700  -22.9360   12.4880 C.3       9 GLL5        0.0000 
     47 CA          8.4590  -20.6610    9.8350 C.3       6 GLP5        0.0000 
     48 CA          7.5794  -23.6867   14.9019 C.3       3 GLC5        0.0000 
     49 CA          6.7520  -23.0020   16.3720 C.3       6 GLP5        0.0000 
     50 CA          8.7911  -21.7385   13.8860 C.3       3 GLC5        0.0000 
     51 CA          8.7280  -20.0700   14.9740 C.3       6 GLP5        0.0000 
@<TRIPOS>BOND
@<TRIPOS>SUBSTRUCTURE
     1 ALC1        4 GROUP        1 X    ALC  0     ROOT ALC X 1
     2 SEC2       13 GROUP        1 X    SEC  0     **** SEC X 2
     3 GLC5        1 GROUP        1 X    GLC  0     **** GLC X 6
     4 ALP1        6 GROUP        1 Y    ALP  0     ROOT ALP Y 8
     5 SEP2       15 GROUP        1 Y    SEP  0     **** SEP Y 9
     6 GLP5        3 GROUP        1 Y    GLP  0     **** GLP Y 13
     7 ALL1        5 GROUP        1 Z    ALL  0     ROOT ALL Z 15
     8 SEL2       14 GROUP        1 Z    SEL  0     **** SEL Z 16
     9 GLL5        2 GROUP        1 Z    GLL  0     **** GLL Z 20
@<TRIPOS>SET

