#    Name: 2r0p_K2C_1_ligand
#    Modification time : Mon Mar 24 23:02:11 2014

@<TRIPOS>MOLECULE
2r0p_K2C_1_ligand
   37    42     1     0     0
SMALL
NO_CHARGES


@<TRIPOS>ATOM
      1 C7         15.5330  -25.0460   14.8270 C.3       1 K2C1185     0.0000 
      2 N6         15.3250  -23.8900   13.9680 N.am      1 K2C1185     0.0000 
      3 C22        14.1140  -25.5480   15.0080 C.ar      1 K2C1185     0.0000 
      4 C21        13.6230  -26.6830   15.7640 C.ar      1 K2C1185     0.0000 
      5 C18        12.2110  -26.9650   15.7850 C.ar      1 K2C1185     0.0000 
      6 N12        11.9690  -28.0850   16.5610 N.pl3     1 K2C1185     0.0000 
      7 C19        13.1920  -28.5520   17.0560 C.ar      1 K2C1185     0.0000 
      8 C20        14.2440  -27.6960   16.5730 C.ar      1 K2C1185     0.0000 
      9 C8         15.6140  -27.9560   16.9370 C.ar      1 K2C1185     0.0000 
     10 C9         15.9070  -29.0550   17.7680 C.ar      1 K2C1185     0.0000 
     11 C10        14.8600  -29.8990   18.2430 C.ar      1 K2C1185     0.0000 
     12 C11        13.5000  -29.6710   17.9030 C.ar      1 K2C1185     0.0000 
     13 O24        13.6600  -22.7310   12.9240 O.2       1 K2C1185     0.0000 
     14 C5         14.0440  -23.6560   13.6390 C.2       1 K2C1185     0.0000 
     15 C23        13.2310  -24.7160   14.2970 C.ar      1 K2C1185     0.0000 
     16 C16        11.7990  -24.9780   14.3020 C.ar      1 K2C1185     0.0000 
     17 C17        11.3160  -26.1150   15.0590 C.ar      1 K2C1185     0.0000 
     18 N13         9.9610  -26.1950   14.9410 N.pl3     1 K2C1185     0.0000 
     19 C14         9.5020  -25.1600   14.1380 C.ar      1 K2C1185     0.0000 
     20 C15        10.6270  -24.3710   13.7170 C.ar      1 K2C1185     0.0000 
     21 C4         10.3910  -23.2320   12.8700 C.ar      1 K2C1185     0.0000 
     22 C3          9.0700  -22.9360   12.4880 C.ar      1 K2C1185     0.0000 
     23 C2          7.9780  -23.7300   12.9170 C.ar      1 K2C1185     0.0000 
     24 C1          8.1690  -24.8660   13.7550 C.ar      1 K2C1185     0.0000 
     25 H          15.9259  -24.7655   15.7726 H         1 K2C1185     0.0000 
     26 H          16.1079  -25.7956   14.3423 H         1 K2C1185     0.0000 
     27 H          16.1051  -23.3526   13.6784 H         1 K2C1185     0.0000 
     28 H          11.1219  -28.4766   16.7336 H         1 K2C1185     0.0000 
     29 H          16.3452  -27.3485   16.5926 H         1 K2C1185     0.0000 
     30 H          16.8725  -29.2552   18.0364 H         1 K2C1185     0.0000 
     31 H          15.0998  -30.6968   18.8504 H         1 K2C1185     0.0000 
     32 H          12.7702  -30.2693   18.2405 H         1 K2C1185     0.0000 
     33 H           9.3958  -26.8613   15.3465 H         1 K2C1185     0.0000 
     34 H          11.1676  -22.6660   12.5640 H         1 K2C1185     0.0000 
     35 H           8.8873  -22.1214   11.8804 H         1 K2C1185     0.0000 
     36 H           7.0249  -23.4836   12.6186 H         1 K2C1185     0.0000 
     37 H           7.4018  -25.4241   14.0553 H         1 K2C1185     0.0000 
@<TRIPOS>BOND
     1    2    1 1    
     2    3    1 1    
     3   25    1 1    
     4   26    1 1    
     5   14    2 am   
     6   27    2 1    
     7    4    3 ar   
     8   15    3 ar   
     9    5    4 ar   
    10    8    4 1    
    11    6    5 1    
    12   17    5 ar   
    13    7    6 1    
    14   28    6 1    
    15    8    7 ar   
    16   12    7 ar   
    17    9    8 ar   
    18   10    9 ar   
    19   29    9 1    
    20   11   10 ar   
    21   30   10 1    
    22   12   11 ar   
    23   31   11 1    
    24   32   12 1    
    25   14   13 2    
    26   15   14 1    
    27   16   15 ar   
    28   17   16 ar   
    29   20   16 1    
    30   18   17 1    
    31   19   18 1    
    32   33   18 1    
    33   20   19 ar   
    34   24   19 ar   
    35   21   20 ar   
    36   22   21 ar   
    37   34   21 1    
    38   23   22 ar   
    39   35   22 1    
    40   24   23 ar   
    41   36   23 1    
    42   37   24 1    
@<TRIPOS>SUBSTRUCTURE
     1 K2C1185     1 GROUP   
@<TRIPOS>SET

