#    Name: 3PBK_2_CAVITY_N1_6.mol2
#    Modification time : Mon Mar 10 13:33:49 2014

@<TRIPOS>MOLECULE
3PBK_2_CAVITY_N1_6.mol2
   99     0     6     0     0
SMALL
NO_CHARGES


@<TRIPOS>ATOM
      1 N          -4.4713   54.7934   65.6980 N.2       2 ALA2        0.0000 
      2 N          -4.8082   56.2140   65.3539 N.2       2 ALA2        0.0000 
      3 N          -5.6872   54.7169   66.5729 N.2       2 ALA2        0.0000 
      4 N          -6.0242   56.1375   66.2289 N.2       2 ALA2        0.0000 
      5 CA         -6.3612   57.5580   65.8848 C.3       6 GLY6        0.0000 
      6 CA         -6.2293   51.7992   68.1360 C.3       6 GLY6        0.0000 
      7 NZ         -6.5663   53.2198   67.7920 N.2       4 LYS4        0.0000 
      8 NZ         -6.9032   54.6403   67.4479 N.2       4 LYS4        0.0000 
      9 N          -7.2402   56.0609   67.1038 N.2       2 ALA2        0.0000 
     10 CA         -7.5772   57.4815   66.7597 C.3       6 GLY6        0.0000 
     11 NZ         -7.4453   51.7226   69.0110 N.2       4 LYS4        0.0000 
     12 NZ         -7.7822   53.1432   68.6669 N.2       4 LYS4        0.0000 
     13 NZ         -8.1192   54.5638   68.3228 N.2       4 LYS4        0.0000 
     14 O          -8.4562   55.9844   67.9787 O.2       2 ALA2        0.0000 
     15 CA         -8.7932   57.4050   67.6346 C.3       6 GLY6        0.0000 
     16 CA         -9.1302   58.8255   67.2906 C.3       6 GLY6        0.0000 
     17 CA         -8.3243   50.2255   70.2300 C.3       6 GLY6        0.0000 
     18 N          -8.6613   51.6461   69.8859 N.2       2 ALA2        0.0000 
     19 NZ         -8.9982   53.0667   69.5418 N.2       4 LYS4        0.0000 
     20 O         -10.3462   58.7490   68.1655 O.2       2 ALA2        0.0000 
     21 CA        -10.6832   60.1696   67.8214 C.3       6 GLY6        0.0000 
     22 NZ         -9.2033   48.7284   71.4490 N.2       4 LYS4        0.0000 
     23 N          -9.5403   50.1490   71.1049 N.2       2 ALA2        0.0000 
     24 N          -9.8772   51.5696   70.7608 N.2       2 ALA2        0.0000 
     25 NZ        -10.2142   52.9901   70.4167 N.2       4 LYS4        0.0000 
     26 N         -10.7563   50.0724   71.9798 N.2       2 ALA2        0.0000 
     27 N         -11.0932   51.4930   71.6358 N.2       2 ALA2        0.0000 
     28 CA         -3.6602   55.2689   66.8668 C.3       6 GLY6        0.0000 
     29 N          -4.5392   53.7718   68.0858 N.2       2 ALA2        0.0000 
     30 N          -4.8762   55.1924   67.7418 N.2       2 ALA2        0.0000 
     31 CA         -5.4182   52.2747   69.3048 C.3       6 GLY6        0.0000 
     32 N          -5.7552   53.6952   68.9608 N.2       2 ALA2        0.0000 
     33 O          -6.0922   55.1158   68.6167 O.2       2 ALA2        0.0000 
     34 N          -6.4292   56.5364   68.2726 N.2       2 ALA2        0.0000 
     35 N          -6.7662   57.9570   67.9285 N.2       2 ALA2        0.0000 
     36 CA         -6.2972   50.7775   70.5238 C.3       6 GLY6        0.0000 
     37 CA         -6.6342   52.1981   70.1798 C.3       6 GLY6        0.0000 
     38 O          -6.9712   53.6187   69.8357 O.2       2 ALA2        0.0000 
     39 O          -7.9822   57.8805   68.8035 O.2       2 ALA2        0.0000 
     40 CA         -8.3191   59.3010   68.4594 C.3       6 GLY6        0.0000 
     41 CA         -8.6561   60.7216   68.1153 C.3       6 GLY6        0.0000 
     42 NZ          0.1888   52.0347   69.3617 N.2       4 LYS4        0.0000 
     43 CA         -0.1481   53.4553   69.0177 C.3       6 GLY6        0.0000 
     44 CA         -1.0271   51.9581   70.2367 C.3       6 GLY6        0.0000 
     45 OD1        -1.3641   53.3787   69.8926 O.3       3 ASP3        0.0000 
     46 OD1        -1.7011   54.7993   69.5485 O.3       3 ASP3        0.0000 
     47 O          -2.2431   51.8816   71.1116 O.2       2 ALA2        0.0000 
     48 OD1        -2.5801   53.3022   70.7675 O.3       3 ASP3        0.0000 
     49 O          -3.4591   51.8051   71.9865 O.2       2 ALA2        0.0000 
     50 OD1        -3.7961   53.2256   71.6425 O.3       3 ASP3        0.0000 
     51 OG         -4.3381   50.3080   73.2055 O.2       1 SER1        0.0000 
     52 OG         -4.6751   51.7285   72.8615 O.2       1 SER1        0.0000 
     53 OG         -5.0121   53.1491   72.5174 O.2       1 SER1        0.0000 
     54 OG         -5.8911   51.6520   73.7364 O.2       1 SER1        0.0000 
     55 O          -6.2281   53.0726   73.3923 O.2       2 ALA2        0.0000 
     56 CA         -7.1071   51.5755   74.6113 C.3       6 GLY6        0.0000 
     57 O          -7.4441   52.9960   74.2672 O.2       2 ALA2        0.0000 
     58 NZ         -7.5132   50.7010   71.3988 N.2       4 LYS4        0.0000 
     59 O          -7.8502   52.1216   71.0547 O.2       2 ALA2        0.0000 
     60 CA         -9.5351   59.2245   69.3343 C.3       6 GLY6        0.0000 
     61 NZ         -8.3922   49.2039   72.6178 N.2       4 LYS4        0.0000 
     62 NZ         -8.7292   50.6245   72.2737 N.2       4 LYS4        0.0000 
     63 O          -9.0662   52.0451   71.9296 O.2       2 ALA2        0.0000 
     64 O          -9.9452   50.5479   73.1486 O.2       2 ALA2        0.0000 
     65 O         -10.2822   51.9685   72.8046 O.2       2 ALA2        0.0000 
     66 CA         -1.8382   51.4827   69.0679 C.3       6 GLY6        0.0000 
     67 N          -2.1752   52.9032   68.7238 N.2       2 ALA2        0.0000 
     68 N          -2.5122   54.3238   68.3797 N.2       2 ALA2        0.0000 
     69 N          -3.3912   52.8267   69.5987 N.2       2 ALA2        0.0000 
     70 CA         -3.7282   54.2473   69.2546 C.3       6 GLY6        0.0000 
     71 O          -4.2702   51.3296   70.8177 O.2       2 ALA2        0.0000 
     72 CA         -4.6072   52.7502   70.4736 C.3       6 GLY6        0.0000 
     73 CA         -4.9442   54.1707   70.1296 C.3       6 GLY6        0.0000 
     74 NZ         -5.4862   51.2530   71.6927 N.2       4 LYS4        0.0000 
     75 O          -5.8232   52.6736   71.3486 O.2       2 ALA2        0.0000 
     76 O          -6.1601   54.0942   71.0045 O.2       2 ALA2        0.0000 
     77 O          -7.5081   59.7765   69.6282 O.2       2 ALA2        0.0000 
     78 NZ         -6.7022   51.1765   72.5676 N.2       4 LYS4        0.0000 
     79 O          -7.0392   52.5971   72.2235 O.2       2 ALA2        0.0000 
     80 O          -8.7241   59.7000   70.5031 O.2       2 ALA2        0.0000 
     81 O          -7.9182   51.1000   73.4425 O.2       2 ALA2        0.0000 
     82 O          -9.4711   52.4440   73.9734 O.2       2 ALA2        0.0000 
     83 OD1        -0.5531   53.8542   71.0614 O.3       3 ASP3        0.0000 
     84 CA         -1.4321   52.3571   72.2804 C.3       6 GLY6        0.0000 
     85 OD1        -1.7691   53.7777   71.9363 O.3       3 ASP3        0.0000 
     86 OG         -2.6481   52.2806   73.1553 O.2       1 SER1        0.0000 
     87 CA         -3.8641   52.2040   74.0303 C.3       6 GLY6        0.0000 
     88 CA         -5.0801   52.1275   74.9052 C.3       6 GLY6        0.0000 
     89 OG         -6.6331   53.4715   75.4360 O.2       1 SER1        0.0000 
     90 OG         -6.9700   54.8921   75.0920 O.2       1 SER1        0.0000 
     91 CZ         -4.4033   55.8150   63.3102 C.ar      5 PHE5        0.0000 
     92 CZ         -5.6193   55.7385   64.1851 C.ar      5 PHE5        0.0000 
     93 N          -5.9563   57.1591   63.8411 N.2       2 ALA2        0.0000 
     94 CZ         -6.8353   55.6620   65.0601 C.ar      5 PHE5        0.0000 
     95 CA         -7.1723   57.0825   64.7160 C.3       6 GLY6        0.0000 
     96 NZ         -7.7143   54.1648   66.2791 N.2       4 LYS4        0.0000 
     97 NZ         -8.0513   55.5854   65.9350 N.2       4 LYS4        0.0000 
     98 CA         -8.3883   57.0060   65.5909 C.3       6 GLY6        0.0000 
     99 CA         -9.6043   56.9295   66.4658 C.3       6 GLY6        0.0000 
@<TRIPOS>BOND
@<TRIPOS>SUBSTRUCTURE
     1 SER1       51 GROUP   
     2 ALA2        1 GROUP   
     3 ASP3       45 GROUP   
     4 LYS4        7 GROUP   
     5 PHE5       91 GROUP   
     6 GLY6        5 GROUP   
@<TRIPOS>SET

