#    Name: 3pbk_1ZZ_2_INTS_M
#    Modification time : Tue Mar 25 06:12:57 2014

@<TRIPOS>MOLECULE
3pbk_1ZZ_2_INTS_M
   98     0    12     0     0
SMALL
NO_CHARGES


@<TRIPOS>ATOM
      1 CA          8.7710   51.2670   60.9135 C.3       4 GLC5        0.0000 
      2 CA          9.8990   51.3010   62.6380 C.3      12 GLL5        0.0000 
      3 CA          7.6430   51.2330   59.1890 C.3       8 GLP5        0.0000 
      4 N          -2.5975   56.2245   65.3000 N.am      2 SEC2        0.0000 
      5 N          -3.8090   55.2570   65.1010 N.am     10 SEL2        0.0000 
      6 N          -1.3860   57.1920   65.4990 N.am      6 SEP2        0.0000 
      7 CA          7.0180   49.7190   62.2925 C.3       4 GLC5        0.0000 
      8 CA          7.2940   51.2440   63.2100 C.3      12 GLL5        0.0000 
      9 CA          6.7420   48.1940   61.3750 C.3       8 GLP5        0.0000 
     10 CA          7.4685   51.2385   61.1995 C.3       4 GLC5        0.0000 
     11 N          -2.7605   50.0605   70.8990 N.am      2 SEC2        0.0000 
     12 N          -2.9060   51.2360   71.4750 N.am     10 SEL2        0.0000 
     13 N          -2.6150   48.8850   70.3230 N.am      6 SEP2        0.0000 
     14 CA          6.4290   52.3505   61.1555 C.3       4 GLC5        0.0000 
     15 CA          6.1730   52.3120   63.2600 C.3      12 GLL5        0.0000 
     16 CA          6.6850   52.3890   59.0510 C.3       8 GLP5        0.0000 
     17 CA          6.6200   54.1890   62.7275 C.3       4 GLC5        0.0000 
     18 CA          7.0670   56.0660   62.1950 C.3       8 GLP5        0.0000 
     19 NZ         -2.3240   54.8390   71.6900 N.4       3 LYC4        0.0000 
     20 NZ         -1.9770   53.2510   72.0750 N.4      11 LYL4        0.0000 
     21 NZ         -2.6710   56.4270   71.3050 N.4       7 LYP4        0.0000 
     22 N          -2.3240   54.8390   71.6900 N.am      2 SEC2        0.0000 
     23 N          -1.9770   53.2510   72.0750 N.am     10 SEL2        0.0000 
     24 N          -2.6710   56.4270   71.3050 N.am      6 SEP2        0.0000 
     25 CA          3.4720   51.2005   61.6380 C.3       4 GLC5        0.0000 
     26 CA          3.4980   52.2230   63.2870 C.3      12 GLL5        0.0000 
     27 CA          3.4460   50.1780   59.9890 C.3       8 GLP5        0.0000 
     28 N          -6.8240   55.7630   69.7255 N.am      2 SEC2        0.0000 
     29 N          -5.6510   55.2330   68.5580 N.am     10 SEL2        0.0000 
     30 N          -7.9970   56.2930   70.8930 N.am      6 SEP2        0.0000 
     31 O          -9.1160   52.8915   67.8800 O.2       1 ALC1        0.0000 
     32 O          -7.6870   52.2570   68.2540 O.2       9 ALL1        0.0000 
     33 O         -10.5450   53.5260   67.5060 O.2       5 ALP1        0.0000 
     34 O          -8.4805   52.1770   67.3355 O.2       1 ALC1        0.0000 
     35 O          -9.2740   52.0970   66.4170 O.2       5 ALP1        0.0000 
     36 CA          1.8475   53.5510   68.3975 C.3       4 GLC5        0.0000 
     37 CA          0.0230   52.7080   67.7470 C.3      12 GLL5        0.0000 
     38 CA          3.6720   54.3940   69.0480 C.3       8 GLP5        0.0000 
     39 CA         -4.0930   51.4505   68.8900 C.3       4 GLC5        0.0000 
     40 CA         -4.5890   53.0800   69.4650 C.3      12 GLL5        0.0000 
     41 CA         -3.5970   49.8210   68.3150 C.3       8 GLP5        0.0000 
     42 CA         -5.2535   56.2275   69.1390 C.3       4 GLC5        0.0000 
     43 CA         -6.5370   55.5450   67.5120 C.3      12 GLL5        0.0000 
     44 CA         -3.9700   56.9100   70.7660 C.3       8 GLP5        0.0000 
     45 CA         -6.5795   58.3030   65.4320 C.3       4 GLC5        0.0000 
     46 CA         -5.7480   56.2960   65.0720 C.3      12 GLL5        0.0000 
     47 CA         -7.4110   60.3100   65.7920 C.3       8 GLP5        0.0000 
     48 CA         -7.5490   56.0845   63.7790 C.3       4 GLC5        0.0000 
     49 CA         -9.3500   55.8730   62.4860 C.3       8 GLP5        0.0000 
     50 CA         -5.6005   58.7620   64.8390 C.3       4 GLC5        0.0000 
     51 CA         -6.6490   57.6080   63.2840 C.3      12 GLL5        0.0000 
     52 CA         -4.5520   59.9160   66.3940 C.3       8 GLP5        0.0000 
     53 CA         -6.7290   59.3065   63.4070 C.3       4 GLC5        0.0000 
     54 CA         -6.8090   61.0050   63.5300 C.3       8 GLP5        0.0000 
     55 CA         -7.9995   56.7405   62.8850 C.3       4 GLC5        0.0000 
     56 CA         -3.9430   57.9200   61.5935 C.3       4 GLC5        0.0000 
     57 CA         -4.5620   56.5990   63.1430 C.3      12 GLL5        0.0000 
     58 CA         -3.3240   59.2410   60.0440 C.3       8 GLP5        0.0000 
     59 CA          9.6372   53.2897   63.9162 C.3       4 GLC5        0.0000 
     60 CA          8.7400   51.6300   63.5650 C.3      12 GLL5        0.0000 
     61 CA          9.9550   55.1140   64.7310 C.3       8 GLP5        0.0000 
     62 CA          9.9232   49.5872   63.3697 C.3       4 GLC5        0.0000 
     63 CA         10.5270   47.7090   63.6380 C.3       8 GLP5        0.0000 
     64 CA          7.9145   51.0525   65.3752 C.3       4 GLC5        0.0000 
     65 CA          7.8120   50.6680   67.3630 C.3       8 GLP5        0.0000 
     66 CA          5.6878   50.6900   64.8110 C.3       4 GLC5        0.0000 
     67 CA          4.6420   49.6020   66.3870 C.3       8 GLP5        0.0000 
     68 CA          4.4043   50.8597   65.0105 C.3       4 GLC5        0.0000 
     69 CA          4.8350   52.0120   63.9810 C.3      12 GLL5        0.0000 
     70 CA          2.3180   53.4947   62.4827 C.3       4 GLC5        0.0000 
     71 CA          1.7410   54.8160   61.2240 C.3       8 GLP5        0.0000 
     72 CA          2.2200   50.2968   63.1012 C.3       4 GLC5        0.0000 
     73 CA          1.5450   48.4200   62.4610 C.3       8 GLP5        0.0000 
     74 CA          2.0368   51.5547   65.5513 C.3       4 GLC5        0.0000 
     75 CA          2.2920   52.1240   64.1960 C.3      12 GLL5        0.0000 
     76 CA          2.3870   50.5380   66.9980 C.3       8 GLP5        0.0000 
     77 CA          1.8440   54.5545   65.6660 C.3       4 GLC5        0.0000 
     78 CA          1.0810   53.0190   64.0130 C.3      12 GLL5        0.0000 
     79 CA          2.9850   55.8690   66.6910 C.3       8 GLP5        0.0000 
     80 CA          1.2220   54.0280   62.9325 C.3       4 GLC5        0.0000 
     81 CA          0.3250   53.4610   65.2690 C.3      12 GLL5        0.0000 
     82 CA         -1.2675   51.8068   65.2725 C.3       4 GLC5        0.0000 
     83 CA         -2.7150   50.6890   64.7530 C.3       8 GLP5        0.0000 
     84 CA          1.2443   51.6771   66.8837 C.3       4 GLC5        0.0000 
     85 CA          0.0350   52.3880   66.3150 C.3      12 GLL5        0.0000 
     86 CA         -4.5885   55.1905   70.0025 C.3       4 GLC5        0.0000 
     87 CA         -5.7038   51.5802   68.4990 C.3       4 GLC5        0.0000 
     88 CA         -5.8250   53.8620   69.0130 C.3      12 GLL5        0.0000 
     89 CA         -5.1000   49.5920   68.5170 C.3       8 GLP5        0.0000 
     90 CA         -7.0248   53.2323   65.8173 C.3       4 GLC5        0.0000 
     91 CA         -6.7900   53.2750   67.9490 C.3      12 GLL5        0.0000 
     92 CA         -6.8810   52.6050   63.9060 C.3       8 GLP5        0.0000 
     93 CA         -3.5242   56.7355   65.8045 C.3       4 GLC5        0.0000 
     94 CA         -1.8370   57.2880   66.8930 C.3       8 GLP5        0.0000 
     95 CA         -4.8818   58.0495   65.5550 C.3       4 GLC5        0.0000 
     96 CA         -4.6750   56.0700   64.3600 C.3      12 GLL5        0.0000 
     97 CA         -3.7698   54.6928   62.7873 C.3       4 GLC5        0.0000 
     98 CA         -2.9210   53.0510   61.8230 C.3       8 GLP5        0.0000 
@<TRIPOS>BOND
@<TRIPOS>SUBSTRUCTURE
     1 ALC1       31 GROUP        1 X    ALC  0     ROOT ALC X 1
     2 SEC2        4 GROUP        1 X    SEC  0     **** SEC X 2
     3 LYC4       19 GROUP        1 X    LYC  0     **** LYC X 4
     4 GLC5        1 GROUP        1 X    GLC  0     **** GLC X 6
     5 ALP1       33 GROUP        1 Y    ALP  0     ROOT ALP Y 8
     6 SEP2        6 GROUP        1 Y    SEP  0     **** SEP Y 9
     7 LYP4       21 GROUP        1 Y    LYP  0     **** LYP Y 11
     8 GLP5        3 GROUP        1 Y    GLP  0     **** GLP Y 13
     9 ALL1       32 GROUP        1 Z    ALL  0     ROOT ALL Z 15
    10 SEL2        5 GROUP        1 Z    SEL  0     **** SEL Z 16
    11 LYL4       20 GROUP        1 Z    LYL  0     **** LYL Z 18
    12 GLL5        2 GROUP        1 Z    GLL  0     **** GLL Z 20
@<TRIPOS>SET

