#    Name: 3pbk_1ZZ_2_ligand
#    Modification time : Tue Mar 25 06:12:58 2014

@<TRIPOS>MOLECULE
3pbk_1ZZ_2_ligand
   71    73     1     0     0
SMALL
NO_CHARGES


@<TRIPOS>ATOM
      1 P          -2.5200   52.6920   70.9540 P.3       1 1ZZ585      0.0000 
      2 C1          9.8990   51.3010   62.6380 C.3       1 1ZZ585      0.0000 
      3 N1         -5.6210   55.6040   66.3530 N.pl3     1 1ZZ585      0.0000 
      4 O1         -1.6280   54.4670   68.1290 O.2       1 1ZZ585      0.0000 
      5 C2          8.7400   51.6300   63.5650 C.3       1 1ZZ585      0.0000 
      6 N2         -3.8090   55.2570   65.1010 N.2       1 1ZZ585      0.0000 
      7 O2         -1.2590   52.8540   69.8860 O.3       1 1ZZ585      0.0000 
      8 C3          7.2940   51.2440   63.2100 C.3       1 1ZZ585      0.0000 
      9 N3         -6.7550   57.0940   64.5280 N.ar      1 1ZZ585      0.0000 
     10 O3         -2.9060   51.2360   71.4750 O.co2     1 1ZZ585      0.0000 
     11 C4          6.1730   52.3120   63.2600 C.3       1 1ZZ585      0.0000 
     12 N4         -5.5950   57.3810   62.6110 N.ar      1 1ZZ585      0.0000 
     13 O4         -1.9770   53.2510   72.0750 O.co2     1 1ZZ585      0.0000 
     14 C5          4.8350   52.0120   63.9810 C.3       1 1ZZ585      0.0000 
     15 N5         -3.3970   56.3830   62.3350 N.pl3     1 1ZZ585      0.0000 
     16 O5         -3.8560   53.4930   70.5750 O.3       1 1ZZ585      0.0000 
     17 C6          3.4980   52.2230   63.2870 C.3       1 1ZZ585      0.0000 
     18 O6         -5.6510   55.2330   68.5580 O.3       1 1ZZ585      0.0000 
     19 C7          2.2920   52.1240   64.1960 C.3       1 1ZZ585      0.0000 
     20 O7         -8.9520   54.4620   67.6800 O.3       1 1ZZ585      0.0000 
     21 C8          1.0810   53.0190   64.0130 C.3       1 1ZZ585      0.0000 
     22 O8         -7.6870   52.2570   68.2540 O.3       1 1ZZ585      0.0000 
     23 C9          0.3250   53.4610   65.2690 C.3       1 1ZZ585      0.0000 
     24 C10         0.0350   52.3880   66.3150 C.3       1 1ZZ585      0.0000 
     25 C11         0.0230   52.7080   67.7470 C.3       1 1ZZ585      0.0000 
     26 C12        -1.0820   53.4120   68.4800 C.2       1 1ZZ585      0.0000 
     27 C13        -4.5890   53.0800   69.4650 C.3       1 1ZZ585      0.0000 
     28 C14        -5.8250   53.8620   69.0130 C.3       1 1ZZ585      0.0000 
     29 C15        -6.7900   53.2750   67.9490 C.3       1 1ZZ585      0.0000 
     30 C16        -7.5470   54.4440   67.5080 C.3       1 1ZZ585      0.0000 
     31 C17        -6.5370   55.5450   67.5120 C.3       1 1ZZ585      0.0000 
     32 C18        -4.4380   55.0180   66.3140 C.2       1 1ZZ585      0.0000 
     33 C19        -4.6750   56.0700   64.3600 C.ar      1 1ZZ585      0.0000 
     34 C20        -5.7480   56.2960   65.0720 C.ar      1 1ZZ585      0.0000 
     35 C21        -6.6490   57.6080   63.2840 C.ar      1 1ZZ585      0.0000 
     36 C22        -4.5620   56.5990   63.1430 C.ar      1 1ZZ585      0.0000 
     37 H           8.7551   52.7484   63.7689 H         1 1ZZ585      0.0000 
     38 H           8.9692   51.1922   64.5889 H         1 1ZZ585      0.0000 
     39 H           6.9845   50.3886   63.8751 H         1 1ZZ585      0.0000 
     40 H           7.2934   50.7924   62.1776 H         1 1ZZ585      0.0000 
     41 H           5.9352   52.6149   62.1999 H         1 1ZZ585      0.0000 
     42 H           6.6074   53.2498   63.7116 H         1 1ZZ585      0.0000 
     43 H           4.8329   52.6047   64.9491 H         1 1ZZ585      0.0000 
     44 H           4.8823   50.9387   64.3475 H         1 1ZZ585      0.0000 
     45 H          -3.4091   56.7986   61.4255 H         1 1ZZ585      0.0000 
     46 H          -2.6701   55.8349   62.7487 H         1 1ZZ585      0.0000 
     47 H           3.3985   51.4794   62.4719 H         1 1ZZ585      0.0000 
     48 H           3.5028   53.2178   62.7996 H         1 1ZZ585      0.0000 
     49 H           2.6525   52.2404   65.2721 H         1 1ZZ585      0.0000 
     50 H           1.9311   51.0418   64.1844 H         1 1ZZ585      0.0000 
     51 H           0.3551   52.5067   63.3305 H         1 1ZZ585      0.0000 
     52 H           1.3939   53.9371   63.4523 H         1 1ZZ585      0.0000 
     53 H          -0.6408   53.9229   64.9552 H         1 1ZZ585      0.0000 
     54 H           0.8987   54.2857   65.7542 H         1 1ZZ585      0.0000 
     55 H           0.7693   51.5334   66.1276 H         1 1ZZ585      0.0000 
     56 H          -0.9604   51.9056   66.0299 H         1 1ZZ585      0.0000 
     57 H           1.0078   53.2842   67.9938 H         1 1ZZ585      0.0000 
     58 H           0.2408   51.7239   68.3361 H         1 1ZZ585      0.0000 
     59 H          -4.9360   51.9921   69.5834 H         1 1ZZ585      0.0000 
     60 H          -3.9179   52.9966   68.5373 H         1 1ZZ585      0.0000 
     61 H          -6.5171   53.9604   69.9450 H         1 1ZZ585      0.0000 
     62 H          -6.1416   53.0104   67.0779 H         1 1ZZ585      0.0000 
     63 H          -7.4499   54.1652   66.2406 H         1 1ZZ585      0.0000 
     64 H          -6.9898   56.4826   67.6827 H         1 1ZZ585      0.0000 
     65 H          -4.0284   54.4810   67.0240 H         1 1ZZ585      0.0000 
     66 H          -7.4449   58.1812   62.9119 H         1 1ZZ585      0.0000 
     67 H          10.7721   51.6190   63.0076 H         1 1ZZ585      0.0000 
     68 H           9.9859   50.3163   62.4871 H         1 1ZZ585      0.0000 
     69 H           9.7885   51.7266   61.7398 H         1 1ZZ585      0.0000 
     70 H          -9.1032   54.9845   68.5191 H         1 1ZZ585      0.0000 
     71 H          -8.5436   52.5267   67.8142 H         1 1ZZ585      0.0000 
@<TRIPOS>BOND
     1    7    1 1    
     2   10    1 ar   
     3   13    1 ar   
     4   16    1 1    
     5    5    2 1    
     6   67    2 1    
     7   68    2 1    
     8   69    2 1    
     9   31    3 1    
    10   32    3 1    
    11   34    3 1    
    12   26    4 2    
    13    8    5 1    
    14   37    5 1    
    15   38    5 1    
    16   32    6 2    
    17   33    6 1    
    18   26    7 1    
    19   11    8 1    
    20   39    8 1    
    21   40    8 1    
    22   34    9 ar   
    23   35    9 ar   
    24   14   11 1    
    25   41   11 1    
    26   42   11 1    
    27   35   12 ar   
    28   36   12 ar   
    29   17   14 1    
    30   43   14 1    
    31   44   14 1    
    32   36   15 1    
    33   45   15 1    
    34   46   15 1    
    35   27   16 1    
    36   19   17 1    
    37   47   17 1    
    38   48   17 1    
    39   28   18 1    
    40   31   18 1    
    41   21   19 1    
    42   49   19 1    
    43   50   19 1    
    44   30   20 1    
    45   70   20 1    
    46   23   21 1    
    47   51   21 1    
    48   52   21 1    
    49   29   22 1    
    50   71   22 1    
    51   24   23 1    
    52   53   23 1    
    53   54   23 1    
    54   25   24 1    
    55   55   24 1    
    56   56   24 1    
    57   26   25 1    
    58   57   25 1    
    59   58   25 1    
    60   28   27 1    
    61   59   27 1    
    62   60   27 1    
    63   29   28 1    
    64   61   28 1    
    65   30   29 1    
    66   62   29 1    
    67   31   30 1    
    68   63   30 1    
    69   64   31 1    
    70   65   32 1    
    71   34   33 ar   
    72   36   33 ar   
    73   66   35 1    
@<TRIPOS>SUBSTRUCTURE
     1 1ZZ585      1 GROUP   
@<TRIPOS>SET

