#    Name: 4alv_R9P_2_INTS_M
#    Modification time : Tue Mar 25 05:44:54 2014

@<TRIPOS>MOLECULE
4alv_R9P_2_INTS_M
   68     0     9     0     0
SMALL
NO_CHARGES


@<TRIPOS>ATOM
      1 OD1       -26.2490   34.0595    8.2565 O.co2     2 ASC3        0.0000 
      2 OD1       -24.6380   33.7640    9.1220 O.co2     8 ASL3        0.0000 
      3 OD1       -27.8600   34.3550    7.3910 O.co2     5 ASP3        0.0000 
      4 OD1       -25.2640   34.0255    7.7055 O.co2     2 ASC3        0.0000 
      5 OD1       -25.8900   34.2870    6.2890 O.co2     5 ASP3        0.0000 
      6 OD1       -25.4945   34.4595   10.0970 O.co2     2 ASC3        0.0000 
      7 OD1       -26.3510   35.1550   11.0720 O.co2     5 ASP3        0.0000 
      8 OD1       -25.2850   34.9905    9.1580 O.co2     2 ASC3        0.0000 
      9 OD1       -25.9320   36.2170    9.1940 O.co2     5 ASP3        0.0000 
     10 CA        -19.2815   33.0720    5.4730 C.3       3 GLC5        0.0000 
     11 CA        -21.1080   31.8570    5.0520 C.3       9 GLL5        0.0000 
     12 CA        -17.4550   34.2870    5.8940 C.3       6 GLP5        0.0000 
     13 CA        -19.4225   35.7850    3.5070 C.3       3 GLC5        0.0000 
     14 CA        -19.9860   33.6170    3.4440 C.3       9 GLL5        0.0000 
     15 CA        -18.8590   37.9530    3.5700 C.3       6 GLP5        0.0000 
     16 CA        -18.7205   33.9520    4.6690 C.3       3 GLC5        0.0000 
     17 CA        -19.3375   31.7735    3.6925 C.3       3 GLC5        0.0000 
     18 CA        -18.6890   29.9300    3.9410 C.3       6 GLP5        0.0000 
     19 CA        -18.8930   33.4515    1.7840 C.3       3 GLC5        0.0000 
     20 CA        -17.8000   33.2860    0.1240 C.3       6 GLP5        0.0000 
     21 CA        -24.5115   29.7400    5.1810 C.3       3 GLC5        0.0000 
     22 CA        -22.6500   30.1740    4.4490 C.3       9 GLL5        0.0000 
     23 CA        -26.3730   29.3060    5.9130 C.3       6 GLP5        0.0000 
     24 CA        -21.5130   39.1920    0.6335 C.3       3 GLC5        0.0000 
     25 CA        -23.3850   38.8560   -0.4400 C.3       9 GLL5        0.0000 
     26 CA        -19.6410   39.5280    1.7070 C.3       6 GLP5        0.0000 
     27 CA        -23.2570   40.5325   -1.1395 C.3       3 GLC5        0.0000 
     28 CA        -23.1290   42.2090   -1.8390 C.3       6 GLP5        0.0000 
     29 CA        -24.5855   36.8205   -3.7805 C.3       3 GLC5        0.0000 
     30 CA        -22.8550   36.9890   -2.6270 C.3       9 GLL5        0.0000 
     31 CA        -26.3160   36.6520   -4.9340 C.3       6 GLP5        0.0000 
     32 CA        -22.0225   36.5955   -4.6310 C.3       3 GLC5        0.0000 
     33 CA        -21.1900   36.2020   -6.6350 C.3       6 GLP5        0.0000 
     34 CA        -24.6140   36.8230   -1.6720 C.3       3 GLC5        0.0000 
     35 CA        -26.3730   36.6570   -0.7170 C.3       6 GLP5        0.0000 
     36 CA        -23.9945   35.7760   -4.4760 C.3       3 GLC5        0.0000 
     37 CA        -22.5200   35.7360   -3.0800 C.3       9 GLL5        0.0000 
     38 CA        -25.4690   35.8160   -5.8720 C.3       6 GLP5        0.0000 
     39 CA        -19.8200   33.0600   -0.5390 C.3       3 GLC5        0.0000 
     40 CA        -21.8400   32.8340   -1.2020 C.3       9 GLL5        0.0000 
     41 CA        -23.5300   32.6870   -0.4330 C.3       3 GLC5        0.0000 
     42 CA        -25.2200   32.5400    0.3360 C.3       6 GLP5        0.0000 
     43 N         -20.3795   29.9555   -2.3355 N.am      1 SEC2        0.0000 
     44 N         -21.3120   30.8070   -1.8700 N.am      7 SEL2        0.0000 
     45 N         -19.4470   29.1040   -2.8010 N.am      4 SEP2        0.0000 
     46 CA        -25.7063   32.1427   10.6603 C.3       3 GLC5        0.0000 
     47 CA        -23.3770   31.7100    9.8510 C.3       9 GLL5        0.0000 
     48 CA        -27.6290   31.9560   11.2480 C.3       6 GLP5        0.0000 
     49 CA        -24.6623   29.9735    7.7215 C.3       3 GLC5        0.0000 
     50 CA        -23.3690   31.6700    8.3250 C.3       9 GLL5        0.0000 
     51 CA        -26.2210   28.9440    7.3870 C.3       6 GLP5        0.0000 
     52 CA        -23.6900   31.8670    1.6418 C.3       3 GLC5        0.0000 
     53 CA        -22.5710   30.6560    3.1330 C.3       9 GLL5        0.0000 
     54 CA        -24.4537   36.0752   -0.6583 C.3       3 GLC5        0.0000 
     55 CA        -22.3710   34.8900   -0.8350 C.3       9 GLL5        0.0000 
     56 CA        -23.8414   33.8724   -0.0505 C.3       3 GLC5        0.0000 
     57 CA        -21.3272   37.6522   -2.5697 C.3       3 GLC5        0.0000 
     58 CA        -22.9380   37.1520   -1.2480 C.3       9 GLL5        0.0000 
     59 CA        -19.7580   38.2340   -3.2020 C.3       6 GLP5        0.0000 
     60 CA        -24.7673   37.3305   -0.7805 C.3       3 GLC5        0.0000 
     61 CA        -21.0800   36.7290   -2.9185 C.3       3 GLC5        0.0000 
     62 CA        -21.4875   34.5995   -4.1455 C.3       3 GLC5        0.0000 
     63 CA        -20.5730   33.9750   -5.6560 C.3       6 GLP5        0.0000 
     64 CA        -24.2100   34.3265   -2.5770 C.3       3 GLC5        0.0000 
     65 CA        -26.0180   33.4290   -2.5190 C.3       6 GLP5        0.0000 
     66 CA        -20.3567   35.3107   -0.9677 C.3       3 GLC5        0.0000 
     67 CA        -22.2840   34.7120   -2.1900 C.3       9 GLL5        0.0000 
     68 CA        -18.3400   35.6630   -0.6220 C.3       6 GLP5        0.0000 
@<TRIPOS>BOND
@<TRIPOS>SUBSTRUCTURE
     1 SEC2       43 GROUP        1 X    SEC  0     ROOT SEC X 2
     2 ASC3        1 GROUP        1 X    ASC  0     **** ASC X 3
     3 GLC5       10 GROUP        1 X    GLC  0     **** GLC X 6
     4 SEP2       45 GROUP        1 Y    SEP  0     ROOT SEP Y 9
     5 ASP3        3 GROUP        1 Y    ASP  0     **** ASP Y 10
     6 GLP5       12 GROUP        1 Y    GLP  0     **** GLP Y 13
     7 SEL2       44 GROUP        1 Z    SEL  0     ROOT SEL Z 16
     8 ASL3        2 GROUP        1 Z    ASL  0     **** ASL Z 17
     9 GLL5       11 GROUP        1 Z    GLL  0     **** GLL Z 20
@<TRIPOS>SET

