#    Name: 4alv_R9P_2_ligand
#    Modification time : Tue Mar 25 05:44:54 2014

@<TRIPOS>MOLECULE
4alv_R9P_2_ligand
   49    53     1     0     0
SMALL
NO_CHARGES


@<TRIPOS>ATOM
      1 C13       -22.6560   32.9190    7.8150 C.3       1 R9P1308     0.0000 
      2 C14       -23.5230   34.1250    8.2010 C.3       1 R9P1308     0.0000 
      3 N3        -24.6380   33.7640    9.1220 N.4       1 R9P1308     0.0000 
      4 C15       -24.1900   32.9490   10.2940 C.3       1 R9P1308     0.0000 
      5 C16       -23.3770   31.7100    9.8510 C.3       1 R9P1308     0.0000 
      6 C12       -23.3690   31.6700    8.3250 C.3       1 R9P1308     0.0000 
      7 C11       -22.8380   30.3360    7.7870 C.3       1 R9P1308     0.0000 
      8 N2        -21.8250   30.4560    6.7380 N.pl3     1 R9P1308     0.0000 
      9 C10       -21.9180   30.8070    5.4430 C.ar      1 R9P1308     0.0000 
     10 C17       -21.1080   31.8570    5.0520 C.ar      1 R9P1308     0.0000 
     11 C18       -21.0420   32.3250    3.7580 C.ar      1 R9P1308     0.0000 
     12 CL1       -19.9860   33.6170    3.4440 Cl        1 R9P1308     0.0000 
     13 C9        -22.6500   30.1740    4.4490 C.ar      1 R9P1308     0.0000 
     14 C8        -22.5710   30.6560    3.1330 C.ar      1 R9P1308     0.0000 
     15 C7        -21.7490   31.7320    2.7620 C.ar      1 R9P1308     0.0000 
     16 C6        -21.7410   32.1500    1.4360 C.2       1 R9P1308     0.0000 
     17 N4        -22.0430   33.4070    1.1070 N.2       1 R9P1308     0.0000 
     18 C19       -22.0840   33.7350   -0.1850 C.2       1 R9P1308     0.0000 
     19 C20       -22.3710   34.8900   -0.8350 C.ar      1 R9P1308     0.0000 
     20 C21       -22.6980   36.0970   -0.3640 C.ar      1 R9P1308     0.0000 
     21 C22       -22.9380   37.1520   -1.2480 C.ar      1 R9P1308     0.0000 
     22 BR1       -23.3850   38.8560   -0.4400 Br        1 R9P1308     0.0000 
     23 C1        -22.8550   36.9890   -2.6270 C.ar      1 R9P1308     0.0000 
     24 C2        -22.5200   35.7360   -3.0800 C.ar      1 R9P1308     0.0000 
     25 C3        -22.2840   34.7120   -2.1900 C.ar      1 R9P1308     0.0000 
     26 O1        -21.9550   33.4360   -2.3980 O.3       1 R9P1308     0.0000 
     27 C4        -21.8400   32.8340   -1.2020 C.2       1 R9P1308     0.0000 
     28 C5        -21.5280   31.5540   -0.9200 C.2       1 R9P1308     0.0000 
     29 O2        -21.3120   30.8070   -1.8700 O.2       1 R9P1308     0.0000 
     30 N1        -21.4740   31.2010    0.4290 N.am      1 R9P1308     0.0000 
     31 H         -21.6955   33.0056    8.2855 H         1 R9P1308     0.0000 
     32 H         -22.5645   32.8734    6.7469 H         1 R9P1308     0.0000 
     33 H         -23.9252   34.5707    7.2784 H         1 R9P1308     0.0000 
     34 H         -22.8747   34.8800    8.6714 H         1 R9P1308     0.0000 
     35 H         -25.0552   32.6032   10.8672 H         1 R9P1308     0.0000 
     36 H         -23.5612   33.5519   10.9558 H         1 R9P1308     0.0000 
     37 H         -23.8493   30.8244   10.2369 H         1 R9P1308     0.0000 
     38 H         -22.3708   31.8010   10.2190 H         1 R9P1308     0.0000 
     39 H         -24.4368   31.7582    8.0125 H         1 R9P1308     0.0000 
     40 H         -23.7097   29.7500    7.4190 H         1 R9P1308     0.0000 
     41 H         -22.4357   29.7604    8.6505 H         1 R9P1308     0.0000 
     42 H         -20.8134   30.2046    7.1171 H         1 R9P1308     0.0000 
     43 H         -20.5087   32.3238    5.7859 H         1 R9P1308     0.0000 
     44 H         -23.2392   29.3696    4.6636 H         1 R9P1308     0.0000 
     45 H         -23.1499   30.1933    2.3964 H         1 R9P1308     0.0000 
     46 H         -22.7807   36.2786    0.6537 H         1 R9P1308     0.0000 
     47 H         -23.0332   37.7566   -3.2552 H         1 R9P1308     0.0000 
     48 H         -22.4440   35.5587   -4.0984 H         1 R9P1308     0.0000 
     49 H         -21.2363   30.2352    0.6985 H         1 R9P1308     0.0000 
@<TRIPOS>BOND
     1    2    1 1    
     2    6    1 1    
     3   31    1 1    
     4   32    1 1    
     5    3    2 1    
     6   33    2 1    
     7   34    2 1    
     8    4    3 1    
     9    5    4 1    
    10   35    4 1    
    11   36    4 1    
    12    6    5 1    
    13   37    5 1    
    14   38    5 1    
    15    7    6 1    
    16   39    6 1    
    17    8    7 1    
    18   40    7 1    
    19   41    7 1    
    20    9    8 1    
    21   42    8 1    
    22   10    9 ar   
    23   13    9 ar   
    24   11   10 ar   
    25   43   10 1    
    26   12   11 1    
    27   15   11 ar   
    28   14   13 ar   
    29   44   13 1    
    30   15   14 ar   
    31   45   14 1    
    32   16   15 1    
    33   17   16 2    
    34   30   16 1    
    35   18   17 1    
    36   19   18 1    
    37   27   18 2    
    38   20   19 ar   
    39   25   19 ar   
    40   21   20 ar   
    41   46   20 1    
    42   22   21 1    
    43   23   21 ar   
    44   24   23 ar   
    45   47   23 1    
    46   25   24 ar   
    47   48   24 1    
    48   26   25 1    
    49   27   26 1    
    50   28   27 1    
    51   29   28 2    
    52   30   28 am   
    53   49   30 1    
@<TRIPOS>SUBSTRUCTURE
     1 R9P1308     1 GROUP   
@<TRIPOS>SET

