#    Name: 4lbd_961_1_INTS_M
#    Modification time : Tue Mar 25 09:59:33 2014

@<TRIPOS>MOLECULE
4lbd_961_1_INTS_M
  103     0    12     0     0
SMALL
NO_CHARGES


@<TRIPOS>ATOM
      1 CA         36.2505   19.4590   85.8790 C.3       4 GLC5        0.0000 
      2 CA         36.4520   17.4460   86.8090 C.3      12 GLL5        0.0000 
      3 CA         36.0490   21.4720   84.9490 C.3       8 GLP5        0.0000 
      4 CA         41.5725   11.1350   83.4125 C.3       4 GLC5        0.0000 
      5 CA         41.1760   13.1620   82.9030 C.3      12 GLL5        0.0000 
      6 CA         41.9690    9.1080   83.9220 C.3       8 GLP5        0.0000 
      7 CA         41.2970   14.7080   86.6715 C.3       4 GLC5        0.0000 
      8 CA         41.4900   14.6670   84.7140 C.3      12 GLL5        0.0000 
      9 CA         41.1040   14.7490   88.6290 C.3       8 GLP5        0.0000 
     10 CA         42.6070   15.1840   86.3140 C.3       4 GLC5        0.0000 
     11 CA         42.6690   15.1090   84.1380 C.3      12 GLL5        0.0000 
     12 CA         42.5450   15.2590   88.4900 C.3       8 GLP5        0.0000 
     13 CA         43.7210   16.7540   79.7885 C.3       4 GLC5        0.0000 
     14 CA         44.5440   14.9540   80.8520 C.3      12 GLL5        0.0000 
     15 CA         42.8980   18.5540   78.7250 C.3       8 GLP5        0.0000 
     16 CA         44.4485   12.2065   78.8495 C.3       4 GLC5        0.0000 
     17 CA         44.2200   13.4520   80.5430 C.3      12 GLL5        0.0000 
     18 CA         44.6770   10.9610   77.1560 C.3       8 GLP5        0.0000 
     19 CA         41.0275   15.3610   80.2570 C.3       4 GLC5        0.0000 
     20 CA         41.8310   13.7210   79.5960 C.3      12 GLL5        0.0000 
     21 CA         40.2240   17.0010   80.9180 C.3       8 GLP5        0.0000 
     22 CA         41.2650   14.6890   77.6465 C.3       4 GLC5        0.0000 
     23 CA         40.6990   15.6570   75.6970 C.3       8 GLP5        0.0000 
     24 CA         40.8835   12.8865   78.1275 C.3       4 GLC5        0.0000 
     25 CA         39.9360   12.0520   76.6590 C.3       8 GLP5        0.0000 
     26 CA         43.2215   14.6860   78.4150 C.3       4 GLC5        0.0000 
     27 CA         44.6120   15.6510   77.2340 C.3       8 GLP5        0.0000 
     28 CA         42.2600   10.3280   82.2885 C.3       4 GLC5        0.0000 
     29 CA         42.5510   11.5480   80.6550 C.3      12 GLL5        0.0000 
     30 CA         40.5135   11.2355   80.1345 C.3       4 GLC5        0.0000 
     31 CA         38.4760   10.9230   79.6140 C.3       8 GLP5        0.0000 
     32 CA         42.5390    9.7175   80.2940 C.3       4 GLC5        0.0000 
     33 CA         42.5270    7.8870   79.9330 C.3       8 GLP5        0.0000 
     34 CA         43.9685   10.2450   81.3015 C.3       4 GLC5        0.0000 
     35 CA         45.3860    8.9420   81.9480 C.3       8 GLP5        0.0000 
     36 CA         43.6140   11.2545   78.9055 C.3       4 GLC5        0.0000 
     37 CA         44.1990   18.0445   80.7745 C.3       4 GLC5        0.0000 
     38 CA         44.2750   16.9540   82.4050 C.3      12 GLL5        0.0000 
     39 CA         44.1230   19.1350   79.1440 C.3       8 GLP5        0.0000 
     40 CA         42.2495   16.9775   81.6615 C.3       4 GLC5        0.0000 
     41 CA         45.5740   17.8965   83.2115 C.3       4 GLC5        0.0000 
     42 CA         46.8730   18.8390   84.0180 C.3       8 GLP5        0.0000 
     43 CA         47.0415   14.3810   81.7830 C.3       4 GLC5        0.0000 
     44 CA         45.5910   14.8310   83.1150 C.3      12 GLL5        0.0000 
     45 CA         48.4920   13.9310   80.4510 C.3       8 GLP5        0.0000 
     46 CA         46.2320   16.8350   83.5665 C.3       4 GLC5        0.0000 
     47 CA         45.9180   15.2210   85.0155 C.3       4 GLC5        0.0000 
     48 CA         46.2450   15.6110   86.9160 C.3       8 GLP5        0.0000 
     49 CA         47.4075   14.3995   83.7350 C.3       4 GLC5        0.0000 
     50 CA         49.2240   13.9680   84.3550 C.3       8 GLP5        0.0000 
     51 CA         40.4270   13.1430   87.0290 C.3       4 GLC5        0.0000 
     52 CA         39.7170   13.0250   85.0930 C.3      12 GLL5        0.0000 
     53 CA         41.1370   13.2610   88.9650 C.3       8 GLP5        0.0000 
     54 CA         40.1420   11.0975   85.0215 C.3       4 GLC5        0.0000 
     55 CA         40.5670    9.1700   84.9500 C.3       8 GLP5        0.0000 
     56 CA         37.7755   12.0930   85.3690 C.3       4 GLC5        0.0000 
     57 CA         35.8340   11.1610   85.6450 C.3       8 GLP5        0.0000 
     58 CA         38.7545   12.7795   83.1820 C.3       4 GLC5        0.0000 
     59 CA         37.7920   12.5340   81.2710 C.3       8 GLP5        0.0000 
     60 O          38.1420   13.1520   87.5165 O.2       1 ALC1        0.0000 
     61 O          38.2040   14.2870   86.4740 O.2       9 ALL1        0.0000 
     62 O          38.0800   12.0170   88.5590 O.2       5 ALP1        0.0000 
     63 CA         38.2025   16.7330   83.6860 C.3       4 GLC5        0.0000 
     64 CA         38.3820   16.9100   85.5560 C.3      12 GLL5        0.0000 
     65 CA         38.0230   16.5560   81.8160 C.3       8 GLP5        0.0000 
     66 CA         36.5420   16.8740   84.4405 C.3       4 GLC5        0.0000 
     67 CA         34.7020   16.8380   83.3250 C.3       8 GLP5        0.0000 
     68 N          33.0405   19.2920   87.9400 N.am      2 SEC2        0.0000 
     69 N          34.6040   19.1420   87.8470 N.am     10 SEL2        0.0000 
     70 N          31.4770   19.4420   88.0330 N.am      6 SEP2        0.0000 
     71 NZ         32.2500   16.9665   89.1235 N.4       3 LYC4        0.0000 
     72 NZ         33.5740   17.6150   89.0050 N.4      11 LYL4        0.0000 
     73 NZ         30.2200   16.1820   90.3500 N.4       7 LYP4        0.0000 
     74 N          32.2500   16.9665   89.1235 N.am      2 SEC2        0.0000 
     75 N          33.5740   17.6150   89.0050 N.am     10 SEL2        0.0000 
     76 N          30.9260   16.3180   89.2420 N.am      6 SEP2        0.0000 
     77 N          32.5255   18.5285   88.5190 N.am      2 SEC2        0.0000 
     78 N          32.9075   18.3575   89.9570 N.am      2 SEC2        0.0000 
     79 N          32.2410   19.1000   90.9090 N.am      6 SEP2        0.0000 
     80 CA         37.6547   17.7680   88.3790 C.3       4 GLC5        0.0000 
     81 CA         37.3690   16.5240   86.3550 C.3      12 GLL5        0.0000 
     82 CA         38.3990   18.5510   90.1760 C.3       8 GLP5        0.0000 
     83 CA         34.4690   15.3135   86.7452 C.3       4 GLC5        0.0000 
     84 CA         35.6380   15.8550   88.3930 C.3      12 GLL5        0.0000 
     85 CA         33.3380   14.1530   85.3750 C.3       8 GLP5        0.0000 
     86 CA         35.9590   14.1067   89.6968 C.3       4 GLC5        0.0000 
     87 CA         35.8420   12.8190   91.2440 C.3       8 GLP5        0.0000 
     88 CA         36.7770   16.4635   89.4924 C.3       4 GLC5        0.0000 
     89 CA         36.5140   14.9340   87.9060 C.3      12 GLL5        0.0000 
     90 CA         37.4970   17.2230   90.9740 C.3       8 GLP5        0.0000 
     91 CA         38.6390   15.3302   88.5195 C.3       4 GLC5        0.0000 
     92 CA         40.3370   15.5730   89.6520 C.3       8 GLP5        0.0000 
     93 CA         35.9380   13.7003   86.7625 C.3       4 GLC5        0.0000 
     94 CA         37.3680   15.2410   86.8680 C.3      12 GLL5        0.0000 
     95 CA         34.9350   12.3130   86.1380 C.3       8 GLP5        0.0000 
     96 CA         41.4678   16.9670   84.7915 C.3       4 GLC5        0.0000 
     97 CA         40.8560   19.0460   85.1570 C.3       8 GLP5        0.0000 
     98 CA         42.9157   13.1895   85.2746 C.3       4 GLC5        0.0000 
     99 CA         43.9310   11.7510   86.2580 C.3       8 GLP5        0.0000 
    100 CA         46.4370   14.0670   80.5743 C.3       4 GLC5        0.0000 
    101 CA         44.4970   14.9270   78.9657 C.3       4 GLC5        0.0000 
    102 CA         38.8176   18.3183   86.1525 C.3       4 GLC5        0.0000 
    103 CA         39.9890   19.6890   86.2360 C.3       8 GLP5        0.0000 
@<TRIPOS>BOND
@<TRIPOS>SUBSTRUCTURE
     1 ALC1       60 GROUP        1 X    ALC  0     ROOT ALC X 1
     2 SEC2       68 GROUP        1 X    SEC  0     **** SEC X 2
     3 LYC4       71 GROUP        1 X    LYC  0     **** LYC X 4
     4 GLC5        1 GROUP        1 X    GLC  0     **** GLC X 6
     5 ALP1       62 GROUP        1 Y    ALP  0     ROOT ALP Y 8
     6 SEP2       70 GROUP        1 Y    SEP  0     **** SEP Y 9
     7 LYP4       73 GROUP        1 Y    LYP  0     **** LYP Y 11
     8 GLP5        3 GROUP        1 Y    GLP  0     **** GLP Y 13
     9 ALL1       61 GROUP        1 Z    ALL  0     ROOT ALL Z 15
    10 SEL2       69 GROUP        1 Z    SEL  0     **** SEL Z 16
    11 LYL4       72 GROUP        1 Z    LYL  0     **** LYL Z 18
    12 GLL5        2 GROUP        1 Z    GLL  0     **** GLL Z 20
@<TRIPOS>SET

