#    Name: 4lbd_961_1_ligand
#    Modification time : Tue Mar 25 09:59:33 2014

@<TRIPOS>MOLECULE
4lbd_961_1_ligand
   54    56     1     0     0
SMALL
NO_CHARGES


@<TRIPOS>ATOM
      1 C1         37.3690   16.5240   86.3550 C.ar      1 9611        0.0000 
      2 C2         36.4520   17.4460   86.8090 C.ar      1 9611        0.0000 
      3 C3         35.5620   17.0930   87.8380 C.ar      1 9611        0.0000 
      4 C4         35.6380   15.8550   88.3930 C.ar      1 9611        0.0000 
      5 C5         36.5140   14.9340   87.9060 C.ar      1 9611        0.0000 
      6 C6         37.3680   15.2410   86.8680 C.ar      1 9611        0.0000 
      7 C7         34.5340   17.9890   88.2990 C.2       1 9611        0.0000 
      8 C8         41.1760   13.1620   82.9030 C.ar      1 9611        0.0000 
      9 C9         40.7740   13.6270   84.1750 C.ar      1 9611        0.0000 
     10 C10        41.4900   14.6670   84.7140 C.ar      1 9611        0.0000 
     11 C11        42.6690   15.1090   84.1380 C.ar      1 9611        0.0000 
     12 C12        43.1070   14.6770   82.8850 C.ar      1 9611        0.0000 
     13 C13        44.3820   15.3700   82.3410 C.3       1 9611        0.0000 
     14 C14        44.5440   14.9540   80.8520 C.3       1 9611        0.0000 
     15 C15        44.2200   13.4520   80.5430 C.3       1 9611        0.0000 
     16 C16        42.7010   13.1110   80.7720 C.3       1 9611        0.0000 
     17 C17        42.3100   13.6680   82.2040 C.ar      1 9611        0.0000 
     18 C18        41.8310   13.7210   79.5960 C.3       1 9611        0.0000 
     19 C19        42.5510   11.5480   80.6550 C.3       1 9611        0.0000 
     20 C20        44.2750   16.9540   82.4050 C.3       1 9611        0.0000 
     21 C21        45.5910   14.8310   83.1150 C.3       1 9611        0.0000 
     22 C22        39.7170   13.0250   85.0930 C.3       1 9611        0.0000 
     23 C23        38.4690   13.9820   85.2180 C.2       1 9611        0.0000 
     24 N6         38.2040   14.2870   86.4740 N.am      1 9611        0.0000 
     25 F1         38.3820   16.9100   85.5560 F         1 9611        0.0000 
     26 O22        39.2820   11.7760   84.7410 O.3       1 9611        0.0000 
     27 O23        37.8100   14.4220   84.2800 O.2       1 9611        0.0000 
     28 O71        34.6040   19.1420   87.8470 O.co2     1 9611        0.0000 
     29 O72        33.5740   17.6150   89.0050 O.co2     1 9611        0.0000 
     30 H          36.4087   18.3884   86.4066 H         1 9611        0.0000 
     31 H          35.0226   15.6083   89.1960 H         1 9611        0.0000 
     32 H          36.5457   13.9771   88.3201 H         1 9611        0.0000 
     33 H          40.6162   12.4083   82.4470 H         1 9611        0.0000 
     34 H          41.1423   15.1381   85.5768 H         1 9611        0.0000 
     35 H          43.2613   15.7974   84.6615 H         1 9611        0.0000 
     36 H          45.5789   15.1560   80.5378 H         1 9611        0.0000 
     37 H          43.8863   15.5836   80.2342 H         1 9611        0.0000 
     38 H          44.8193   12.8218   81.1928 H         1 9611        0.0000 
     39 H          44.4706   13.2438   79.5074 H         1 9611        0.0000 
     40 H          40.1518   13.0202   86.1242 H         1 9611        0.0000 
     41 H          38.7063   13.7162   87.2479 H         1 9611        0.0000 
     42 H          41.9222   14.7155   79.5438 H         1 9611        0.0000 
     43 H          42.1012   13.3548   78.7056 H         1 9611        0.0000 
     44 H          40.8580   13.5216   79.7119 H         1 9611        0.0000 
     45 H          42.8325   11.2142   79.7554 H         1 9611        0.0000 
     46 H          43.1091   11.0696   81.3330 H         1 9611        0.0000 
     47 H          41.6053   11.2542   80.7938 H         1 9611        0.0000 
     48 H          45.0999   17.3965   82.0532 H         1 9611        0.0000 
     49 H          43.5058   17.2964   81.8654 H         1 9611        0.0000 
     50 H          44.1442   17.2799   83.3413 H         1 9611        0.0000 
     51 H          46.4458   15.2479   82.8059 H         1 9611        0.0000 
     52 H          45.5147   15.0114   84.0956 H         1 9611        0.0000 
     53 H          45.6910   13.8420   83.0059 H         1 9611        0.0000 
     54 H          39.7304   11.1552   85.3840 H         1 9611        0.0000 
@<TRIPOS>BOND
     1    2    1 ar   
     2    6    1 ar   
     3   25    1 1    
     4    3    2 ar   
     5   30    2 1    
     6    4    3 ar   
     7    7    3 1    
     8    5    4 ar   
     9   31    4 1    
    10    6    5 ar   
    11   32    5 1    
    12   24    6 1    
    13   28    7 ar   
    14   29    7 ar   
    15    9    8 ar   
    16   17    8 ar   
    17   33    8 1    
    18   10    9 ar   
    19   22    9 1    
    20   11   10 ar   
    21   34   10 1    
    22   12   11 ar   
    23   35   11 1    
    24   13   12 1    
    25   17   12 ar   
    26   14   13 1    
    27   20   13 1    
    28   21   13 1    
    29   15   14 1    
    30   36   14 1    
    31   37   14 1    
    32   16   15 1    
    33   38   15 1    
    34   39   15 1    
    35   17   16 1    
    36   18   16 1    
    37   19   16 1    
    38   42   18 1    
    39   43   18 1    
    40   44   18 1    
    41   45   19 1    
    42   46   19 1    
    43   47   19 1    
    44   48   20 1    
    45   49   20 1    
    46   50   20 1    
    47   51   21 1    
    48   52   21 1    
    49   53   21 1    
    50   23   22 1    
    51   26   22 1    
    52   40   22 1    
    53   24   23 am   
    54   27   23 2    
    55   41   24 1    
    56   54   26 1    
@<TRIPOS>SUBSTRUCTURE
     1 9611        1 GROUP   
@<TRIPOS>SET

