#    Name: 4ig6_SAH_1_INTS_M
#    Modification time : Tue Mar 25 03:55:11 2014

@<TRIPOS>MOLECULE
4ig6_SAH_1_INTS_M
   70     0    12     0     0
SMALL
NO_CHARGES


@<TRIPOS>ATOM
      1 OD1        -2.8265   24.6305  -32.8685 O.co2     3 ASC3        0.0000 
      2 OD1        -2.9780   23.3870  -32.3430 O.co2    11 ASL3        0.0000 
      3 OD1        -2.6750   25.8740  -33.3940 O.co2     7 ASP3        0.0000 
      4 O          -2.8265   24.6305  -32.8685 O.2       1 ALC1        0.0000 
      5 O          -2.9780   23.3870  -32.3430 O.2       9 ALL1        0.0000 
      6 O          -2.6750   25.8740  -33.3940 O.2       5 ALP1        0.0000 
      7 CA         -6.2430   21.7105  -31.2865 C.3       4 GLC5        0.0000 
      8 CA         -4.9760   23.4920  -30.8530 C.3      12 GLL5        0.0000 
      9 CA         -7.5100   19.9290  -31.7200 C.3       8 GLP5        0.0000 
     10 CA         -7.3590   21.8030  -30.5595 C.3       4 GLC5        0.0000 
     11 CA         -7.2080   23.6770  -29.3990 C.3      12 GLL5        0.0000 
     12 CA         -6.0460   22.2770  -23.9800 C.3       4 GLC5        0.0000 
     13 CA         -7.3340   23.4520  -25.0040 C.3      12 GLL5        0.0000 
     14 CA         -4.7580   21.1020  -22.9560 C.3       8 GLP5        0.0000 
     15 N          -8.1795   25.6515  -23.3730 N.am      2 SEC2        0.0000 
     16 N          -7.7290   24.2880  -23.9080 N.am     10 SEL2        0.0000 
     17 N          -8.6300   27.0150  -22.8380 N.am      6 SEP2        0.0000 
     18 O          -8.2880   24.0860  -22.5840 O.2       1 ALC1        0.0000 
     19 O          -7.7290   24.2880  -23.9080 O.2       9 ALL1        0.0000 
     20 O          -8.8470   23.8840  -21.2600 O.2       5 ALP1        0.0000 
     21 CA        -10.1905   23.9370  -26.2615 C.3       4 GLC5        0.0000 
     22 CA         -8.5900   22.8800  -25.5960 C.3      12 GLL5        0.0000 
     23 CA        -11.7910   24.9940  -26.9270 C.3       8 GLP5        0.0000 
     24 N          -9.3885   19.4570  -28.3355 N.am      2 SEC2        0.0000 
     25 N          -8.4640   19.5680  -27.1480 N.am     10 SEL2        0.0000 
     26 N         -10.3130   19.3460  -29.5230 N.am      6 SEP2        0.0000 
     27 CA         -6.3775   18.1015  -25.2145 C.3       4 GLC5        0.0000 
     28 CA         -8.4320   18.0510  -25.0480 C.3      12 GLL5        0.0000 
     29 CA         -4.3230   18.1520  -25.3810 C.3       8 GLP5        0.0000 
     30 CA         -7.4065   17.2165  -23.3005 C.3       4 GLC5        0.0000 
     31 CA         -6.3810   16.3820  -21.5530 C.3       8 GLP5        0.0000 
     32 CA         -9.9465   17.0125  -23.9970 C.3       4 GLC5        0.0000 
     33 CA        -11.4610   15.9740  -22.9460 C.3       8 GLP5        0.0000 
     34 O          -7.9600   15.4695  -25.7915 O.2       1 ALC1        0.0000 
     35 O          -8.4020   16.8980  -25.7320 O.2       9 ALL1        0.0000 
     36 O          -7.5180   14.0410  -25.8510 O.2       5 ALP1        0.0000 
     37 O          -8.3310   16.5500  -27.1165 O.2       1 ALC1        0.0000 
     38 O          -8.2600   16.2020  -28.5010 O.2       5 ALP1        0.0000 
     39 O          -7.2750   16.0420  -24.7050 O.2       1 ALC1        0.0000 
     40 O          -6.1480   15.1860  -23.6780 O.2       5 ALP1        0.0000 
     41 N          -8.5690   16.8820  -22.7645 N.am      2 SEC2        0.0000 
     42 N          -8.4470   18.1380  -23.6990 N.am     10 SEL2        0.0000 
     43 N          -8.6910   15.6260  -21.8300 N.am      6 SEP2        0.0000 
     44 CA         -8.5995   20.9210  -21.9170 C.3       4 GLC5        0.0000 
     45 CA         -8.4730   19.3190  -23.0430 C.3      12 GLL5        0.0000 
     46 CA         -8.7260   22.5230  -20.7910 C.3       8 GLP5        0.0000 
     47 CA         -6.6155   20.2105  -22.9995 C.3       4 GLC5        0.0000 
     48 CA         -7.4270   17.8505  -22.2980 C.3       4 GLC5        0.0000 
     49 CA         -9.9670   17.6465  -22.9945 C.3       4 GLC5        0.0000 
     50 CA        -10.0675   19.6580  -22.3580 C.3       4 GLC5        0.0000 
     51 CA        -11.6620   19.9970  -21.6730 C.3       8 GLP5        0.0000 
     52 CA         -6.6130   20.8045  -24.0035 C.3       4 GLC5        0.0000 
     53 CA         -8.4680   20.5070  -25.0510 C.3      12 GLL5        0.0000 
     54 CA         -4.4479   25.7474  -30.4820 C.3       4 GLC5        0.0000 
     55 CA         -4.0530   27.7540  -30.7740 C.3       8 GLP5        0.0000 
     56 CA         -8.5267   26.8040  -27.5285 C.3       4 GLC5        0.0000 
     57 CA         -7.8000   25.0270  -28.4190 C.3      12 GLL5        0.0000 
     58 CA         -9.1550   28.7610  -27.3760 C.3       8 GLP5        0.0000 
     59 CA         -9.8448   24.9205  -27.3040 C.3       4 GLC5        0.0000 
     60 CA         -5.9002   22.1780  -25.7182 C.3       4 GLC5        0.0000 
     61 CA         -6.7530   24.2000  -26.1950 C.3      12 GLL5        0.0000 
     62 CA         -4.7570   20.5300  -25.8370 C.3       8 GLP5        0.0000 
     63 CA         -7.6618   25.7039  -24.9057 C.3       4 GLC5        0.0000 
     64 CA         -7.9690   27.4650  -24.0250 C.3       8 GLP5        0.0000 
     65 CA         -9.6200   23.5835  -24.3125 C.3       4 GLC5        0.0000 
     66 CA        -11.2780   24.0010  -23.3250 C.3       8 GLP5        0.0000 
     67 CA         -6.6082   20.2112  -25.6388 C.3       4 GLC5        0.0000 
     68 CA        -10.3849   19.3849  -25.4830 C.3       4 GLC5        0.0000 
     69 CA         -8.4510   19.2780  -25.8300 C.3      12 GLL5        0.0000 
     70 CA        -12.3150   19.1840  -25.7210 C.3       8 GLP5        0.0000 
@<TRIPOS>BOND
@<TRIPOS>SUBSTRUCTURE
     1 ALC1        4 GROUP        1 X    ALC  0     ROOT ALC X 1
     2 SEC2       15 GROUP        1 X    SEC  0     **** SEC X 2
     3 ASC3        1 GROUP        1 X    ASC  0     **** ASC X 3
     4 GLC5        7 GROUP        1 X    GLC  0     **** GLC X 6
     5 ALP1        6 GROUP        1 Y    ALP  0     ROOT ALP Y 8
     6 SEP2       17 GROUP        1 Y    SEP  0     **** SEP Y 9
     7 ASP3        3 GROUP        1 Y    ASP  0     **** ASP Y 10
     8 GLP5        9 GROUP        1 Y    GLP  0     **** GLP Y 13
     9 ALL1        5 GROUP        1 Z    ALL  0     ROOT ALL Z 15
    10 SEL2       16 GROUP        1 Z    SEL  0     **** SEL Z 16
    11 ASL3        2 GROUP        1 Z    ASL  0     **** ASL Z 17
    12 GLL5        8 GROUP        1 Z    GLL  0     **** GLL Z 20
@<TRIPOS>SET

