#    Name: 4ig6_SAH_1_ligand
#    Modification time : Tue Mar 25 03:55:11 2014

@<TRIPOS>MOLECULE
4ig6_SAH_1_ligand
   46    48     1     0     0
SMALL
NO_CHARGES


@<TRIPOS>ATOM
      1 N          -2.9780   23.3870  -32.3430 N.4       1 SAH301      0.0000 
      2 CA         -3.4250   23.4550  -30.9110 C.3       1 SAH301      0.0000 
      3 CB         -4.9760   23.4920  -30.8530 C.3       1 SAH301      0.0000 
      4 CG         -5.4850   24.0080  -29.4980 C.3       1 SAH301      0.0000 
      5 SD         -7.2080   23.6770  -29.3990 S.3       1 SAH301      0.0000 
      6 C          -2.8730   22.2910  -30.1250 C.2       1 SAH301      0.0000 
      7 O          -2.5630   21.2410  -30.6980 O.co2     1 SAH301      0.0000 
      8 OXT        -2.7200   22.3680  -28.8950 O.co2     1 SAH301      0.0000 
      9 C5'        -7.8000   25.0270  -28.4190 C.3       1 SAH301      0.0000 
     10 C4'        -7.9970   24.6670  -26.9430 C.3       1 SAH301      0.0000 
     11 O4'        -8.9480   23.6100  -26.7630 O.3       1 SAH301      0.0000 
     12 C3'        -6.7530   24.2000  -26.1950 C.3       1 SAH301      0.0000 
     13 O3'        -5.9010   25.2730  -25.8160 O.3       1 SAH301      0.0000 
     14 C2'        -7.3340   23.4520  -25.0040 C.3       1 SAH301      0.0000 
     15 O2'        -7.7290   24.2880  -23.9080 O.3       1 SAH301      0.0000 
     16 C1'        -8.5900   22.8800  -25.5960 C.3       1 SAH301      0.0000 
     17 N9         -8.4830   21.4590  -25.9550 N.pl3     1 SAH301      0.0000 
     18 C8         -8.4940   20.9150  -27.1950 C.2       1 SAH301      0.0000 
     19 N7         -8.4640   19.5680  -27.1480 N.2       1 SAH301      0.0000 
     20 C5         -8.4510   19.2780  -25.8300 C.ar      1 SAH301      0.0000 
     21 C6         -8.4320   18.0510  -25.0480 C.ar      1 SAH301      0.0000 
     22 N6         -8.4020   16.8980  -25.7320 N.pl3     1 SAH301      0.0000 
     23 N1         -8.4470   18.1380  -23.6990 N.ar      1 SAH301      0.0000 
     24 C2         -8.4730   19.3190  -23.0430 C.ar      1 SAH301      0.0000 
     25 N3         -8.4750   20.4880  -23.6980 N.ar      1 SAH301      0.0000 
     26 C4         -8.4680   20.5070  -25.0510 C.ar      1 SAH301      0.0000 
     27 H          -3.0615   24.3814  -30.4752 H         1 SAH301      0.0000 
     28 H          -5.3562   22.4851  -31.0217 H         1 SAH301      0.0000 
     29 H          -5.3401   24.1431  -31.6469 H         1 SAH301      0.0000 
     30 H          -5.4211   25.0580  -29.4101 H         1 SAH301      0.0000 
     31 H          -5.0762   23.4808  -28.6799 H         1 SAH301      0.0000 
     32 H          -8.7210   25.3040  -28.9061 H         1 SAH301      0.0000 
     33 H          -7.0511   25.7887  -28.5650 H         1 SAH301      0.0000 
     34 H          -8.3673   25.5610  -26.4129 H         1 SAH301      0.0000 
     35 H          -6.2647   23.4684  -26.8218 H         1 SAH301      0.0000 
     36 H          -6.7016   22.6590  -24.7419 H         1 SAH301      0.0000 
     37 H          -9.3932   22.9897  -24.8493 H         1 SAH301      0.0000 
     38 H          -8.5207   21.4420  -28.0279 H         1 SAH301      0.0000 
     39 H          -8.3921   16.0615  -25.1841 H         1 SAH301      0.0000 
     40 H          -8.3921   16.9779  -26.7288 H         1 SAH301      0.0000 
     41 H          -8.4921   19.3155  -21.9884 H         1 SAH301      0.0000 
     42 H          -2.8504   24.2977  -32.7359 H         1 SAH301      0.0000 
     43 H          -2.1085   22.9024  -32.4380 H         1 SAH301      0.0000 
     44 H          -3.6435   22.9105  -32.9175 H         1 SAH301      0.0000 
     45 H          -6.0262   25.3662  -24.8283 H         1 SAH301      0.0000 
     46 H          -8.0274   23.6546  -23.1940 H         1 SAH301      0.0000 
@<TRIPOS>BOND
     1    2    1 1    
     2   42    1 1    
     3   43    1 1    
     4   44    1 1    
     5    3    2 1    
     6    6    2 1    
     7   27    2 1    
     8    4    3 1    
     9   28    3 1    
    10   29    3 1    
    11    5    4 1    
    12   30    4 1    
    13   31    4 1    
    14    9    5 1    
    15    7    6 ar   
    16    8    6 ar   
    17   10    9 1    
    18   32    9 1    
    19   33    9 1    
    20   11   10 1    
    21   12   10 1    
    22   34   10 1    
    23   16   11 1    
    24   13   12 1    
    25   14   12 1    
    26   35   12 1    
    27   45   13 1    
    28   15   14 1    
    29   16   14 1    
    30   36   14 1    
    31   46   15 1    
    32   17   16 1    
    33   37   16 1    
    34   18   17 1    
    35   26   17 1    
    36   19   18 2    
    37   38   18 1    
    38   20   19 1    
    39   21   20 ar   
    40   26   20 ar   
    41   22   21 1    
    42   23   21 ar   
    43   39   22 1    
    44   40   22 1    
    45   24   23 ar   
    46   25   24 ar   
    47   41   24 1    
    48   26   25 ar   
@<TRIPOS>SUBSTRUCTURE
     1 SAH301      1 GROUP   
@<TRIPOS>SET

