#    Name: 4lv5_ADP_1_INTS_M
#    Modification time : Tue Mar 25 11:30:22 2014

@<TRIPOS>MOLECULE
4lv5_ADP_1_INTS_M
   58     0    12     0     0
SMALL
NO_CHARGES


@<TRIPOS>ATOM
      1 N          75.5975   21.9780 -123.3430 N.am      2 SEC2        0.0000 
      2 N          75.2240   20.8180 -124.5020 N.am     10 SEL2        0.0000 
      3 N          75.9710   23.1380 -122.1840 N.am      6 SEP2        0.0000 
      4 N          75.7845   23.9955 -126.0660 N.am      2 SEC2        0.0000 
      5 N          76.1220   22.7610 -125.8220 N.am     10 SEL2        0.0000 
      6 N          75.4470   25.2300 -126.3100 N.am      6 SEP2        0.0000 
      7 NZ         74.6830   21.8790 -130.6055 N.4       3 LYC4        0.0000 
      8 NZ         74.4960   21.0820 -129.4450 N.4      11 LYL4        0.0000 
      9 NZ         74.8700   22.6760 -131.7660 N.4       7 LYP4        0.0000 
     10 N          74.6830   21.8790 -130.6055 N.am      2 SEC2        0.0000 
     11 N          74.4960   21.0820 -129.4450 N.am     10 SEL2        0.0000 
     12 N          74.8700   22.6760 -131.7660 N.am      6 SEP2        0.0000 
     13 NZ         75.1575   22.9060 -129.9835 N.4       3 LYC4        0.0000 
     14 NZ         75.4450   23.1360 -128.2010 N.4      11 LYL4        0.0000 
     15 N          75.4460   24.1830 -127.2555 N.am      2 SEC2        0.0000 
     16 N          75.4450   23.1360 -128.2010 N.am     10 SEL2        0.0000 
     17 CA         70.8020   19.2865 -125.7895 C.3       4 GLC5        0.0000 
     18 CA         70.7960   21.3930 -126.4410 C.3      12 GLL5        0.0000 
     19 CA         70.8080   17.1800 -125.1380 C.3       8 GLP5        0.0000 
     20 O          69.9620   18.9630 -127.8915 O.2       1 ALC1        0.0000 
     21 O          69.2960   20.0840 -127.7600 O.2       9 ALL1        0.0000 
     22 O          70.6280   17.8420 -128.0230 O.2       5 ALP1        0.0000 
     23 CA         68.9660   23.7020 -127.1075 C.3       4 GLC5        0.0000 
     24 CA         69.7740   22.4110 -128.3140 C.3      12 GLL5        0.0000 
     25 CA         68.1580   24.9930 -125.9010 C.3       8 GLP5        0.0000 
     26 CA         70.6610   24.2170 -128.8465 C.3       4 GLC5        0.0000 
     27 CA         71.5480   26.0230 -129.3790 C.3       8 GLP5        0.0000 
     28 CA         68.3640   24.8800 -133.6480 C.3       4 GLC5        0.0000 
     29 CA         68.4400   23.1540 -133.0630 C.3      12 GLL5        0.0000 
     30 CA         68.2880   26.6060 -134.2330 C.3       8 GLP5        0.0000 
     31 CA         68.5685   21.4320 -134.4360 C.3       4 GLC5        0.0000 
     32 CA         68.6970   19.7100 -135.8090 C.3       8 GLP5        0.0000 
     33 CA         66.5635   21.9550 -133.1620 C.3       4 GLC5        0.0000 
     34 CA         64.6870   20.7560 -133.2610 C.3       8 GLP5        0.0000 
     35 O          68.1570   23.4415 -135.5665 O.2       1 ALC1        0.0000 
     36 O          68.8780   23.2130 -134.3430 O.2       9 ALL1        0.0000 
     37 O          67.4360   23.6700 -136.7900 O.2       5 ALP1        0.0000 
     38 N          65.9215   23.1080 -133.6400 N.am      2 SEC2        0.0000 
     39 N          67.1560   23.3860 -132.7380 N.am     10 SEL2        0.0000 
     40 N          64.6870   22.8300 -134.5420 N.am      6 SEP2        0.0000 
     41 CA         65.9655   25.3905 -131.2060 C.3       4 GLC5        0.0000 
     42 CA         66.7240   23.3330 -131.4620 C.3      12 GLL5        0.0000 
     43 CA         65.2070   27.4480 -130.9500 C.3       8 GLP5        0.0000 
     44 CA         65.7055   22.0445 -132.3615 C.3       4 GLC5        0.0000 
     45 CA         72.9203   23.3727 -124.9288 C.3       4 GLC5        0.0000 
     46 CA         71.1910   22.8580 -126.5040 C.3      12 GLL5        0.0000 
     47 CA         73.8990   23.8110 -123.2710 C.3       8 GLP5        0.0000 
     48 CA         71.7448   24.4787 -127.9827 C.3       4 GLC5        0.0000 
     49 CA         72.6920   23.0110 -126.6690 C.3      12 GLL5        0.0000 
     50 CA         69.5757   23.5592 -126.1867 C.3       4 GLC5        0.0000 
     51 CA         69.2413   20.6048 -129.4923 C.3       4 GLC5        0.0000 
     52 CA         68.4370   19.4680 -130.9120 C.3       8 GLP5        0.0000 
     53 CA         69.3155   24.8802 -130.9117 C.3       4 GLC5        0.0000 
     54 CA         68.8270   22.8430 -130.5870 C.3      12 GLL5        0.0000 
     55 CA         69.5350   26.9030 -130.5550 C.3       8 GLP5        0.0000 
     56 CA         70.5272   23.4120 -133.8053 C.3       4 GLC5        0.0000 
     57 CA         69.3650   22.8720 -131.9500 C.3      12 GLL5        0.0000 
     58 CA         72.1520   23.8110 -135.1040 C.3       8 GLP5        0.0000 
@<TRIPOS>BOND
@<TRIPOS>SUBSTRUCTURE
     1 ALC1       20 GROUP        1 X    ALC  0     ROOT ALC X 1
     2 SEC2        1 GROUP        1 X    SEC  0     **** SEC X 2
     3 LYC4        7 GROUP        1 X    LYC  0     **** LYC X 4
     4 GLC5       17 GROUP        1 X    GLC  0     **** GLC X 6
     5 ALP1       22 GROUP        1 Y    ALP  0     ROOT ALP Y 8
     6 SEP2        3 GROUP        1 Y    SEP  0     **** SEP Y 9
     7 LYP4        9 GROUP        1 Y    LYP  0     **** LYP Y 11
     8 GLP5       19 GROUP        1 Y    GLP  0     **** GLP Y 13
     9 ALL1       21 GROUP        1 Z    ALL  0     ROOT ALL Z 15
    10 SEL2        2 GROUP        1 Z    SEL  0     **** SEL Z 16
    11 LYL4        8 GROUP        1 Z    LYL  0     **** LYL Z 18
    12 GLL5       18 GROUP        1 Z    GLL  0     **** GLL Z 20
@<TRIPOS>SET

