#    Name: 4lv5_ADP_1_ligand
#    Modification time : Tue Mar 25 11:30:22 2014

@<TRIPOS>MOLECULE
4lv5_ADP_1_ligand
   39    41     1     0     0
SMALL
NO_CHARGES


@<TRIPOS>ATOM
      1 PB         75.8710   21.2790 -125.7850 P.3       1 ADP601      0.0000 
      2 O1B        75.2240   20.8180 -124.5020 O.co2     1 ADP601      0.0000 
      3 O2B        76.1220   22.7610 -125.8220 O.co2     1 ADP601      0.0000 
      4 O3B        77.0710   20.4690 -126.2350 O.co2     1 ADP601      0.0000 
      5 PA         74.5190   21.9420 -128.1980 P.3       1 ADP601      0.0000 
      6 O1A        74.4960   21.0820 -129.4450 O.co2     1 ADP601      0.0000 
      7 O2A        75.4450   23.1360 -128.2010 O.co2     1 ADP601      0.0000 
      8 O3A        74.7520   20.9900 -126.9150 O.3       1 ADP601      0.0000 
      9 O5'        73.0250   22.4530 -127.9310 O.3       1 ADP601      0.0000 
     10 C5'        72.6920   23.0110 -126.6690 C.3       1 ADP601      0.0000 
     11 C4'        71.1910   22.8580 -126.5040 C.3       1 ADP601      0.0000 
     12 O4'        70.5590   23.4160 -127.6630 O.3       1 ADP601      0.0000 
     13 C3'        70.7960   21.3930 -126.4410 C.3       1 ADP601      0.0000 
     14 O3'        69.6780   21.2520 -125.5520 O.3       1 ADP601      0.0000 
     15 C2'        70.3170   21.0720 -127.8310 C.3       1 ADP601      0.0000 
     16 O2'        69.2960   20.0840 -127.7600 O.3       1 ADP601      0.0000 
     17 C1'        69.7740   22.4110 -128.3140 C.3       1 ADP601      0.0000 
     18 N9         69.8580   22.5540 -129.7860 N.pl3     1 ADP601      0.0000 
     19 C8         70.9750   22.4150 -130.5480 C.2       1 ADP601      0.0000 
     20 N7         70.6830   22.6120 -131.8570 N.2       1 ADP601      0.0000 
     21 C5         69.3650   22.8720 -131.9500 C.ar      1 ADP601      0.0000 
     22 C6         68.4400   23.1540 -133.0630 C.ar      1 ADP601      0.0000 
     23 N6         68.8780   23.2130 -134.3430 N.pl3     1 ADP601      0.0000 
     24 N1         67.1560   23.3860 -132.7380 N.ar      1 ADP601      0.0000 
     25 C2         66.7240   23.3330 -131.4620 C.ar      1 ADP601      0.0000 
     26 N3         67.5010   23.0680 -130.3940 N.ar      1 ADP601      0.0000 
     27 C4         68.8270   22.8430 -130.5870 C.ar      1 ADP601      0.0000 
     28 H          72.9323   24.0689 -126.6127 H         1 ADP601      0.0000 
     29 H          73.1773   22.4887 -125.8493 H         1 ADP601      0.0000 
     30 H          70.8765   23.3474 -125.6172 H         1 ADP601      0.0000 
     31 H          71.6124   20.8101 -126.1953 H         1 ADP601      0.0000 
     32 H          71.1425   20.8046 -128.4229 H         1 ADP601      0.0000 
     33 H          68.7439   22.4805 -127.9919 H         1 ADP601      0.0000 
     34 H          71.8615   22.2032 -130.1998 H         1 ADP601      0.0000 
     35 H          69.8564   23.0591 -134.4808 H         1 ADP601      0.0000 
     36 H          68.1842   23.4052 -135.0371 H         1 ADP601      0.0000 
     37 H          65.6781   23.5166 -131.2834 H         1 ADP601      0.0000 
     38 H          68.9348   20.9050 -126.1241 H         1 ADP601      0.0000 
     39 H          69.7416   19.2793 -127.3676 H         1 ADP601      0.0000 
@<TRIPOS>BOND
     1    2    1 ar   
     2    3    1 ar   
     3    4    1 ar   
     4    8    1 1    
     5    6    5 ar   
     6    7    5 ar   
     7    8    5 1    
     8    9    5 1    
     9   10    9 1    
    10   11   10 1    
    11   28   10 1    
    12   29   10 1    
    13   12   11 1    
    14   13   11 1    
    15   30   11 1    
    16   17   12 1    
    17   14   13 1    
    18   15   13 1    
    19   31   13 1    
    20   38   14 1    
    21   16   15 1    
    22   17   15 1    
    23   32   15 1    
    24   39   16 1    
    25   18   17 1    
    26   33   17 1    
    27   19   18 1    
    28   27   18 1    
    29   20   19 2    
    30   34   19 1    
    31   21   20 1    
    32   22   21 ar   
    33   27   21 ar   
    34   23   22 1    
    35   24   22 ar   
    36   35   23 1    
    37   36   23 1    
    38   25   24 ar   
    39   26   25 ar   
    40   37   25 1    
    41   27   26 ar   
@<TRIPOS>SUBSTRUCTURE
     1 ADP601      1 GROUP   
@<TRIPOS>SET

