#    Name: 3k98_1RC_2_INTS_M
#    Modification time : Mon Mar 24 18:59:11 2014

@<TRIPOS>MOLECULE
3k98_1RC_2_INTS_M
   57     0     9     0     0
SMALL
NO_CHARGES


@<TRIPOS>ATOM
      1 CA         30.8390   -4.3100   18.3525 C.3       3 GLC5        0.0000 
      2 CA         29.3050   -3.6630   17.2910 C.3       9 GLL5        0.0000 
      3 CA         32.3730   -4.9570   19.4140 C.3       6 GLP5        0.0000 
      4 CA         32.2430    2.8225   21.2710 C.3       3 GLC5        0.0000 
      5 CA         31.6090    2.0860   19.5000 C.3       9 GLL5        0.0000 
      6 CA         32.8770    3.5590   23.0420 C.3       6 GLP5        0.0000 
      7 CA         29.9220   -0.3000   21.2890 C.3       3 GLC5        0.0000 
      8 CA         29.8390    0.3940   19.5980 C.3       9 GLL5        0.0000 
      9 CA         30.0050   -0.9940   22.9800 C.3       6 GLP5        0.0000 
     10 O          27.8800    0.8480   20.7455 O.2       1 ALC1        0.0000 
     11 O          28.5470    0.0430   19.8890 O.2       7 ALL1        0.0000 
     12 O          27.2130    1.6530   21.6020 O.2       4 ALP1        0.0000 
     13 CA         35.9770    0.7685   18.2040 C.3       3 GLC5        0.0000 
     14 CA         34.1370    1.5170   18.6310 C.3       9 GLL5        0.0000 
     15 CA         37.8170    0.0200   17.7770 C.3       6 GLP5        0.0000 
     16 CA         35.3370    2.7195   18.7985 C.3       3 GLC5        0.0000 
     17 CA         36.5370    3.9220   18.9660 C.3       6 GLP5        0.0000 
     18 N          30.2425   -2.5265   21.1355 N.am      2 SEC2        0.0000 
     19 N          30.2800   -2.7380   19.8090 N.am      8 SEL2        0.0000 
     20 N          30.2050   -2.3150   22.4620 N.am      5 SEP2        0.0000 
     21 CA         36.1665   -0.7095   17.0480 C.3       3 GLC5        0.0000 
     22 CA         34.5160   -1.4390   16.3190 C.3       9 GLL5        0.0000 
     23 CA         27.0332   -2.1805   15.1363 C.3       3 GLC5        0.0000 
     24 CA         28.7570   -2.0640   13.9530 C.3       9 GLL5        0.0000 
     25 CA         25.6240   -1.7840   16.6980 C.3       6 GLP5        0.0000 
     26 CA         28.0161   -1.9403   17.1007 C.3       3 GLC5        0.0000 
     27 CA         26.5740   -1.5000   17.8350 C.3       6 GLP5        0.0000 
     28 CA         28.4348   -0.7967   18.5875 C.3       3 GLC5        0.0000 
     29 CA         30.7520   -0.5810   19.0820 C.3       9 GLL5        0.0000 
     30 CA         31.3700   -0.3177   20.9462 C.3       3 GLC5        0.0000 
     31 CA         32.0920   -0.2200   18.7890 C.3       9 GLL5        0.0000 
     32 CA         31.3180   -0.2350   22.9570 C.3       6 GLP5        0.0000 
     33 CA         31.2568    2.3607   17.7550 C.3       3 GLC5        0.0000 
     34 CA         32.5160    1.1130   18.9980 C.3       9 GLL5        0.0000 
     35 CA         30.4510    3.1220   16.2610 C.3       6 GLP5        0.0000 
     36 CA         30.2535    2.0922   17.9812 C.3       3 GLC5        0.0000 
     37 CA         30.2730    1.7310   19.8050 C.3       9 GLL5        0.0000 
     38 CA         28.3260    1.9723   19.0808 C.3       3 GLC5        0.0000 
     39 CA         26.5960    2.8820   18.4600 C.3       6 GLP5        0.0000 
     40 CA         33.8105   -2.6627   17.5328 C.3       3 GLC5        0.0000 
     41 CA         33.5040   -1.9240   15.2920 C.3       9 GLL5        0.0000 
     42 CA         33.6110   -3.6440   19.2600 C.3       6 GLP5        0.0000 
     43 CA         35.3095   -3.1402   15.3017 C.3       3 GLC5        0.0000 
     44 CA         36.6090   -4.5990   14.7980 C.3       6 GLP5        0.0000 
     45 CA         27.5220   -1.0677   13.4448 C.3       3 GLC5        0.0000 
     46 CA         29.1070   -2.3420   15.2930 C.3       9 GLL5        0.0000 
     47 CA         26.5140    0.5110   12.9800 C.3       6 GLP5        0.0000 
     48 CA         26.8337   -3.1437   15.5800 C.3       3 GLC5        0.0000 
     49 CA         27.8630   -4.3700   13.7870 C.3       9 GLL5        0.0000 
     50 CA         26.4453   -5.3868   14.1060 C.3       3 GLC5        0.0000 
     51 CA         28.2240   -4.6370   15.1370 C.3       9 GLL5        0.0000 
     52 CA         24.8470   -6.2700   13.7500 C.3       6 GLP5        0.0000 
     53 CA         27.4322   -5.1216   16.8531 C.3       3 GLC5        0.0000 
     54 CA         26.2160   -6.1040   17.8460 C.3       6 GLP5        0.0000 
     55 CA         32.6765   -1.2064   19.8964 C.3       3 GLC5        0.0000 
     56 CA         33.3840   -2.7690   20.8260 C.3       6 GLP5        0.0000 
     57 CA         31.2429    0.7151   21.2420 C.3       3 GLC5        0.0000 
@<TRIPOS>BOND
@<TRIPOS>SUBSTRUCTURE
     1 ALC1       10 GROUP        1 X    ALC  0     ROOT ALC X 1
     2 SEC2       18 GROUP        1 X    SEC  0     **** SEC X 2
     3 GLC5        1 GROUP        1 X    GLC  0     **** GLC X 6
     4 ALP1       12 GROUP        1 Y    ALP  0     ROOT ALP Y 8
     5 SEP2       20 GROUP        1 Y    SEP  0     **** SEP Y 9
     6 GLP5        3 GROUP        1 Y    GLP  0     **** GLP Y 13
     7 ALL1       11 GROUP        1 Z    ALL  0     ROOT ALL Z 15
     8 SEL2       19 GROUP        1 Z    SEL  0     **** SEL Z 16
     9 GLL5        2 GROUP        1 Z    GLL  0     **** GLL Z 20
@<TRIPOS>SET

