#    Name: 3k98_1RC_2_ligand
#    Modification time : Mon Mar 24 18:59:11 2014

@<TRIPOS>MOLECULE
3k98_1RC_2_ligand
   42    44     1     0     0
SMALL
NO_CHARGES


@<TRIPOS>ATOM
      1 N1         29.8460   -2.3110   17.5340 N.am      1 1RC901      0.0000 
      2 C4         28.7570   -2.0640   13.9530 C.ar      1 1RC901      0.0000 
      3 C5         29.1070   -2.3420   15.2930 C.ar      1 1RC901      0.0000 
      4 C6         28.8410   -3.6200   15.8760 C.ar      1 1RC901      0.0000 
      5 C7         29.3050   -3.6630   17.2910 C.3       1 1RC901      0.0000 
      6 C8         29.7770   -1.4390   16.2950 C.3       1 1RC901      0.0000 
      7 C10        30.7520   -0.5810   19.0820 C.ar      1 1RC901      0.0000 
      8 C13        31.6090    2.0860   19.5000 C.ar      1 1RC901      0.0000 
      9 C15        29.8390    0.3940   19.5980 C.ar      1 1RC901      0.0000 
     10 C17        33.5040   -1.9240   15.2920 C.3       1 1RC901      0.0000 
     11 C1         28.1280   -3.0900   13.1960 C.ar      1 1RC901      0.0000 
     12 C2         27.8630   -4.3700   13.7870 C.ar      1 1RC901      0.0000 
     13 C3         28.2240   -4.6370   15.1370 C.ar      1 1RC901      0.0000 
     14 C9         30.2850   -1.9720   18.8450 C.2       1 1RC901      0.0000 
     15 C11        32.0920   -0.2200   18.7890 C.ar      1 1RC901      0.0000 
     16 C12        32.5160    1.1130   18.9980 C.ar      1 1RC901      0.0000 
     17 C14        30.2730    1.7310   19.8050 C.ar      1 1RC901      0.0000 
     18 O1         28.5470    0.0430   19.8890 O.3       1 1RC901      0.0000 
     19 O2         32.0280    3.3700   19.6900 O.3       1 1RC901      0.0000 
     20 CL1        34.1370    1.5170   18.6310 Cl        1 1RC901      0.0000 
     21 O3         30.2800   -2.7380   19.8090 O.2       1 1RC901      0.0000 
     22 C16        31.1630   -1.0670   15.6900 C.2       1 1RC901      0.0000 
     23 N2         32.1440   -2.0570   15.8070 N.am      1 1RC901      0.0000 
     24 C18        34.5160   -1.4390   16.3190 C.3       1 1RC901      0.0000 
     25 O4         31.3390    0.0300   15.1440 O.2       1 1RC901      0.0000 
     26 H          28.9460   -1.1650   13.5412 H         1 1RC901      0.0000 
     27 H          28.4764   -3.8586   17.9420 H         1 1RC901      0.0000 
     28 H          30.0744   -4.4009   17.4015 H         1 1RC901      0.0000 
     29 H          29.1938   -0.5968   16.4505 H         1 1RC901      0.0000 
     30 H          33.5245   -1.2195   14.4320 H         1 1RC901      0.0000 
     31 H          33.8625   -2.8973   14.8912 H         1 1RC901      0.0000 
     32 H          27.8616   -2.9207   12.2274 H         1 1RC901      0.0000 
     33 H          27.4098   -5.0945   13.2280 H         1 1RC901      0.0000 
     34 H          28.0353   -5.5424   15.5436 H         1 1RC901      0.0000 
     35 H          32.7412   -0.9153   18.4316 H         1 1RC901      0.0000 
     36 H          29.6274    2.4254   20.1693 H         1 1RC901      0.0000 
     37 H          31.9142   -2.9555   16.2881 H         1 1RC901      0.0000 
     38 H          35.4331   -1.3604   15.9282 H         1 1RC901      0.0000 
     39 H          34.2742   -0.5394   16.6826 H         1 1RC901      0.0000 
     40 H          34.5819   -2.0621   17.0984 H         1 1RC901      0.0000 
     41 H          28.2209    0.7520   20.5143 H         1 1RC901      0.0000 
     42 H          31.2953    3.8066   20.2121 H         1 1RC901      0.0000 
@<TRIPOS>BOND
     1    5    1 1    
     2    6    1 1    
     3   14    1 am   
     4    3    2 ar   
     5   11    2 ar   
     6   26    2 1    
     7    4    3 ar   
     8    6    3 1    
     9    5    4 1    
    10   13    4 ar   
    11   27    5 1    
    12   28    5 1    
    13   22    6 1    
    14   29    6 1    
    15    9    7 ar   
    16   14    7 1    
    17   15    7 ar   
    18   16    8 ar   
    19   17    8 ar   
    20   19    8 1    
    21   17    9 ar   
    22   18    9 1    
    23   23   10 1    
    24   24   10 1    
    25   30   10 1    
    26   31   10 1    
    27   12   11 ar   
    28   32   11 1    
    29   13   12 ar   
    30   33   12 1    
    31   34   13 1    
    32   21   14 2    
    33   16   15 ar   
    34   35   15 1    
    35   20   16 1    
    36   36   17 1    
    37   41   18 1    
    38   42   19 1    
    39   23   22 am   
    40   25   22 2    
    41   37   23 1    
    42   38   24 1    
    43   39   24 1    
    44   40   24 1    
@<TRIPOS>SUBSTRUCTURE
     1 1RC901      1 GROUP   
@<TRIPOS>SET

