#    Name: 1s9q_OHT_1_INTS_M
#    Modification time : Tue Mar 25 02:09:37 2014

@<TRIPOS>MOLECULE
1s9q_OHT_1_INTS_M
  100     0    12     0     0
SMALL
NO_CHARGES


@<TRIPOS>ATOM
      1 CA         16.8710   38.5860   24.8865 C.3       4 GLC5        0.0000 
      2 CA         16.2500   39.2730   26.4460 C.3      12 GLL5        0.0000 
      3 CA         17.4920   37.8990   23.3270 C.3       8 GLP5        0.0000 
      4 CA         14.5215   39.5765   27.3035 C.3       4 GLC5        0.0000 
      5 CA         12.7930   39.8800   28.1610 C.3       8 GLP5        0.0000 
      6 CA         15.0795   39.9170   24.9250 C.3       4 GLC5        0.0000 
      7 CA         13.9090   40.5610   23.4040 C.3       8 GLP5        0.0000 
      8 CA         18.4310   37.2135   27.4825 C.3       4 GLC5        0.0000 
      9 CA         17.5730   38.8900   27.0630 C.3      12 GLL5        0.0000 
     10 CA         19.2890   35.5370   27.9020 C.3       8 GLP5        0.0000 
     11 CA         17.9950   38.8985   25.2745 C.3       4 GLC5        0.0000 
     12 CA         18.4170   38.9070   23.4860 C.3       8 GLP5        0.0000 
     13 CA         16.6415   36.9305   27.6035 C.3       4 GLC5        0.0000 
     14 CA         15.7100   34.9710   28.1440 C.3       8 GLP5        0.0000 
     15 CA         16.4795   42.8980   29.8430 C.3       4 GLC5        0.0000 
     16 CA         16.2690   40.8410   29.8360 C.3      12 GLL5        0.0000 
     17 CA         16.6900   44.9550   29.8500 C.3       8 GLP5        0.0000 
     18 CA         14.8500   42.2850   29.1370 C.3       4 GLC5        0.0000 
     19 CA         13.4310   43.7290   28.4380 C.3       8 GLP5        0.0000 
     20 CA         13.8765   42.1385   30.3000 C.3       4 GLC5        0.0000 
     21 CA         15.3440   40.7590   31.0500 C.3      12 GLL5        0.0000 
     22 CA         12.4090   43.5180   29.5500 C.3       8 GLP5        0.0000 
     23 CA         15.5780   41.5105   32.6200 C.3       4 GLC5        0.0000 
     24 CA         15.8120   42.2620   34.1900 C.3       8 GLP5        0.0000 
     25 CA         15.0235   40.3245   33.2700 C.3       4 GLC5        0.0000 
     26 CA         15.2340   39.4010   31.7930 C.3      12 GLL5        0.0000 
     27 CA         14.8130   41.2480   34.7470 C.3       8 GLP5        0.0000 
     28 CA         18.0930   37.0020   28.9970 C.3       4 GLC5        0.0000 
     29 CA         16.8970   38.4670   30.0920 C.3      12 GLL5        0.0000 
     30 CA         21.0375   38.6540   26.5220 C.3       4 GLC5        0.0000 
     31 CA         21.1150   40.7520   26.7410 C.3      12 GLL5        0.0000 
     32 CA         20.9600   36.5560   26.3030 C.3       8 GLP5        0.0000 
     33 CA         23.2790   39.9495   24.9480 C.3       4 GLC5        0.0000 
     34 CA         21.8420   41.1070   25.5910 C.3      12 GLL5        0.0000 
     35 CA         24.7160   38.7920   24.3050 C.3       8 GLP5        0.0000 
     36 N          22.1140   41.8260   21.8150 N.am      2 SEC2        0.0000 
     37 N          21.8010   42.2260   23.3740 N.am     10 SEL2        0.0000 
     38 N          22.4270   41.4260   20.2560 N.am      6 SEP2        0.0000 
     39 O          23.1180   42.2925   23.6970 O.2       1 ALC1        0.0000 
     40 O          21.8010   42.2260   23.3740 O.2       9 ALL1        0.0000 
     41 O          24.4350   42.3590   24.0200 O.2       5 ALP1        0.0000 
     42 CA         18.6510   42.1220   22.7060 C.3       4 GLC5        0.0000 
     43 CA         19.7200   42.2140   24.6390 C.3      12 GLL5        0.0000 
     44 CA         17.5820   42.0300   20.7730 C.3       8 GLP5        0.0000 
     45 CA         20.5725   38.7185   29.7050 C.3       4 GLC5        0.0000 
     46 CA         19.9590   40.4890   30.6490 C.3      12 GLL5        0.0000 
     47 CA         21.1860   36.9480   28.7610 C.3       8 GLP5        0.0000 
     48 CA         21.7800   39.8385   31.2320 C.3       4 GLC5        0.0000 
     49 CA         23.6010   39.1880   31.8150 C.3       8 GLP5        0.0000 
     50 CA         21.1845   39.9625   32.8130 C.3       4 GLC5        0.0000 
     51 CA         20.5390   41.2270   31.6840 C.3      12 GLL5        0.0000 
     52 CA         21.8300   38.6980   33.9420 C.3       8 GLP5        0.0000 
     53 CA         22.2110   40.8965   31.7115 C.3       4 GLC5        0.0000 
     54 CA         20.8210   42.6050   31.6080 C.3      12 GLL5        0.0000 
     55 CA         22.5540   43.6000   30.8490 C.3       4 GLC5        0.0000 
     56 CA         21.7170   44.6720   32.5660 C.3      12 GLL5        0.0000 
     57 CA         23.3910   42.5280   29.1320 C.3       8 GLP5        0.0000 
     58 CA         22.8370   45.9115   31.4730 C.3       4 GLC5        0.0000 
     59 CA         23.9570   47.1510   30.3800 C.3       8 GLP5        0.0000 
     60 CA         20.4625   44.1175   35.1420 C.3       4 GLC5        0.0000 
     61 CA         22.0740   45.1320   33.9930 C.3      12 GLL5        0.0000 
     62 CA         18.8510   43.1030   36.2910 C.3       8 GLP5        0.0000 
     63 OD1        24.5785   44.5005   33.6980 O.co2     3 ASC3        0.0000 
     64 OD1        23.3940   44.7630   34.4020 O.co2    11 ASL3        0.0000 
     65 OD1        25.7630   44.2380   32.9940 O.co2     7 ASP3        0.0000 
     66 O          24.5785   44.5005   33.6980 O.2       1 ALC1        0.0000 
     67 O          23.3940   44.7630   34.4020 O.2       9 ALL1        0.0000 
     68 O          25.7630   44.2380   32.9940 O.2       5 ALP1        0.0000 
     69 CA         21.4910   42.8805   35.7800 C.3       4 GLC5        0.0000 
     70 CA         23.3270   43.7710   35.4770 C.3      12 GLL5        0.0000 
     71 CA         19.6550   41.9900   36.0830 C.3       8 GLP5        0.0000 
     72 CA         19.8295   38.6088   28.4685 C.3       4 GLC5        0.0000 
     73 CA         19.0170   40.7070   28.1490 C.3      12 GLL5        0.0000 
     74 CA         14.7180   40.0750   28.8875 C.3       4 GLC5        0.0000 
     75 CA         17.0170   39.6990   29.3920 C.3      12 GLL5        0.0000 
     76 CA         14.0410   39.9800   29.7912 C.3       4 GLC5        0.0000 
     77 CA         15.1983   37.8010   32.9175 C.3       4 GLC5        0.0000 
     78 CA         14.7440   36.7720   34.3220 C.3       8 GLP5        0.0000 
     79 CA         16.8440   36.4115   31.2712 C.3       4 GLC5        0.0000 
     80 CA         16.0710   38.2590   31.2330 C.3      12 GLL5        0.0000 
     81 CA         17.2040   34.4600   31.8800 C.3       8 GLP5        0.0000 
     82 CA         15.1665   37.0175   30.1722 C.3       4 GLC5        0.0000 
     83 CA         13.8490   35.6720   29.6820 C.3       8 GLP5        0.0000 
     84 CA         13.9215   38.5753   31.6311 C.3       4 GLC5        0.0000 
     85 CA         12.1630   37.9810   31.9350 C.3       8 GLP5        0.0000 
     86 CA         22.4348   41.7287   27.6490 C.3       4 GLC5        0.0000 
     87 CA         20.0925   43.9705   25.0862 C.3       4 GLC5        0.0000 
     88 CA         21.1020   41.8800   24.4850 C.3      12 GLL5        0.0000 
     89 CA         20.4520   46.0010   24.9860 C.3       8 GLP5        0.0000 
     90 CA         21.5935   41.7212   29.5690 C.3       4 GLC5        0.0000 
     91 CA         19.6330   41.3400   29.3630 C.3      12 GLL5        0.0000 
     92 CA         22.0355   42.2220   30.3890 C.3       4 GLC5        0.0000 
     93 CA         20.7368   46.0220   32.1797 C.3       4 GLC5        0.0000 
     94 CA         19.5780   47.1420   31.0800 C.3       8 GLP5        0.0000 
     95 CA         21.8077   42.7818   29.5162 C.3       4 GLC5        0.0000 
     96 CA         20.5110   43.3440   30.4360 C.3      12 GLL5        0.0000 
     97 CA         18.4573   43.9952   29.8753 C.3       4 GLC5        0.0000 
     98 CA         20.8087   44.4297   28.5973 C.3       4 GLC5        0.0000 
     99 CA         19.9380   42.7270   29.3650 C.3      12 GLL5        0.0000 
    100 CA         21.3930   45.8240   27.2940 C.3       8 GLP5        0.0000 
@<TRIPOS>BOND
@<TRIPOS>SUBSTRUCTURE
     1 ALC1       39 GROUP        1 X    ALC  0     ROOT ALC X 1
     2 SEC2       36 GROUP        1 X    SEC  0     **** SEC X 2
     3 ASC3       63 GROUP        1 X    ASC  0     **** ASC X 3
     4 GLC5        1 GROUP        1 X    GLC  0     **** GLC X 6
     5 ALP1       41 GROUP        1 Y    ALP  0     ROOT ALP Y 8
     6 SEP2       38 GROUP        1 Y    SEP  0     **** SEP Y 9
     7 ASP3       65 GROUP        1 Y    ASP  0     **** ASP Y 10
     8 GLP5        3 GROUP        1 Y    GLP  0     **** GLP Y 13
     9 ALL1       40 GROUP        1 Z    ALL  0     ROOT ALL Z 15
    10 SEL2       37 GROUP        1 Z    SEL  0     **** SEL Z 16
    11 ASL3       64 GROUP        1 Z    ASL  0     **** ASL Z 17
    12 GLL5        2 GROUP        1 Z    GLL  0     **** GLL Z 20
@<TRIPOS>SET

