#    Name: 1s9q_OHT_1_ligand
#    Modification time : Tue Mar 25 02:09:37 2014

@<TRIPOS>MOLECULE
1s9q_OHT_1_ligand
   59    61     1     0     0
SMALL
NO_CHARGES


@<TRIPOS>ATOM
      1 C10        16.2500   39.2730   26.4460 C.3       1 OHT200      0.0000 
      2 C9         17.5730   38.8900   27.0630 C.3       1 OHT200      0.0000 
      3 C8         17.9290   39.8320   28.2030 C.2       1 OHT200      0.0000 
      4 C11        17.0170   39.6990   29.3920 C.ar      1 OHT200      0.0000 
      5 C16        16.2690   40.8410   29.8360 C.ar      1 OHT200      0.0000 
      6 C15        15.3440   40.7590   31.0500 C.ar      1 OHT200      0.0000 
      7 C14        15.2340   39.4010   31.7930 C.ar      1 OHT200      0.0000 
      8 C13        16.0710   38.2590   31.2330 C.ar      1 OHT200      0.0000 
      9 C12        16.8970   38.4670   30.0920 C.ar      1 OHT200      0.0000 
     10 C7         19.0170   40.7070   28.1490 C.2       1 OHT200      0.0000 
     11 C1         19.7120   41.1200   26.8510 C.ar      1 OHT200      0.0000 
     12 C2         21.1150   40.7520   26.7410 C.ar      1 OHT200      0.0000 
     13 C3         21.8420   41.1070   25.5910 C.ar      1 OHT200      0.0000 
     14 C4         21.1020   41.8800   24.4850 C.ar      1 OHT200      0.0000 
     15 O4         21.8010   42.2260   23.3740 O.3       1 OHT200      0.0000 
     16 C5         19.7200   42.2140   24.6390 C.ar      1 OHT200      0.0000 
     17 C6         19.0550   41.8330   25.8110 C.ar      1 OHT200      0.0000 
     18 C17        19.6330   41.3400   29.3630 C.ar      1 OHT200      0.0000 
     19 C18        19.9590   40.4890   30.6490 C.ar      1 OHT200      0.0000 
     20 C19        20.5390   41.2270   31.6840 C.ar      1 OHT200      0.0000 
     21 C20        20.8210   42.6050   31.6080 C.ar      1 OHT200      0.0000 
     22 O20        21.4010   43.2800   32.6550 O.3       1 OHT200      0.0000 
     23 C23        21.7170   44.6720   32.5660 C.3       1 OHT200      0.0000 
     24 C24        22.0740   45.1320   33.9930 C.3       1 OHT200      0.0000 
     25 N24        23.3940   44.7630   34.4020 N.4       1 OHT200      0.0000 
     26 C25        24.1240   45.9170   34.9010 C.3       1 OHT200      0.0000 
     27 C26        23.3270   43.7710   35.4770 C.3       1 OHT200      0.0000 
     28 C21        20.5110   43.3440   30.4360 C.ar      1 OHT200      0.0000 
     29 C22        19.9380   42.7270   29.3650 C.ar      1 OHT200      0.0000 
     30 H          18.3569   38.9335   26.3050 H         1 OHT200      0.0000 
     31 H          17.5166   37.8699   27.4464 H         1 OHT200      0.0000 
     32 H          16.3277   41.7302   29.3655 H         1 OHT200      0.0000 
     33 H          14.8397   41.5218   31.3533 H         1 OHT200      0.0000 
     34 H          14.6723   39.3017   32.5530 H         1 OHT200      0.0000 
     35 H          16.0106   37.3728   31.7003 H         1 OHT200      0.0000 
     36 H          17.4590   37.6495   29.7420 H         1 OHT200      0.0000 
     37 H          21.5474   40.2415   27.5025 H         1 OHT200      0.0000 
     38 H          22.7938   40.8967   25.4402 H         1 OHT200      0.0000 
     39 H          19.2409   42.7194   23.9028 H         1 OHT200      0.0000 
     40 H          18.0552   42.0733   25.9325 H         1 OHT200      0.0000 
     41 H          19.7454   39.5586   30.6342 H         1 OHT200      0.0000 
     42 H          20.7820   40.7263   32.5780 H         1 OHT200      0.0000 
     43 H          20.8757   45.2627   32.2300 H         1 OHT200      0.0000 
     44 H          22.5755   44.8580   31.9352 H         1 OHT200      0.0000 
     45 H          21.3046   44.7085   34.6738 H         1 OHT200      0.0000 
     46 H          21.9319   46.2336   34.0253 H         1 OHT200      0.0000 
     47 H          23.9413   44.3308   33.5678 H         1 OHT200      0.0000 
     48 H          20.7305   44.3510   30.4205 H         1 OHT200      0.0000 
     49 H          19.7057   43.2713   28.5046 H         1 OHT200      0.0000 
     50 H          16.2688   40.2007   26.0732 H         1 OHT200      0.0000 
     51 H          15.9988   38.6608   25.6962 H         1 OHT200      0.0000 
     52 H          15.5057   39.2402   27.1131 H         1 OHT200      0.0000 
     53 H          25.0498   45.6740   35.1906 H         1 OHT200      0.0000 
     54 H          24.2121   46.6299   34.2053 H         1 OHT200      0.0000 
     55 H          23.6695   46.3314   35.6895 H         1 OHT200      0.0000 
     56 H          24.2375   43.4969   35.7867 H         1 OHT200      0.0000 
     57 H          22.8389   44.1218   36.2762 H         1 OHT200      0.0000 
     58 H          22.8537   42.9395   35.1861 H         1 OHT200      0.0000 
     59 H          22.7502   42.3029   23.6791 H         1 OHT200      0.0000 
@<TRIPOS>BOND
     1    2    1 1    
     2   50    1 1    
     3   51    1 1    
     4   52    1 1    
     5    3    2 1    
     6   30    2 1    
     7   31    2 1    
     8    4    3 1    
     9   10    3 2    
    10    5    4 ar   
    11    9    4 ar   
    12    6    5 ar   
    13   32    5 1    
    14    7    6 ar   
    15   33    6 1    
    16    8    7 ar   
    17   34    7 1    
    18    9    8 ar   
    19   35    8 1    
    20   36    9 1    
    21   11   10 1    
    22   18   10 1    
    23   12   11 ar   
    24   17   11 ar   
    25   13   12 ar   
    26   37   12 1    
    27   14   13 ar   
    28   38   13 1    
    29   15   14 1    
    30   16   14 ar   
    31   59   15 1    
    32   17   16 ar   
    33   39   16 1    
    34   40   17 1    
    35   19   18 ar   
    36   29   18 ar   
    37   20   19 ar   
    38   41   19 1    
    39   21   20 ar   
    40   42   20 1    
    41   22   21 1    
    42   28   21 ar   
    43   23   22 1    
    44   24   23 1    
    45   43   23 1    
    46   44   23 1    
    47   25   24 1    
    48   45   24 1    
    49   46   24 1    
    50   26   25 1    
    51   27   25 1    
    52   47   25 1    
    53   53   26 1    
    54   54   26 1    
    55   55   26 1    
    56   56   27 1    
    57   57   27 1    
    58   58   27 1    
    59   29   28 ar   
    60   48   28 1    
    61   49   29 1    
@<TRIPOS>SUBSTRUCTURE
     1 OHT200      1 GROUP   
@<TRIPOS>SET

