#    Name: 3s3t_ATP_3_INTS_M
#    Modification time : Mon Apr  7 22:02:55 2014

@<TRIPOS>MOLECULE
3s3t_ATP_3_INTS_M
   95     0    12     0     0
SMALL
NO_CHARGES


@<TRIPOS>ATOM
      1 NZ          6.4205   -6.6330    7.2330 N.4       3 LYC4        0.0000 
      2 NZ          6.9190   -8.1050    7.4940 N.4      11 LYL4        0.0000 
      3 NZ          5.9220   -5.1610    6.9720 N.4       7 LYP4        0.0000 
      4 N           6.4205   -6.6330    7.2330 N.am      2 SEC2        0.0000 
      5 N           6.9190   -8.1050    7.4940 N.am     10 SEL2        0.0000 
      6 N           5.9220   -5.1610    6.9720 N.am      6 SEP2        0.0000 
      7 N           5.9655   -8.4755    8.1970 N.am      2 SEC2        0.0000 
      8 N           5.0120   -8.8460    8.9000 N.am      6 SEP2        0.0000 
      9 NZ          6.1780   -6.1715    6.0720 N.4       3 LYC4        0.0000 
     10 NZ          6.4340   -7.1820    5.1720 N.4      11 LYL4        0.0000 
     11 N           6.1780   -6.1715    6.0720 N.am      2 SEC2        0.0000 
     12 N           6.4340   -7.1820    5.1720 N.am     10 SEL2        0.0000 
     13 N           5.8165   -7.0020    3.9535 N.am      2 SEC2        0.0000 
     14 N           5.1990   -6.8220    2.7350 N.am      6 SEP2        0.0000 
     15 N           6.9665   -6.2420    4.4465 N.am      2 SEC2        0.0000 
     16 N           7.4990   -5.3020    3.7210 N.am      6 SEP2        0.0000 
     17 N           7.9980  -12.2235    6.9825 N.am      2 SEC2        0.0000 
     18 N           7.9900  -11.3870    5.7410 N.am     10 SEL2        0.0000 
     19 N           8.0060  -13.0600    8.2240 N.am      6 SEP2        0.0000 
     20 N           9.3225  -12.0025    5.2115 N.am      2 SEC2        0.0000 
     21 N          10.6550  -12.6180    4.6820 N.am      6 SEP2        0.0000 
     22 N           5.6160  -13.0105    4.9910 N.am      2 SEC2        0.0000 
     23 N           5.6210  -11.9100    5.9630 N.am     10 SEL2        0.0000 
     24 N           5.6110  -14.1110    4.0190 N.am      6 SEP2        0.0000 
     25 N           6.8135  -12.4850    7.0935 N.am      2 SEC2        0.0000 
     26 N           5.5370  -11.8430    7.3535 N.am      2 SEC2        0.0000 
     27 N           5.4530  -11.7760    8.7440 N.am      6 SEP2        0.0000 
     28 N           6.9575   -8.3325    1.3265 N.am      2 SEC2        0.0000 
     29 N           6.5890   -9.6380    1.7330 N.am     10 SEL2        0.0000 
     30 N           7.3260   -7.0270    0.9200 N.am      6 SEP2        0.0000 
     31 N           6.4755   -9.0470    0.2225 N.am      2 SEC2        0.0000 
     32 N           6.3620   -8.4560   -1.2880 N.am      6 SEP2        0.0000 
     33 N           9.3220   -9.3790    2.1510 N.am      2 SEC2        0.0000 
     34 N           8.7300  -10.3690    3.0200 N.am     10 SEL2        0.0000 
     35 N           9.9140   -8.3890    1.2820 N.am      6 SEP2        0.0000 
     36 CA          5.0430  -12.9910    1.7690 C.3       4 GLC5        0.0000 
     37 CA          6.5390  -12.3930    0.6780 C.3      12 GLL5        0.0000 
     38 CA          3.5470  -13.5890    2.8600 C.3       8 GLP5        0.0000 
     39 CA          6.7565  -13.4980    2.4135 C.3       4 GLC5        0.0000 
     40 CA          6.9740  -14.6030    4.1490 C.3       8 GLP5        0.0000 
     41 CA          5.4415  -11.0470   -0.6435 C.3       4 GLC5        0.0000 
     42 CA          4.3440   -9.7010   -1.9650 C.3       8 GLP5        0.0000 
     43 CA          7.4970  -14.4965    2.0760 C.3       4 GLC5        0.0000 
     44 CA          8.0200  -14.3900    0.0030 C.3      12 GLL5        0.0000 
     45 O           6.1660  -15.3125    1.0440 O.2       1 ALC1        0.0000 
     46 O           7.1110  -15.4870    0.0390 O.2       9 ALL1        0.0000 
     47 O           5.2210  -15.1380    2.0490 O.2       5 ALP1        0.0000 
     48 CA         10.6660  -15.8105   -1.5455 C.3       4 GLC5        0.0000 
     49 CA          9.0820  -14.5090   -1.0700 C.3      12 GLL5        0.0000 
     50 CA         12.2500  -17.1120   -2.0210 C.3       8 GLP5        0.0000 
     51 N           6.9650  -15.3425   -2.6210 N.am      2 SEC2        0.0000 
     52 N           8.4920  -15.0900   -2.2740 N.am     10 SEL2        0.0000 
     53 N           5.4380  -15.5950   -2.9680 N.am      6 SEP2        0.0000 
     54 O           9.5020  -15.4265   -3.0130 O.2       1 ALC1        0.0000 
     55 O           8.4920  -15.0900   -2.2740 O.2       9 ALL1        0.0000 
     56 O          10.5120  -15.7630   -3.7520 O.2       5 ALP1        0.0000 
     57 CA          8.8950  -12.6250   -3.0635 C.3       4 GLC5        0.0000 
     58 CA          9.5390  -13.0310   -1.2430 C.3      12 GLL5        0.0000 
     59 CA          8.2510  -12.2190   -4.8840 C.3       8 GLP5        0.0000 
     60 CA          9.8440  -10.9910   -1.1625 C.3       4 GLC5        0.0000 
     61 CA         10.1490   -8.9510   -1.0820 C.3       8 GLP5        0.0000 
     62 CA         15.8415  -11.8425   -0.3965 C.3       4 GLC5        0.0000 
     63 CA         14.1380  -12.5750    0.3660 C.3      12 GLL5        0.0000 
     64 CA         17.5450  -11.1100   -1.1590 C.3       8 GLP5        0.0000 
     65 O          16.3225  -12.3555    1.4680 O.2       1 ALC1        0.0000 
     66 O          14.9130  -12.2280    1.3840 O.2       9 ALL1        0.0000 
     67 O          17.7320  -12.4830    1.5520 O.2       5 ALP1        0.0000 
     68 N          16.0715  -13.2970   -0.9765 N.am      2 SEC2        0.0000 
     69 N          14.6650  -13.0400   -0.7770 N.am     10 SEL2        0.0000 
     70 N          17.4780  -13.5540   -1.1760 N.am      6 SEP2        0.0000 
     71 CA         12.9790  -13.4395   -3.4000 C.3       4 GLC5        0.0000 
     72 CA         13.9120  -13.4480   -1.8080 C.3      12 GLL5        0.0000 
     73 CA         12.0460  -13.4310   -4.9920 C.3       8 GLP5        0.0000 
     74 CA         13.0810  -15.2800   -1.9145 C.3       4 GLC5        0.0000 
     75 CA         15.5760  -14.6365   -1.9350 C.3       4 GLC5        0.0000 
     76 CA         17.2400  -15.8250   -2.0620 C.3       8 GLP5        0.0000 
     77 CA         15.5490  -12.2925   -2.2345 C.3       4 GLC5        0.0000 
     78 CA         17.1860  -11.1370   -2.6610 C.3       8 GLP5        0.0000 
     79 CA         13.1065  -11.7975   -2.8160 C.3       4 GLC5        0.0000 
     80 CA         12.3010  -10.1470   -3.8240 C.3       8 GLP5        0.0000 
     81 CA         11.9890  -13.1655   -2.8180 C.3       4 GLC5        0.0000 
     82 CA         11.9320  -12.9000   -0.6440 C.3      12 GLL5        0.0000 
     83 CA         12.0910  -15.0060   -1.3325 C.3       4 GLC5        0.0000 
     84 CA         12.1165  -11.5235   -2.2340 C.3       4 GLC5        0.0000 
     85 CA         11.0405  -10.9255   -0.8630 C.3       4 GLC5        0.0000 
     86 CA          6.0637  -14.8095   -1.0828 C.3       4 GLC5        0.0000 
     87 CA          7.3470  -13.1040   -0.4300 C.3      12 GLL5        0.0000 
     88 CA          4.4440  -15.8720   -1.9520 C.3       8 GLP5        0.0000 
     89 CA          8.8450  -16.3633   -0.2373 C.3       4 GLC5        0.0000 
     90 CA          9.1390  -18.2770    0.0590 C.3       8 GLP5        0.0000 
     91 CA         14.0160  -10.6440    0.4748 C.3       4 GLC5        0.0000 
     92 CA         12.6780  -12.4450    0.5050 C.3      12 GLL5        0.0000 
     93 CA         14.6240   -8.7780    0.5140 C.3       8 GLP5        0.0000 
     94 CA         12.4420  -14.0490    1.2109 C.3       4 GLC5        0.0000 
     95 CA         12.2140  -15.3930    2.5260 C.3       8 GLP5        0.0000 
@<TRIPOS>BOND
@<TRIPOS>SUBSTRUCTURE
     1 ALC1       45 GROUP        1 X    ALC  0     ROOT ALC X 1
     2 SEC2        4 GROUP        1 X    SEC  0     **** SEC X 2
     3 LYC4        1 GROUP        1 X    LYC  0     **** LYC X 4
     4 GLC5       36 GROUP        1 X    GLC  0     **** GLC X 6
     5 ALP1       47 GROUP        1 Y    ALP  0     ROOT ALP Y 8
     6 SEP2        6 GROUP        1 Y    SEP  0     **** SEP Y 9
     7 LYP4        3 GROUP        1 Y    LYP  0     **** LYP Y 11
     8 GLP5       38 GROUP        1 Y    GLP  0     **** GLP Y 13
     9 ALL1       46 GROUP        1 Z    ALL  0     ROOT ALL Z 15
    10 SEL2        5 GROUP        1 Z    SEL  0     **** SEL Z 16
    11 LYL4        2 GROUP        1 Z    LYL  0     **** LYL Z 18
    12 GLL5       37 GROUP        1 Z    GLL  0     **** GLL Z 20
@<TRIPOS>SET

