#    Name: 3s3t_ATP_3_ligand
#    Modification time : Mon Apr  7 22:02:55 2014

@<TRIPOS>MOLECULE
3s3t_ATP_3_ligand
   43    45     1     0     0
SMALL
NO_CHARGES


@<TRIPOS>ATOM
      1 PG          7.1300   -8.2330    6.0110 P.3       1 ATP501      0.0000 
      2 O1G         8.5850   -8.4850    5.6330 O.co2     1 ATP501      0.0000 
      3 O2G         6.9190   -8.1050    7.4940 O.co2     1 ATP501      0.0000 
      4 O3G         6.4340   -7.1820    5.1720 O.co2     1 ATP501      0.0000 
      5 PB          6.5980  -11.0370    5.2880 P.3       1 ATP501      0.0000 
      6 O1B         7.9900  -11.3870    5.7410 O.co2     1 ATP501      0.0000 
      7 O2B         5.6210  -11.9100    5.9630 O.co2     1 ATP501      0.0000 
      8 O3B         6.1900   -9.5100    5.6230 O.3       1 ATP501      0.0000 
      9 PA          7.3160  -10.6650    2.5240 P.3       1 ATP501      0.0000 
     10 O1A         6.5890   -9.6380    1.7330 O.co2     1 ATP501      0.0000 
     11 O2A         8.7300  -10.3690    3.0200 O.co2     1 ATP501      0.0000 
     12 O3A         6.3310  -11.1100    3.7120 O.3       1 ATP501      0.0000 
     13 O5'         7.4010  -12.0670    1.7920 O.3       1 ATP501      0.0000 
     14 C5'         6.5390  -12.3930    0.6780 C.3       1 ATP501      0.0000 
     15 C4'         7.3470  -13.1040   -0.4300 C.3       1 ATP501      0.0000 
     16 O4'         8.3750  -12.2640   -0.9030 O.3       1 ATP501      0.0000 
     17 C3'         8.0200  -14.3900    0.0030 C.3       1 ATP501      0.0000 
     18 O3'         7.1110  -15.4870    0.0390 O.3       1 ATP501      0.0000 
     19 C2'         9.0820  -14.5090   -1.0700 C.3       1 ATP501      0.0000 
     20 O2'         8.4920  -15.0900   -2.2740 O.3       1 ATP501      0.0000 
     21 C1'         9.5390  -13.0310   -1.2430 C.3       1 ATP501      0.0000 
     22 N9         10.6580  -12.6930   -0.3510 N.pl3     1 ATP501      0.0000 
     23 C8         10.5760  -12.1830    0.9180 C.2       1 ATP501      0.0000 
     24 N7         11.8140  -11.9880    1.4610 N.2       1 ATP501      0.0000 
     25 C5         12.6780  -12.4450    0.5050 C.ar      1 ATP501      0.0000 
     26 C6         14.1380  -12.5750    0.3660 C.ar      1 ATP501      0.0000 
     27 N6         14.9130  -12.2280    1.3840 N.pl3     1 ATP501      0.0000 
     28 N1         14.6650  -13.0400   -0.7770 N.ar      1 ATP501      0.0000 
     29 C2         13.9120  -13.4480   -1.8080 C.ar      1 ATP501      0.0000 
     30 N3         12.5720  -13.3640   -1.7510 N.ar      1 ATP501      0.0000 
     31 C4         11.9320  -12.9000   -0.6440 C.ar      1 ATP501      0.0000 
     32 H           6.0933  -11.4959    0.2384 H         1 ATP501      0.0000 
     33 H           5.7291  -13.0640    0.9790 H         1 ATP501      0.0000 
     34 H           6.6607  -13.3448   -1.2449 H         1 ATP501      0.0000 
     35 H           8.5127  -14.1951    0.9289 H         1 ATP501      0.0000 
     36 H           9.8895  -15.0627   -0.6813 H         1 ATP501      0.0000 
     37 H           9.7937  -12.8965   -2.2686 H         1 ATP501      0.0000 
     38 H           9.7343  -11.9840    1.3762 H         1 ATP501      0.0000 
     39 H          15.8970  -12.3419    1.2467 H         1 ATP501      0.0000 
     40 H          14.4435  -11.8837    2.1971 H         1 ATP501      0.0000 
     41 H          14.3708  -13.8362   -2.6669 H         1 ATP501      0.0000 
     42 H           6.8460  -15.5720    0.9995 H         1 ATP501      0.0000 
     43 H           9.1396  -15.7939   -2.5657 H         1 ATP501      0.0000 
@<TRIPOS>BOND
     1    2    1 ar   
     2    3    1 ar   
     3    4    1 ar   
     4    8    1 1    
     5    6    5 ar   
     6    7    5 ar   
     7    8    5 1    
     8   12    5 1    
     9   10    9 ar   
    10   11    9 ar   
    11   12    9 1    
    12   13    9 1    
    13   14   13 1    
    14   15   14 1    
    15   32   14 1    
    16   33   14 1    
    17   16   15 1    
    18   17   15 1    
    19   34   15 1    
    20   21   16 1    
    21   18   17 1    
    22   19   17 1    
    23   35   17 1    
    24   42   18 1    
    25   20   19 1    
    26   21   19 1    
    27   36   19 1    
    28   43   20 1    
    29   22   21 1    
    30   37   21 1    
    31   23   22 1    
    32   31   22 1    
    33   24   23 2    
    34   38   23 1    
    35   25   24 1    
    36   26   25 ar   
    37   31   25 ar   
    38   27   26 1    
    39   28   26 ar   
    40   39   27 1    
    41   40   27 1    
    42   29   28 ar   
    43   30   29 ar   
    44   41   29 1    
    45   31   30 ar   
@<TRIPOS>SUBSTRUCTURE
     1 ATP501      1 GROUP   
@<TRIPOS>SET

