#    Name: 1jkl_ANP_1_INTS_M
#    Modification time : Tue Mar 25 09:00:13 2014

@<TRIPOS>MOLECULE
1jkl_ANP_1_INTS_M
   67     0    12     0     0
SMALL
NO_CHARGES


@<TRIPOS>ATOM
      1 N          29.3255   37.7440   10.9390 N.am      2 SEC2        0.0000 
      2 N          29.5090   36.3860   11.2250 N.am     10 SEL2        0.0000 
      3 N          29.1420   39.1020   10.6530 N.am      6 SEP2        0.0000 
      4 NZ         29.1125   31.4355    8.5340 N.4       3 LYC4        0.0000 
      5 NZ         30.0430   32.1460    9.7780 N.4      11 LYL4        0.0000 
      6 NZ         28.1820   30.7250    7.2900 N.4       7 LYP4        0.0000 
      7 N          29.1125   31.4355    8.5340 N.am      2 SEC2        0.0000 
      8 N          30.0430   32.1460    9.7780 N.am     10 SEL2        0.0000 
      9 N          28.1820   30.7250    7.2900 N.am      6 SEP2        0.0000 
     10 N          30.4295   30.7865    9.6515 N.am      2 SEC2        0.0000 
     11 N          30.8160   29.4270    9.5250 N.am      6 SEP2        0.0000 
     12 NZ         27.6900   30.3400    8.4370 N.4       3 LYC4        0.0000 
     13 NZ         27.1980   29.9550    9.5840 N.4      11 LYL4        0.0000 
     14 N          27.6900   30.3400    8.4370 N.am      2 SEC2        0.0000 
     15 N          27.1980   29.9550    9.5840 N.am     10 SEL2        0.0000 
     16 O          25.0460   29.0100   16.2420 O.2       1 ALC1        0.0000 
     17 O          25.9290   29.2390   14.9190 O.2       9 ALL1        0.0000 
     18 O          24.1630   28.7810   17.5650 O.2       5 ALP1        0.0000 
     19 CA         23.7950   27.4780   15.9260 C.3       4 GLC5        0.0000 
     20 CA         23.6320   28.5320   14.0530 C.3      12 GLL5        0.0000 
     21 CA         23.9580   26.4240   17.7990 C.3       8 GLP5        0.0000 
     22 O          23.5865   28.7910   16.4295 O.2       1 ALC1        0.0000 
     23 O          23.0100   28.8010   15.2940 O.2       9 ALL1        0.0000 
     24 CA         20.6505   29.4525   12.8450 C.3       4 GLC5        0.0000 
     25 CA         22.7760   29.1210   12.9260 C.3      12 GLL5        0.0000 
     26 CA         18.5250   29.7840   12.7640 C.3       8 GLP5        0.0000 
     27 CA         22.0435   30.4210   11.4320 C.3       4 GLC5        0.0000 
     28 CA         21.3110   31.7210    9.9380 C.3       8 GLP5        0.0000 
     29 CA         21.3555   23.7820    9.8625 C.3       4 GLC5        0.0000 
     30 CA         21.5760   25.8390    9.5370 C.3      12 GLL5        0.0000 
     31 CA         21.1350   21.7250   10.1880 C.3       8 GLP5        0.0000 
     32 CA         23.4190   24.6790   10.0945 C.3       4 GLC5        0.0000 
     33 CA         25.2620   23.5190   10.6520 C.3       8 GLP5        0.0000 
     34 O          21.1000   24.3970    7.6255 O.2       1 ALC1        0.0000 
     35 O          21.9020   25.2400    8.3880 O.2       9 ALL1        0.0000 
     36 O          20.2980   23.5540    6.8630 O.2       5 ALP1        0.0000 
     37 N          19.4885   24.1120   10.0755 N.am      2 SEC2        0.0000 
     38 N          20.4490   25.4490   10.1730 N.am     10 SEL2        0.0000 
     39 N          18.5280   22.7750    9.9780 N.am      6 SEP2        0.0000 
     40 CA         18.8970   27.1900   11.1235 C.3       4 GLC5        0.0000 
     41 CA         20.1310   26.0400   11.3330 C.3      12 GLL5        0.0000 
     42 CA         17.6630   28.3400   10.9140 C.3       8 GLP5        0.0000 
     43 CA         19.5925   26.7140    9.4505 C.3       4 GLC5        0.0000 
     44 CA         19.0540   27.3880    7.5680 C.3       8 GLP5        0.0000 
     45 CA         18.1445   25.6890   10.4905 C.3       4 GLC5        0.0000 
     46 CA         16.1580   25.3380    9.6480 C.3       8 GLP5        0.0000 
     47 CA         20.2160   23.9380   11.3920 C.3       4 GLC5        0.0000 
     48 CA         20.3010   21.8360   11.4510 C.3       8 GLP5        0.0000 
     49 CA         21.3030   25.7615   12.2230 C.3       4 GLC5        0.0000 
     50 CA         22.4750   25.4830   13.1130 C.3       8 GLP5        0.0000 
     51 CA         19.7760   27.8520   11.1235 C.3       4 GLC5        0.0000 
     52 CA         21.8890   27.3640   11.3330 C.3      12 GLL5        0.0000 
     53 CA         23.2805   31.7898   13.7278 C.3       4 GLC5        0.0000 
     54 CA         24.4530   30.6810   13.4380 C.3      12 GLL5        0.0000 
     55 CA         21.6090   32.4900   14.4120 C.3       8 GLP5        0.0000 
     56 CA         23.8705   31.4322   11.3063 C.3       4 GLC5        0.0000 
     57 CA         22.7890   31.7750    9.5690 C.3       8 GLP5        0.0000 
     58 CA         22.4065   30.6583   13.9508 C.3       4 GLC5        0.0000 
     59 CA         22.8395   27.1547   13.3012 C.3       4 GLC5        0.0000 
     60 CA         24.6770   27.5282   13.0124 C.3       4 GLC5        0.0000 
     61 CA         25.8250   26.0360   12.5780 C.3       8 GLP5        0.0000 
     62 CA         21.3770   28.8100   10.0053 C.3       4 GLC5        0.0000 
     63 CA         20.6370   30.5120    9.2780 C.3       8 GLP5        0.0000 
     64 CA         20.5072   26.8668    8.7012 C.3       4 GLC5        0.0000 
     65 CA         22.3450   26.8520   10.1320 C.3      12 GLL5        0.0000 
     66 CA         23.9710   26.5720   11.6553 C.3       4 GLC5        0.0000 
     67 CA         22.1999   26.1689   11.8484 C.3       4 GLC5        0.0000 
@<TRIPOS>BOND
@<TRIPOS>SUBSTRUCTURE
     1 ALC1       16 GROUP        1 X    ALC  0     ROOT ALC X 1
     2 SEC2        1 GROUP        1 X    SEC  0     **** SEC X 2
     3 LYC4        4 GROUP        1 X    LYC  0     **** LYC X 4
     4 GLC5       19 GROUP        1 X    GLC  0     **** GLC X 6
     5 ALP1       18 GROUP        1 Y    ALP  0     ROOT ALP Y 8
     6 SEP2        3 GROUP        1 Y    SEP  0     **** SEP Y 9
     7 LYP4        6 GROUP        1 Y    LYP  0     **** LYP Y 11
     8 GLP5       21 GROUP        1 Y    GLP  0     **** GLP Y 13
     9 ALL1       17 GROUP        1 Z    ALL  0     ROOT ALL Z 15
    10 SEL2        2 GROUP        1 Z    SEL  0     **** SEL Z 16
    11 LYL4        5 GROUP        1 Z    LYL  0     **** LYL Z 18
    12 GLL5       20 GROUP        1 Z    GLL  0     **** GLL Z 20
@<TRIPOS>SET

