#    Name: 1jkl_ANP_1_ligand
#    Modification time : Tue Mar 25 09:00:14 2014

@<TRIPOS>MOLECULE
1jkl_ANP_1_ligand
   43    45     1     0     0
SMALL
NO_CHARGES


@<TRIPOS>ATOM
      1 PG         29.8480   35.7410    9.8910 P.3       1 ANP300      0.0000 
      2 O1G        31.2970   35.2880    9.8000 O.co2     1 ANP300      0.0000 
      3 O2G        29.4450   36.6040    8.7060 O.co2     1 ANP300      0.0000 
      4 O3G        29.5090   36.3860   11.2250 O.co2     1 ANP300      0.0000 
      5 PB         29.0280   32.9350   10.5320 P.3       1 ANP300      0.0000 
      6 O1B        30.0430   32.1460    9.7780 O.co2     1 ANP300      0.0000 
      7 O2B        29.2230   33.2200   11.9790 O.co2     1 ANP300      0.0000 
      8 N3B        28.9350   34.3880    9.7930 N.4       1 ANP300      0.0000 
      9 PA         27.2560   30.7900   10.8120 P.3       1 ANP300      0.0000 
     10 O1A        27.1980   29.9550    9.5840 O.co2     1 ANP300      0.0000 
     11 O2A        28.1180   30.3870   11.9520 O.co2     1 ANP300      0.0000 
     12 O3A        27.7000   32.1930   10.4010 O.3       1 ANP300      0.0000 
     13 O5'        25.7340   30.8560   11.3900 O.3       1 ANP300      0.0000 
     14 C5'        25.4510   31.4980   12.6490 C.3       1 ANP300      0.0000 
     15 C4'        24.4530   30.6810   13.4380 C.3       1 ANP300      0.0000 
     16 O4'        23.2930   30.4040   12.6110 O.3       1 ANP300      0.0000 
     17 C3'        24.9320   29.3080   13.8820 C.3       1 ANP300      0.0000 
     18 O3'        25.9290   29.2390   14.9190 O.3       1 ANP300      0.0000 
     19 C2'        23.6320   28.5320   14.0530 C.3       1 ANP300      0.0000 
     20 O2'        23.0100   28.8010   15.2940 O.3       1 ANP300      0.0000 
     21 C1'        22.7760   29.1210   12.9260 C.3       1 ANP300      0.0000 
     22 N9         22.8090   28.3120   11.7080 N.pl3     1 ANP300      0.0000 
     23 C8         23.7560   28.3270   10.7150 C.2       1 ANP300      0.0000 
     24 N7         23.5270   27.4700    9.7520 N.2       1 ANP300      0.0000 
     25 C5         22.3450   26.8520   10.1320 C.ar      1 ANP300      0.0000 
     26 C6         21.5760   25.8390    9.5370 C.ar      1 ANP300      0.0000 
     27 N6         21.9020   25.2400    8.3880 N.pl3     1 ANP300      0.0000 
     28 N1         20.4490   25.4490   10.1730 N.ar      1 ANP300      0.0000 
     29 C2         20.1310   26.0400   11.3330 C.ar      1 ANP300      0.0000 
     30 N3         20.7780   26.9980   11.9950 N.ar      1 ANP300      0.0000 
     31 C4         21.8890   27.3640   11.3330 C.ar      1 ANP300      0.0000 
     32 H          25.0320   32.5012   12.4969 H         1 ANP300      0.0000 
     33 H          26.3618   31.6062   13.2522 H         1 ANP300      0.0000 
     34 H          24.1348   31.2288   14.3122 H         1 ANP300      0.0000 
     35 H          25.3695   28.8639   12.9071 H         1 ANP300      0.0000 
     36 H          23.8013   27.5237   13.8414 H         1 ANP300      0.0000 
     37 H          21.7625   29.2058   13.2891 H         1 ANP300      0.0000 
     38 H          24.5419   28.9514   10.7537 H         1 ANP300      0.0000 
     39 H          22.7422   25.5582    7.9488 H         1 ANP300      0.0000 
     40 H          21.2766   24.5273    8.0704 H         1 ANP300      0.0000 
     41 H          19.1953   25.6779   11.8072 H         1 ANP300      0.0000 
     42 H          25.4241   29.3692   15.7723 H         1 ANP300      0.0000 
     43 H          23.7321   28.6844   15.9759 H         1 ANP300      0.0000 
@<TRIPOS>BOND
     1    2    1 ar   
     2    3    1 ar   
     3    4    1 ar   
     4    8    1 1    
     5    6    5 ar   
     6    7    5 ar   
     7    8    5 1    
     8   12    5 1    
     9   10    9 ar   
    10   11    9 ar   
    11   12    9 1    
    12   13    9 1    
    13   14   13 1    
    14   15   14 1    
    15   32   14 1    
    16   33   14 1    
    17   16   15 1    
    18   17   15 1    
    19   34   15 1    
    20   21   16 1    
    21   18   17 1    
    22   19   17 1    
    23   35   17 1    
    24   42   18 1    
    25   20   19 1    
    26   21   19 1    
    27   36   19 1    
    28   43   20 1    
    29   22   21 1    
    30   37   21 1    
    31   23   22 1    
    32   31   22 1    
    33   24   23 2    
    34   38   23 1    
    35   25   24 1    
    36   26   25 ar   
    37   31   25 ar   
    38   27   26 1    
    39   28   26 ar   
    40   39   27 1    
    41   40   27 1    
    42   29   28 ar   
    43   30   29 ar   
    44   41   29 1    
    45   31   30 ar   
@<TRIPOS>SUBSTRUCTURE
     1 ANP300      1 GROUP   
@<TRIPOS>SET

