#    Name: 2gqt_FAD_1_INTS_M
#    Modification time : Tue Mar 25 14:59:02 2014

@<TRIPOS>MOLECULE
2gqt_FAD_1_INTS_M
  131     0     9     0     0
SMALL
NO_CHARGES


@<TRIPOS>ATOM
      1 N           1.5350    0.6260   -3.0885 N.am      2 SEC2        0.0000 
      2 N           1.0300    1.7660   -2.4180 N.am      8 SEL2        0.0000 
      3 N           2.0400   -0.5140   -3.7590 N.am      5 SEP2        0.0000 
      4 N           1.1260    4.8775   -0.0005 N.am      2 SEC2        0.0000 
      5 N           1.2150    3.8260   -0.9110 N.am      8 SEL2        0.0000 
      6 N           1.0370    5.9290    0.9100 N.am      5 SEP2        0.0000 
      7 N           2.6060    3.5495   -0.9070 N.am      2 SEC2        0.0000 
      8 N           3.9970    3.2730   -0.9030 N.am      5 SEP2        0.0000 
      9 CA         -1.1030    0.3260   -3.1045 C.3       3 GLC5        0.0000 
     10 CA         -1.9450    2.0580   -2.0960 C.3       9 GLL5        0.0000 
     11 CA         -0.2610   -1.4060   -4.1130 C.3       6 GLP5        0.0000 
     12 CA         -1.3145    2.9510   -3.8950 C.3       3 GLC5        0.0000 
     13 CA         -0.6840    3.8440   -5.6940 C.3       6 GLP5        0.0000 
     14 CA         -5.1585    2.3370   -0.9975 C.3       3 GLC5        0.0000 
     15 CA         -3.3500    2.6110   -2.0010 C.3       9 GLL5        0.0000 
     16 CA         -6.9670    2.0630    0.0060 C.3       6 GLP5        0.0000 
     17 CA         -2.1200    3.8945   -4.2135 C.3       3 GLC5        0.0000 
     18 CA         -3.5560    3.9450   -2.7330 C.3       9 GLL5        0.0000 
     19 O          -4.8805    3.4015   -4.3140 O.2       1 ALC1        0.0000 
     20 O          -4.9080    3.9840   -3.1920 O.2       7 ALL1        0.0000 
     21 O          -4.8530    2.8190   -5.4360 O.2       4 ALP1        0.0000 
     22 O          -5.1150    4.3350   -4.8460 O.2       1 ALC1        0.0000 
     23 O          -5.3220    4.6860   -6.5000 O.2       4 ALP1        0.0000 
     24 CA         -2.5760    6.3150   -3.1200 C.3       3 GLC5        0.0000 
     25 CA         -3.3460    4.9620   -1.6180 C.3       9 GLL5        0.0000 
     26 CA         -1.8060    7.6680   -4.6220 C.3       6 GLP5        0.0000 
     27 O          -3.0170    6.9670   -1.4640 O.2       1 ALC1        0.0000 
     28 O          -4.0100    6.1970   -1.8830 O.2       7 ALL1        0.0000 
     29 O          -2.0240    7.7370   -1.0450 O.2       4 ALP1        0.0000 
     30 CA         -5.4915    3.1590   -0.2265 C.3       3 GLC5        0.0000 
     31 CA         -4.0160    4.2550   -0.4590 C.3       9 GLL5        0.0000 
     32 CA         -2.9405    3.3450    2.8810 C.3       3 GLC5        0.0000 
     33 CA         -3.6150    5.4040    2.9510 C.3       9 GLL5        0.0000 
     34 CA         -2.2660    1.2860    2.8110 C.3       6 GLP5        0.0000 
     35 CA         -4.9225    7.9175    4.8090 C.3       3 GLC5        0.0000 
     36 CA         -4.2540    5.9370    4.0770 C.3       9 GLL5        0.0000 
     37 CA         -5.5910    9.8980    5.5410 C.3       6 GLP5        0.0000 
     38 CA         -5.4870    5.2750    5.6135 C.3       3 GLC5        0.0000 
     39 CA         -6.7200    4.6130    7.1500 C.3       6 GLP5        0.0000 
     40 O          -4.2485    6.5965    6.4750 O.2       1 ALC1        0.0000 
     41 O          -3.6050    6.2240    5.2130 O.2       7 ALL1        0.0000 
     42 O          -4.8920    6.9690    7.7370 O.2       4 ALP1        0.0000 
     43 N          -6.4430    6.4895    5.1370 N.am      2 SEC2        0.0000 
     44 N          -5.5850    6.1440    4.0200 N.am      8 SEL2        0.0000 
     45 N          -7.3010    6.8350    6.2540 N.am      5 SEP2        0.0000 
     46 CA         -6.3410    3.7685    2.1390 C.3       3 GLC5        0.0000 
     47 CA         -6.2830    5.8730    2.9080 C.3       9 GLL5        0.0000 
     48 CA         -6.3990    1.6640    1.3700 C.3       6 GLP5        0.0000 
     49 CA         -8.1005    4.9395    3.0260 C.3       3 GLC5        0.0000 
     50 CA         -9.9180    4.0060    3.1440 C.3       6 GLP5        0.0000 
     51 CA         -7.0580    7.3660    3.9575 C.3       3 GLC5        0.0000 
     52 CA         -7.8330    8.8590    5.0070 C.3       6 GLP5        0.0000 
     53 CA         -7.0515    4.9165    4.6090 C.3       3 GLC5        0.0000 
     54 CA         -7.8200    3.9600    6.3100 C.3       6 GLP5        0.0000 
     55 CA         -3.9720    7.1310    1.5710 C.3       3 GLC5        0.0000 
     56 CA         -4.3960    5.1540    1.8240 C.3       9 GLL5        0.0000 
     57 CA         -3.5480    9.1080    1.3180 C.3       6 GLP5        0.0000 
     58 CA         -5.3975    3.4090    1.5970 C.3       3 GLC5        0.0000 
     59 N          -2.6765   -8.4355    1.0535 N.am      2 SEC2        0.0000 
     60 N          -2.1800   -7.8870   -0.2540 N.am      8 SEL2        0.0000 
     61 N          -3.1730   -8.9840    2.3610 N.am      5 SEP2        0.0000 
     62 O          -1.1685  -10.2045    0.5245 O.2       1 ALC1        0.0000 
     63 O          -0.3800   -9.2500   -0.0350 O.2       7 ALL1        0.0000 
     64 O          -1.9570  -11.1590    1.0840 O.2       4 ALP1        0.0000 
     65 N           2.5245  -11.0715    0.9875 N.am      2 SEC2        0.0000 
     66 N           1.4790  -10.5440    0.1530 N.am      8 SEL2        0.0000 
     67 N           3.5700  -11.5990    1.8220 N.am      5 SEP2        0.0000 
     68 N           3.0335  -10.7740    0.0065 N.am      2 SEC2        0.0000 
     69 N           4.5880  -11.0040   -0.1400 N.am      5 SEP2        0.0000 
     70 N           3.8425   -9.8315   -0.5840 N.am      2 SEC2        0.0000 
     71 N           3.0970   -8.6590   -1.0280 N.am      8 SEL2        0.0000 
     72 CA          6.8765   -5.6425   -0.9200 C.3       3 GLC5        0.0000 
     73 CA          7.5390   -6.9800   -2.3790 C.3       9 GLL5        0.0000 
     74 CA          6.2140   -4.3050    0.5390 C.3       6 GLP5        0.0000 
     75 CA          7.2865   -2.6165   -3.3675 C.3       3 GLC5        0.0000 
     76 CA          6.2760   -4.4410   -3.2250 C.3       9 GLL5        0.0000 
     77 CA          8.2970   -0.7920   -3.5100 C.3       6 GLP5        0.0000 
     78 CA          5.8055   -3.8490   -4.9180 C.3       3 GLC5        0.0000 
     79 CA          5.3350   -3.2570   -6.6110 C.3       6 GLP5        0.0000 
     80 CA          2.8310   -2.6910   -1.3645 C.3       3 GLC5        0.0000 
     81 CA          1.1550   -3.9080   -1.3060 C.3       9 GLL5        0.0000 
     82 CA          4.5070   -1.4740   -1.4230 C.3       6 GLP5        0.0000 
     83 O           2.7800   -2.8870   -0.4730 O.2       1 ALC1        0.0000 
     84 O           2.2040   -4.0920   -0.3350 O.2       7 ALL1        0.0000 
     85 O           3.3560   -1.6820   -0.6110 O.2       4 ALP1        0.0000 
     86 O          -2.3550   -1.7180    1.6820 O.2       1 ALC1        0.0000 
     87 O          -1.2890   -2.7780    1.3370 O.2       7 ALL1        0.0000 
     88 O          -3.4210   -0.6580    2.0270 O.2       4 ALP1        0.0000 
     89 CA         -0.1100   -1.3460   -2.0600 C.3       3 GLC5        0.0000 
     90 CA          0.0410   -1.2860   -0.0070 C.3       9 GLL5        0.0000 
     91 CA         -1.1125    0.0000    1.4020 C.3       3 GLC5        0.0000 
     92 N           2.2850    2.5235    1.9960 N.am      2 SEC2        0.0000 
     93 N           1.2030    1.5540    2.2350 N.am      8 SEL2        0.0000 
     94 N           3.3670    3.4930    1.7570 N.am      5 SEP2        0.0000 
     95 N           1.8335    1.0795    3.4565 N.am      2 SEC2        0.0000 
     96 N           2.4640    0.6050    4.6780 N.am      5 SEP2        0.0000 
     97 N           3.1830    0.6990   -1.0055 N.am      2 SEC2        0.0000 
     98 N           2.4350    0.6010    0.2140 N.am      8 SEL2        0.0000 
     99 N           3.9310    0.7970   -2.2250 N.am      5 SEP2        0.0000 
    100 N           2.8955   -0.5405   -0.1985 N.am      2 SEC2        0.0000 
    101 N           3.3560   -1.6820   -0.6110 N.am      5 SEP2        0.0000 
    102 CA         -3.4773    0.5268   -1.7043 C.3       3 GLC5        0.0000 
    103 CA         -4.3070   -1.2810   -1.3600 C.3       6 GLP5        0.0000 
    104 CA         -3.2927    7.2382    3.0160 C.3       3 GLC5        0.0000 
    105 CA         -2.6510    8.8060    2.5180 C.3       6 GLP5        0.0000 
    106 CA         -3.5637    4.2722    4.8325 C.3       3 GLC5        0.0000 
    107 CA         -3.1930    2.8740    6.1510 C.3       6 GLP5        0.0000 
    108 CA          4.5228   -7.2680   -3.6147 C.3       3 GLC5        0.0000 
    109 CA          5.2350   -7.7890   -1.7170 C.3       9 GLL5        0.0000 
    110 CA          4.4990   -6.8330   -5.5840 C.3       6 GLP5        0.0000 
    111 CA          5.2766   -6.3093   -0.4501 C.3       3 GLC5        0.0000 
    112 CA          6.0260   -6.7720   -2.2430 C.3       9 GLL5        0.0000 
    113 CA          5.2670   -5.3810    1.0440 C.3       6 GLP5        0.0000 
    114 CA          5.6407   -6.8545   -3.9475 C.3       3 GLC5        0.0000 
    115 CA          6.0315   -4.6560   -1.1960 C.3       3 GLC5        0.0000 
    116 CA          5.1740   -5.9200   -4.2575 C.3       3 GLC5        0.0000 
    117 CA          5.4220   -5.5730   -2.6370 C.3       9 GLL5        0.0000 
    118 CA          4.7272   -3.3403   -2.0697 C.3       3 GLC5        0.0000 
    119 CA          4.4573   -5.6470   -0.5962 C.3       3 GLC5        0.0000 
    120 CA          4.0460   -5.4060   -2.5020 C.3       9 GLL5        0.0000 
    121 CA          4.0732   -6.3730   -3.9102 C.3       3 GLC5        0.0000 
    122 CA          0.1135   -2.7681   -2.6504 C.3       3 GLC5        0.0000 
    123 CA          1.1450   -5.0590   -2.3250 C.3       9 GLL5        0.0000 
    124 CA          0.7185   -4.6535    1.3115 C.3       3 GLC5        0.0000 
    125 CA         -0.1740   -3.7770   -0.5600 C.3       9 GLL5        0.0000 
    126 CA          1.5780   -6.0660    2.6350 C.3       6 GLP5        0.0000 
    127 CA         -1.1920   -4.5510    1.3070 C.3       3 GLC5        0.0000 
    128 CA         -2.2430   -5.8610    2.6260 C.3       6 GLP5        0.0000 
    129 CA          0.7188   -2.1202    1.9932 C.3       3 GLC5        0.0000 
    130 CA         -0.1080   -2.7050    0.5360 C.3       9 GLL5        0.0000 
    131 CA          1.4710   -2.2450    3.7220 C.3       6 GLP5        0.0000 
@<TRIPOS>BOND
@<TRIPOS>SUBSTRUCTURE
     1 ALC1       19 GROUP        1 X    ALC  0     ROOT ALC X 1
     2 SEC2        1 GROUP        1 X    SEC  0     **** SEC X 2
     3 GLC5        9 GROUP        1 X    GLC  0     **** GLC X 6
     4 ALP1       21 GROUP        1 Y    ALP  0     ROOT ALP Y 8
     5 SEP2        3 GROUP        1 Y    SEP  0     **** SEP Y 9
     6 GLP5       11 GROUP        1 Y    GLP  0     **** GLP Y 13
     7 ALL1       20 GROUP        1 Z    ALL  0     ROOT ALL Z 15
     8 SEL2        2 GROUP        1 Z    SEL  0     **** SEL Z 16
     9 GLL5       10 GROUP        1 Z    GLL  0     **** GLL Z 20
@<TRIPOS>SET

