#    Name: 2gqt_FAD_1_ligand
#    Modification time : Tue Mar 25 14:59:02 2014

@<TRIPOS>MOLECULE
2gqt_FAD_1_ligand
   84    89     1     0     0
SMALL
NO_CHARGES


@<TRIPOS>ATOM
      1 PA          0.4890    2.6100   -1.3410 P.3       1 FAD601      0.0000 
      2 O1A         1.0300    1.7660   -2.4180 O.co2     1 FAD601      0.0000 
      3 O2A         1.2150    3.8260   -0.9110 O.co2     1 FAD601      0.0000 
      4 O5B        -1.0020    3.0460   -1.6640 O.3       1 FAD601      0.0000 
      5 C5B        -1.9450    2.0580   -2.0960 C.3       1 FAD601      0.0000 
      6 C4B        -3.3500    2.6110   -2.0010 C.3       1 FAD601      0.0000 
      7 O4B        -3.6530    2.8600   -0.6130 O.3       1 FAD601      0.0000 
      8 C3B        -3.5560    3.9450   -2.7330 C.3       1 FAD601      0.0000 
      9 O3B        -4.9080    3.9840   -3.1920 O.3       1 FAD601      0.0000 
     10 C2B        -3.3460    4.9620   -1.6180 C.3       1 FAD601      0.0000 
     11 O2B        -4.0100    6.1970   -1.8830 O.3       1 FAD601      0.0000 
     12 C1B        -4.0160    4.2550   -0.4590 C.3       1 FAD601      0.0000 
     13 N9A        -3.5810    4.6860    0.8860 N.pl3     1 FAD601      0.0000 
     14 C8A        -2.3360    4.6320    1.3860 C.2       1 FAD601      0.0000 
     15 N7A        -2.3530    5.0870    2.6410 N.2       1 FAD601      0.0000 
     16 C5A        -3.6150    5.4040    2.9510 C.ar      1 FAD601      0.0000 
     17 C6A        -4.2540    5.9370    4.0770 C.ar      1 FAD601      0.0000 
     18 N6A        -3.6050    6.2240    5.2130 N.pl3     1 FAD601      0.0000 
     19 N1A        -5.5850    6.1440    4.0200 N.ar      1 FAD601      0.0000 
     20 C2A        -6.2830    5.8730    2.9080 C.ar      1 FAD601      0.0000 
     21 N3A        -5.7240    5.3810    1.8060 N.ar      1 FAD601      0.0000 
     22 C4A        -4.3960    5.1540    1.8240 C.ar      1 FAD601      0.0000 
     23 N1         -0.2290   -7.0720   -1.0290 N.2       1 FAD601      0.0000 
     24 C2         -0.9810   -8.0560   -0.4240 C.2       1 FAD601      0.0000 
     25 O2         -2.1800   -7.8870   -0.2540 O.2       1 FAD601      0.0000 
     26 N3         -0.3800   -9.2500   -0.0350 N.am      1 FAD601      0.0000 
     27 C4          0.9790   -9.4760   -0.2150 C.2       1 FAD601      0.0000 
     28 O4          1.4790  -10.5440    0.1530 O.2       1 FAD601      0.0000 
     29 C4X         1.7330   -8.4710   -0.8180 C.2       1 FAD601      0.0000 
     30 N5          3.0970   -8.6590   -1.0280 N.2       1 FAD601      0.0000 
     31 C5X         3.8580   -7.6170   -1.5740 C.ar      1 FAD601      0.0000 
     32 C6          5.2350   -7.7890   -1.7170 C.ar      1 FAD601      0.0000 
     33 C7          6.0260   -6.7720   -2.2430 C.ar      1 FAD601      0.0000 
     34 C7M         7.5390   -6.9800   -2.3790 C.3       1 FAD601      0.0000 
     35 C8          5.4220   -5.5730   -2.6370 C.ar      1 FAD601      0.0000 
     36 C8M         6.2760   -4.4410   -3.2250 C.3       1 FAD601      0.0000 
     37 C9          4.0460   -5.4060   -2.5020 C.ar      1 FAD601      0.0000 
     38 C9A         3.2490   -6.4200   -1.9710 C.ar      1 FAD601      0.0000 
     39 N10         1.8600   -6.2640   -1.8280 N.pl3     1 FAD601      0.0000 
     40 C10         1.1230   -7.2790   -1.2220 C.2       1 FAD601      0.0000 
     41 C1'         1.1450   -5.0590   -2.3250 C.3       1 FAD601      0.0000 
     42 C2'         1.1550   -3.9080   -1.3060 C.3       1 FAD601      0.0000 
     43 O2'         2.2040   -4.0920   -0.3350 O.3       1 FAD601      0.0000 
     44 C3'        -0.1740   -3.7770   -0.5600 C.3       1 FAD601      0.0000 
     45 O3'        -1.2250   -3.4840   -1.4910 O.3       1 FAD601      0.0000 
     46 C4'        -0.1080   -2.7050    0.5360 C.3       1 FAD601      0.0000 
     47 O4'        -1.2890   -2.7780    1.3370 O.3       1 FAD601      0.0000 
     48 C5'         0.0410   -1.2860   -0.0070 C.3       1 FAD601      0.0000 
     49 O5'         0.2930   -0.4390    1.1150 O.3       1 FAD601      0.0000 
     50 P           1.1680    0.8820    0.9220 P.3       1 FAD601      0.0000 
     51 O1P         1.2030    1.5540    2.2350 O.co2     1 FAD601      0.0000 
     52 O2P         2.4350    0.6010    0.2140 O.co2     1 FAD601      0.0000 
     53 O3P         0.1700    1.7050   -0.0300 O.3       1 FAD601      0.0000 
     54 H          -1.8904    1.1537   -1.4762 H         1 FAD601      0.0000 
     55 H          -1.7643    1.7594   -3.1367 H         1 FAD601      0.0000 
     56 H          -4.0487    1.8946   -2.4012 H         1 FAD601      0.0000 
     57 H          -2.8348    4.0513   -3.4578 H         1 FAD601      0.0000 
     58 H          -2.3227    5.0403   -1.4170 H         1 FAD601      0.0000 
     59 H          -5.0822    4.3493   -0.5642 H         1 FAD601      0.0000 
     60 H          -1.5513    4.3123    0.9075 H         1 FAD601      0.0000 
     61 H          -4.1597    6.6060    5.9522 H         1 FAD601      0.0000 
     62 H          -2.6239    6.0306    5.2202 H         1 FAD601      0.0000 
     63 H          -7.3325    6.0618    2.9116 H         1 FAD601      0.0000 
     64 H          -0.9646   -9.9914    0.4016 H         1 FAD601      0.0000 
     65 H           5.6698   -8.6795   -1.4295 H         1 FAD601      0.0000 
     66 H           3.6080   -4.5179   -2.7994 H         1 FAD601      0.0000 
     67 H           0.0984   -5.3058   -2.5540 H         1 FAD601      0.0000 
     68 H           1.6085   -4.6987   -3.2546 H         1 FAD601      0.0000 
     69 H           1.3172   -2.9774   -1.8527 H         1 FAD601      0.0000 
     70 H          -0.3676   -4.7366   -0.0682 H         1 FAD601      0.0000 
     71 H           0.7690   -2.9195    1.1548 H         1 FAD601      0.0000 
     72 H          -0.8788   -1.0231   -0.5174 H         1 FAD601      0.0000 
     73 H           0.8632   -1.2812   -0.7139 H         1 FAD601      0.0000 
     74 H           7.9905   -6.1780   -2.7702 H         1 FAD601      0.0000 
     75 H           7.9706   -7.1569   -1.4944 H         1 FAD601      0.0000 
     76 H           7.7554   -7.7562   -2.9712 H         1 FAD601      0.0000 
     77 H           6.9737   -4.1288   -2.5802 H         1 FAD601      0.0000 
     78 H           6.7524   -4.7284   -4.0559 H         1 FAD601      0.0000 
     79 H           5.7217   -3.6442   -3.4656 H         1 FAD601      0.0000 
     80 H          -4.8431    3.9665   -4.1897 H         1 FAD601      0.0000 
     81 H          -3.3684    6.9045   -1.5867 H         1 FAD601      0.0000 
     82 H           2.7337   -3.2443   -0.3627 H         1 FAD601      0.0000 
     83 H          -1.9120   -4.1942   -1.3375 H         1 FAD601      0.0000 
     84 H          -1.6935   -1.8649    1.2852 H         1 FAD601      0.0000 
@<TRIPOS>BOND
     1    2    1 ar   
     2    3    1 ar   
     3    4    1 1    
     4   53    1 1    
     5    5    4 1    
     6    6    5 1    
     7   54    5 1    
     8   55    5 1    
     9    7    6 1    
    10    8    6 1    
    11   56    6 1    
    12   12    7 1    
    13    9    8 1    
    14   10    8 1    
    15   57    8 1    
    16   80    9 1    
    17   11   10 1    
    18   12   10 1    
    19   58   10 1    
    20   81   11 1    
    21   13   12 1    
    22   59   12 1    
    23   14   13 1    
    24   22   13 1    
    25   15   14 2    
    26   60   14 1    
    27   16   15 1    
    28   17   16 ar   
    29   22   16 ar   
    30   18   17 1    
    31   19   17 ar   
    32   61   18 1    
    33   62   18 1    
    34   20   19 ar   
    35   21   20 ar   
    36   63   20 1    
    37   22   21 ar   
    38   24   23 1    
    39   40   23 2    
    40   25   24 2    
    41   26   24 am   
    42   27   26 am   
    43   64   26 1    
    44   28   27 2    
    45   29   27 1    
    46   30   29 2    
    47   40   29 1    
    48   31   30 1    
    49   32   31 ar   
    50   38   31 ar   
    51   33   32 ar   
    52   65   32 1    
    53   34   33 1    
    54   35   33 ar   
    55   74   34 1    
    56   75   34 1    
    57   76   34 1    
    58   36   35 1    
    59   37   35 ar   
    60   77   36 1    
    61   78   36 1    
    62   79   36 1    
    63   38   37 ar   
    64   66   37 1    
    65   39   38 1    
    66   40   39 1    
    67   41   39 1    
    68   42   41 1    
    69   67   41 1    
    70   68   41 1    
    71   43   42 1    
    72   44   42 1    
    73   69   42 1    
    74   82   43 1    
    75   45   44 1    
    76   46   44 1    
    77   70   44 1    
    78   83   45 1    
    79   47   46 1    
    80   48   46 1    
    81   71   46 1    
    82   84   47 1    
    83   49   48 1    
    84   72   48 1    
    85   73   48 1    
    86   50   49 1    
    87   51   50 ar   
    88   52   50 ar   
    89   53   50 1    
@<TRIPOS>SUBSTRUCTURE
     1 FAD601      1 GROUP   
@<TRIPOS>SET

