#    Name: 2vj6_VG5_1_INTS_M
#    Modification time : Tue Mar 25 01:54:01 2014

@<TRIPOS>MOLECULE
2vj6_VG5_1_INTS_M
   90     0    12     0     0
SMALL
NO_CHARGES


@<TRIPOS>ATOM
      1 CA         32.3015    2.0025   36.3660 C.3       4 GLC5        0.0000 
      2 CA         31.1650    0.3600   36.5140 C.3      12 GLL5        0.0000 
      3 CA         33.4380    3.6450   36.2180 C.3       8 GLP5        0.0000 
      4 O          28.0960    0.6575   34.0650 O.2       1 ALC1        0.0000 
      5 O          29.2160    1.4250   33.6650 O.2       9 ALL1        0.0000 
      6 O          26.9760   -0.1100   34.4650 O.2       5 ALP1        0.0000 
      7 N          32.7945    1.9380   34.0665 N.am      2 SEC2        0.0000 
      8 N          31.3420    2.1110   34.1130 N.am     10 SEL2        0.0000 
      9 N          34.2470    1.7650   34.0200 N.am      6 SEP2        0.0000 
     10 CA         26.5080    1.2310   32.7785 C.3       4 GLC5        0.0000 
     11 CA         28.2300    1.6730   31.4520 C.3      12 GLL5        0.0000 
     12 CA         24.7860    0.7890   34.1050 C.3       8 GLP5        0.0000 
     13 CA         26.4070    2.1905   33.6320 C.3       4 GLC5        0.0000 
     14 CA         28.0280    3.5920   33.1590 C.3      12 GLL5        0.0000 
     15 O          26.7480    4.1790   31.3860 O.2       1 ALC1        0.0000 
     16 O          27.7760    4.5170   32.1050 O.2       9 ALL1        0.0000 
     17 O          25.7200    3.8410   30.6670 O.2       5 ALP1        0.0000 
     18 OD1        26.4215    4.7650   35.0095 O.co2     3 ASC3        0.0000 
     19 OD1        28.0830    5.6590   34.5450 O.co2    11 ASL3        0.0000 
     20 OD1        24.7600    3.8710   35.4740 O.co2     7 ASP3        0.0000 
     21 OD1        27.3030    5.1590   35.5365 O.co2     3 ASC3        0.0000 
     22 OD1        26.5230    4.6590   36.5280 O.co2     7 ASP3        0.0000 
     23 CA         28.1440    8.7815   34.9840 C.3       4 GLC5        0.0000 
     24 CA         28.8170    6.8380   35.0720 C.3      12 GLL5        0.0000 
     25 CA         27.4710   10.7250   34.8960 C.3       8 GLP5        0.0000 
     26 O          27.8640    7.7760   32.9355 O.2       1 ALC1        0.0000 
     27 O          29.3410    7.9110   32.9590 O.2       9 ALL1        0.0000 
     28 O          26.3870    7.6410   32.9120 O.2       5 ALP1        0.0000 
     29 CA         29.4520   10.8445   33.5965 C.3       4 GLC5        0.0000 
     30 CA         30.6100    9.8720   32.1020 C.3      12 GLL5        0.0000 
     31 CA         28.2940   11.8170   35.0910 C.3       8 GLP5        0.0000 
     32 CA         31.0905   11.0540   27.6165 C.3       4 GLC5        0.0000 
     33 CA         30.7140   10.2680   29.5350 C.3      12 GLL5        0.0000 
     34 CA         31.4670   11.8400   25.6980 C.3       8 GLP5        0.0000 
     35 CA         29.8370    6.7400   29.1085 C.3       4 GLC5        0.0000 
     36 CA         30.1520    8.8270   29.2950 C.3      12 GLL5        0.0000 
     37 CA         29.5220    4.6530   28.9220 C.3       8 GLP5        0.0000 
     38 CA         30.2685   -4.3390   30.9400 C.3       4 GLC5        0.0000 
     39 CA         30.1590   -2.1940   30.5430 C.3      12 GLL5        0.0000 
     40 CA         30.3780   -6.4840   31.3370 C.3       8 GLP5        0.0000 
     41 CA         31.3730    2.0225   31.0890 C.3       4 GLC5        0.0000 
     42 CA         30.3460    0.2540   30.9080 C.3      12 GLL5        0.0000 
     43 CA         32.4000    3.7910   31.2700 C.3       8 GLP5        0.0000 
     44 CA         29.7000   -5.1535   32.6685 C.3       4 GLC5        0.0000 
     45 CA         29.0220   -3.8230   34.0000 C.3      12 GLL5        0.0000 
     46 CA         25.8170   -4.5400   33.5410 C.3       4 GLC5        0.0000 
     47 CA         27.4870   -3.7680   34.0760 C.3      12 GLL5        0.0000 
     48 CA         24.1470   -5.3120   33.0060 C.3       8 GLP5        0.0000 
     49 CA         30.8600   -1.1460   42.0715 C.3       4 GLC5        0.0000 
     50 CA         32.3800   -0.8000   40.9220 C.3      12 GLL5        0.0000 
     51 CA         29.3400   -1.4920   43.2210 C.3       8 GLP5        0.0000 
     52 N          29.0430   -1.6905   40.6750 N.am      2 SEC2        0.0000 
     53 N          30.2780   -1.6220   40.0320 N.am     10 SEL2        0.0000 
     54 N          27.8080   -1.7590   41.3180 N.am      6 SEP2        0.0000 
     55 CA         32.5390   -0.4315   35.5140 C.3       4 GLC5        0.0000 
     56 CA         31.2710   -0.8080   37.3920 C.3      12 GLL5        0.0000 
     57 CA         33.8600   -0.6390   34.0750 C.3       8 GLP5        0.0000 
     58 CA         29.7505    0.5260   38.0940 C.3       4 GLC5        0.0000 
     59 CA         28.2830    1.2760   39.2350 C.3       8 GLP5        0.0000 
     60 CA         32.0645   -0.5335   34.5570 C.3       4 GLC5        0.0000 
     61 CA         30.5390    0.2240   35.2520 C.3      12 GLL5        0.0000 
     62 CA         32.1355   -1.4032   35.1977 C.3       4 GLC5        0.0000 
     63 CA         30.0940   -2.2490   35.6910 C.3      12 GLL5        0.0000 
     64 CA         28.5943   -0.4258   36.2750 C.3       4 GLC5        0.0000 
     65 CA         27.0070    0.4870   37.1850 C.3       8 GLP5        0.0000 
     66 CA         29.1680   -3.0128   37.7362 C.3       4 GLC5        0.0000 
     67 CA         27.9250   -3.8580   39.1520 C.3       8 GLP5        0.0000 
     68 CA         29.3196    3.7110   31.3216 C.3       4 GLC5        0.0000 
     69 CA         28.9190    2.4470   32.6270 C.3      12 GLL5        0.0000 
     70 CA         30.3380    4.5960   30.0440 C.3       8 GLP5        0.0000 
     71 CA         27.6710    7.5060   36.9645 C.3       4 GLC5        0.0000 
     72 CA         26.1890    8.3420   38.1760 C.3       8 GLP5        0.0000 
     73 CA         30.0393    6.4760   30.6097 C.3       4 GLC5        0.0000 
     74 CA         30.1510    8.4020   31.8360 C.3      12 GLL5        0.0000 
     75 CA         30.9440    8.2668   28.0010 C.3       4 GLC5        0.0000 
     76 CA         31.4550    6.9860   26.5870 C.3       8 GLP5        0.0000 
     77 CA         28.0565    7.7008   29.7550 C.3       4 GLC5        0.0000 
     78 CA         26.3720    6.8330   29.6050 C.3       8 GLP5        0.0000 
     79 CA         26.8555   -2.3090   30.5448 C.3       4 GLC5        0.0000 
     80 CA         28.1200   -0.8470   31.0530 C.3      12 GLL5        0.0000 
     81 CA         25.2810   -3.1380   30.1840 C.3       8 GLP5        0.0000 
     82 CA         27.4522    0.8621   29.7055 C.3       4 GLC5        0.0000 
     83 CA         26.5590    1.6430   28.2390 C.3       8 GLP5        0.0000 
     84 CA         27.6373   -5.7637   33.7650 C.3       4 GLC5        0.0000 
     85 CA         27.0200   -7.7320   33.4920 C.3       8 GLP5        0.0000 
     86 CA         33.8347    1.5868   38.4573 C.3       4 GLC5        0.0000 
     87 CA         33.2150   -0.1180   38.7180 C.3      12 GLL5        0.0000 
     88 CA         34.2800    3.3170   37.4570 C.3       8 GLP5        0.0000 
     89 CA         31.9659    1.1431   40.7934 C.3       4 GLC5        0.0000 
     90 CA         31.0470    2.7580   41.3970 C.3       8 GLP5        0.0000 
@<TRIPOS>BOND
@<TRIPOS>SUBSTRUCTURE
     1 ALC1        4 GROUP        1 X    ALC  0     ROOT ALC X 1
     2 SEC2        7 GROUP        1 X    SEC  0     **** SEC X 2
     3 ASC3       18 GROUP        1 X    ASC  0     **** ASC X 3
     4 GLC5        1 GROUP        1 X    GLC  0     **** GLC X 6
     5 ALP1        6 GROUP        1 Y    ALP  0     ROOT ALP Y 8
     6 SEP2        9 GROUP        1 Y    SEP  0     **** SEP Y 9
     7 ASP3       20 GROUP        1 Y    ASP  0     **** ASP Y 10
     8 GLP5        3 GROUP        1 Y    GLP  0     **** GLP Y 13
     9 ALL1        5 GROUP        1 Z    ALL  0     ROOT ALL Z 15
    10 SEL2        8 GROUP        1 Z    SEL  0     **** SEL Z 16
    11 ASL3       19 GROUP        1 Z    ASL  0     **** ASL Z 17
    12 GLL5        2 GROUP        1 Z    GLL  0     **** GLL Z 20
@<TRIPOS>SET

