#    Name: 2vj6_VG5_1_ligand
#    Modification time : Tue Mar 25 01:54:01 2014

@<TRIPOS>MOLECULE
2vj6_VG5_1_ligand
   83    86     1     0     0
SMALL
NO_CHARGES


@<TRIPOS>ATOM
      1 C1         31.2710   -0.8080   37.3920 C.ar      1 VG51447     0.0000 
      2 C2         31.1650    0.3600   36.5140 C.ar      1 VG51447     0.0000 
      3 C3         30.5390    0.2240   35.2520 C.ar      1 VG51447     0.0000 
      4 C4         29.9990   -1.0800   34.8260 C.ar      1 VG51447     0.0000 
      5 C5         30.0940   -2.2490   35.6910 C.ar      1 VG51447     0.0000 
      6 C6         30.7280   -2.0860   36.9500 C.ar      1 VG51447     0.0000 
      7 C7         30.4120    1.3270   34.3220 C.2       1 VG51447     0.0000 
      8 N8         29.2160    1.4250   33.6650 N.am      1 VG51447     0.0000 
      9 O9         31.3420    2.1110   34.1130 O.2       1 VG51447     0.0000 
     10 C10        28.9190    2.4470   32.6270 C.3       1 VG51447     0.0000 
     11 C11        28.2300    1.6730   31.4520 C.3       1 VG51447     0.0000 
     12 C12        28.0280    3.5920   33.1590 C.3       1 VG51447     0.0000 
     13 O13        27.7760    4.5170   32.1050 O.3       1 VG51447     0.0000 
     14 C14        28.9120    0.3460   31.1300 C.ar      1 VG51447     0.0000 
     15 C15        28.7210    4.3580   34.2960 C.3       1 VG51447     0.0000 
     16 N16        28.0830    5.6590   34.5450 N.4       1 VG51447     0.0000 
     17 C17        28.8170    6.8380   35.0720 C.3       1 VG51447     0.0000 
     18 C18        29.8780    7.2620   34.0130 C.2       1 VG51447     0.0000 
     19 N19        29.3410    7.9110   32.9590 N.am      1 VG51447     0.0000 
     20 O20        31.0790    7.0110   34.1540 O.2       1 VG51447     0.0000 
     21 C21        30.1510    8.4020   31.8360 C.3       1 VG51447     0.0000 
     22 C22        29.4890    6.5020   36.4340 C.3       1 VG51447     0.0000 
     23 C23        30.6100    9.8720   32.1020 C.3       1 VG51447     0.0000 
     24 C24        31.4680   10.4010   30.9080 C.3       1 VG51447     0.0000 
     25 C25        30.7140   10.2680   29.5350 C.3       1 VG51447     0.0000 
     26 C26        30.1520    8.8270   29.2950 C.3       1 VG51447     0.0000 
     27 C27        29.3300    8.3100   30.5150 C.3       1 VG51447     0.0000 
     28 C56        28.1200   -0.8470   31.0530 C.ar      1 VG51447     0.0000 
     29 C57        28.7400   -2.1130   30.7580 C.ar      1 VG51447     0.0000 
     30 C58        30.1590   -2.1940   30.5430 C.ar      1 VG51447     0.0000 
     31 C59        30.9640   -1.0080   30.6180 C.ar      1 VG51447     0.0000 
     32 C60        30.3460    0.2540   30.9080 C.ar      1 VG51447     0.0000 
     33 N1         29.5790   -3.5360   35.3110 N.pl3     1 VG51447     0.0000 
     34 C67        29.0220   -3.8230   34.0000 C.3       1 VG51447     0.0000 
     35 C68        27.4870   -3.7680   34.0760 C.3       1 VG51447     0.0000 
     36 N77        31.8740   -0.7040   38.6120 N.am      1 VG51447     0.0000 
     37 C78        33.2150   -0.1180   38.7180 C.2       1 VG51447     0.0000 
     38 C79        33.5640   -0.1690   40.1970 C.2       1 VG51447     0.0000 
     39 C80        32.3800   -0.8000   40.9220 C.3       1 VG51447     0.0000 
     40 C81        31.3660   -1.1000   39.8130 C.2       1 VG51447     0.0000 
     41 O88        30.2780   -1.6220   40.0320 O.2       1 VG51447     0.0000 
     42 H          31.5407    1.2409   36.8256 H         1 VG51447     0.0000 
     43 H          29.5582   -1.1568   33.9203 H         1 VG51447     0.0000 
     44 H          30.8155   -2.8914   37.5866 H         1 VG51447     0.0000 
     45 H          28.4326    0.7629   33.8716 H         1 VG51447     0.0000 
     46 H          29.8375    2.8525   32.2426 H         1 VG51447     0.0000 
     47 H          28.2414    2.3175   30.5676 H         1 VG51447     0.0000 
     48 H          27.1866    1.4936   31.7289 H         1 VG51447     0.0000 
     49 H          27.1198    3.1708   33.5371 H         1 VG51447     0.0000 
     50 H          29.7769    4.4899   34.0231 H         1 VG51447     0.0000 
     51 H          28.6883    3.7313   35.1976 H         1 VG51447     0.0000 
     52 H          28.1427    7.6603   35.2134 H         1 VG51447     0.0000 
     53 H          28.3179    8.0957   32.8920 H         1 VG51447     0.0000 
     54 H          31.0366    7.7965   31.7169 H         1 VG51447     0.0000 
     55 H          31.2060    9.8970   33.0018 H         1 VG51447     0.0000 
     56 H          29.7376   10.4982   32.2130 H         1 VG51447     0.0000 
     57 H          32.3897    9.8302   30.8545 H         1 VG51447     0.0000 
     58 H          31.7008   11.4477   31.0761 H         1 VG51447     0.0000 
     59 H          31.4061   10.5144   28.7332 H         1 VG51447     0.0000 
     60 H          29.8878   10.9750   29.5223 H         1 VG51447     0.0000 
     61 H          30.9847    8.1522   29.1182 H         1 VG51447     0.0000 
     62 H          29.5109    8.8436   28.4182 H         1 VG51447     0.0000 
     63 H          28.4325    8.9110   30.6148 H         1 VG51447     0.0000 
     64 H          29.0557    7.2749   30.3414 H         1 VG51447     0.0000 
     65 H          27.1178   -0.8018   31.2067 H         1 VG51447     0.0000 
     66 H          28.1713   -2.9514   30.7019 H         1 VG51447     0.0000 
     67 H          30.5895   -3.0875   30.3388 H         1 VG51447     0.0000 
     68 H          31.9626   -1.0619   30.4670 H         1 VG51447     0.0000 
     69 H          30.9095    1.0976   30.9606 H         1 VG51447     0.0000 
     70 H          29.6034   -4.3050   36.0051 H         1 VG51447     0.0000 
     71 H          29.3061   -4.8180   33.6566 H         1 VG51447     0.0000 
     72 H          29.3484   -3.0913   33.2606 H         1 VG51447     0.0000 
     73 H          33.7368    0.2059   38.0752 H         1 VG51447     0.0000 
     74 H          34.3192    0.1161   40.5728 H         1 VG51447     0.0000 
     75 H          31.9627   -0.1036   41.6081 H         1 VG51447     0.0000 
     76 H          32.6812   -1.7080   41.3851 H         1 VG51447     0.0000 
     77 H          30.1428    5.7500   36.3501 H         1 VG51447     0.0000 
     78 H          29.9887    7.2848   36.8047 H         1 VG51447     0.0000 
     79 H          28.8168    6.2305   37.1228 H         1 VG51447     0.0000 
     80 H          27.1231   -4.4364   34.7247 H         1 VG51447     0.0000 
     81 H          27.1616   -2.8687   34.3683 H         1 VG51447     0.0000 
     82 H          27.0642   -3.9590   33.1901 H         1 VG51447     0.0000 
     83 H          27.3298    3.9790   31.3899 H         1 VG51447     0.0000 
@<TRIPOS>BOND
     1    2    1 ar   
     2    6    1 ar   
     3   36    1 1    
     4    3    2 ar   
     5   42    2 1    
     6    4    3 ar   
     7    7    3 1    
     8    5    4 ar   
     9   43    4 1    
    10    6    5 ar   
    11   33    5 1    
    12   44    6 1    
    13    8    7 am   
    14    9    7 2    
    15   10    8 1    
    16   45    8 1    
    17   11   10 1    
    18   12   10 1    
    19   46   10 1    
    20   14   11 1    
    21   47   11 1    
    22   48   11 1    
    23   13   12 1    
    24   15   12 1    
    25   49   12 1    
    26   83   13 1    
    27   28   14 ar   
    28   32   14 ar   
    29   16   15 1    
    30   50   15 1    
    31   51   15 1    
    32   17   16 1    
    33   18   17 1    
    34   22   17 1    
    35   52   17 1    
    36   19   18 am   
    37   20   18 2    
    38   21   19 1    
    39   53   19 1    
    40   23   21 1    
    41   27   21 1    
    42   54   21 1    
    43   77   22 1    
    44   78   22 1    
    45   79   22 1    
    46   24   23 1    
    47   55   23 1    
    48   56   23 1    
    49   25   24 1    
    50   57   24 1    
    51   58   24 1    
    52   26   25 1    
    53   59   25 1    
    54   60   25 1    
    55   27   26 1    
    56   61   26 1    
    57   62   26 1    
    58   63   27 1    
    59   64   27 1    
    60   29   28 ar   
    61   65   28 1    
    62   30   29 ar   
    63   66   29 1    
    64   31   30 ar   
    65   67   30 1    
    66   32   31 ar   
    67   68   31 1    
    68   69   32 1    
    69   34   33 1    
    70   70   33 1    
    71   35   34 1    
    72   71   34 1    
    73   72   34 1    
    74   80   35 1    
    75   81   35 1    
    76   82   35 1    
    77   37   36 1    
    78   40   36 am   
    79   38   37 2    
    80   73   37 1    
    81   39   38 1    
    82   74   38 1    
    83   40   39 1    
    84   75   39 1    
    85   76   39 1    
    86   41   40 2    
@<TRIPOS>SUBSTRUCTURE
     1 VG51447     1 GROUP   
@<TRIPOS>SET

