#    Name: 3np7_Z15_1_INTS_M
#    Modification time : Tue Mar 25 01:55:32 2014

@<TRIPOS>MOLECULE
3np7_Z15_1_INTS_M
   49     0     9     0     0
SMALL
NO_CHARGES


@<TRIPOS>ATOM
      1 O           7.7645   24.3780   34.7200 O.2       1 ALC1        0.0000 
      2 O           6.6790   24.2560   33.4700 O.2       7 ALL1        0.0000 
      3 O           8.8500   24.5000   35.9700 O.2       4 ALP1        0.0000 
      4 CA          5.4320   26.7655   29.1535 C.3       3 GLC5        0.0000 
      5 CA          7.1580   27.8430   29.8960 C.3       9 GLL5        0.0000 
      6 CA          3.7060   25.6880   28.4110 C.3       6 GLP5        0.0000 
      7 CA          7.1410   28.4535   28.2070 C.3       3 GLC5        0.0000 
      8 CA          7.1240   29.0640   26.5180 C.3       6 GLP5        0.0000 
      9 CA          8.9795   27.4385   31.0115 C.3       3 GLC5        0.0000 
     10 CA         10.8010   27.0340   32.1270 C.3       6 GLP5        0.0000 
     11 CA          5.4915   22.7240   30.6095 C.3       3 GLC5        0.0000 
     12 CA          7.0930   21.1790   30.8090 C.3       9 GLL5        0.0000 
     13 CA          3.8900   24.2690   30.4100 C.3       6 GLP5        0.0000 
     14 O           4.6000   20.7200   31.8715 O.2       1 ALC1        0.0000 
     15 O           5.6900   21.4150   30.7070 O.2       7 ALL1        0.0000 
     16 O           3.5100   20.0250   33.0360 O.2       4 ALP1        0.0000 
     17 CA          7.4960   18.2370   29.7080 C.3       3 GLC5        0.0000 
     18 CA          7.3120   19.7590   31.3100 C.3       9 GLL5        0.0000 
     19 CA          7.6800   16.7150   28.1060 C.3       6 GLP5        0.0000 
     20 CA         10.2995   18.8805   30.3865 C.3       3 GLC5        0.0000 
     21 CA          8.7960   19.5050   31.5360 C.3       9 GLL5        0.0000 
     22 CA         11.8030   18.2560   29.2370 C.3       6 GLP5        0.0000 
     23 N           8.9120   17.2805   33.0385 N.am      2 SEC2        0.0000 
     24 N           8.9390   18.2170   32.1220 N.am      8 SEL2        0.0000 
     25 N           8.8850   16.3440   33.9550 N.am      5 SEP2        0.0000 
     26 O           9.5905   17.4680   31.5130 O.2       1 ALC1        0.0000 
     27 O           8.9390   18.2170   32.1220 O.2       7 ALL1        0.0000 
     28 O          10.2420   16.7190   30.9040 O.2       4 ALP1        0.0000 
     29 CA         11.9500   18.9480   32.8265 C.3       3 GLC5        0.0000 
     30 CA         10.9080   20.4670   32.6260 C.3       9 GLL5        0.0000 
     31 CA         12.9920   17.4290   33.0270 C.3       6 GLP5        0.0000 
     32 CA         11.3555   19.3615   30.9315 C.3       3 GLC5        0.0000 
     33 CA         12.6615   21.1160   31.9470 C.3       3 GLC5        0.0000 
     34 CA         14.4150   21.7650   31.2680 C.3       6 GLP5        0.0000 
     35 CA          8.6315   25.9560   32.7535 C.3       3 GLC5        0.0000 
     36 CA          7.0580   24.5830   32.1970 C.3       9 GLL5        0.0000 
     37 CA         10.2750   26.6700   33.5240 C.3       6 GLP5        0.0000 
     38 CA          9.4597   24.7963   30.9855 C.3       3 GLC5        0.0000 
     39 CA          7.5850   23.6210   31.3240 C.3       9 GLL5        0.0000 
     40 CA         11.1380   25.7980   31.2950 C.3       6 GLP5        0.0000 
     41 CA          9.3545   25.7777   30.6683 C.3       3 GLC5        0.0000 
     42 CA          7.8320   25.2840   29.6080 C.3       9 GLL5        0.0000 
     43 CA          5.9247   24.9062   29.5403 C.3       3 GLC5        0.0000 
     44 CA          7.3100   26.2310   30.4750 C.3       9 GLL5        0.0000 
     45 CA          4.2420   24.3840   28.9340 C.3       6 GLP5        0.0000 
     46 CA          7.1980   28.8675   30.2728 C.3       3 GLC5        0.0000 
     47 CA          7.1620   30.6980   30.3600 C.3       6 GLP5        0.0000 
     48 CA          5.5049   24.6352   31.0874 C.3       3 GLC5        0.0000 
     49 CA          6.9180   25.9010   31.7690 C.3       9 GLL5        0.0000 
@<TRIPOS>BOND
@<TRIPOS>SUBSTRUCTURE
     1 ALC1        1 GROUP        1 X    ALC  0     ROOT ALC X 1
     2 SEC2       23 GROUP        1 X    SEC  0     **** SEC X 2
     3 GLC5        4 GROUP        1 X    GLC  0     **** GLC X 6
     4 ALP1        3 GROUP        1 Y    ALP  0     ROOT ALP Y 8
     5 SEP2       25 GROUP        1 Y    SEP  0     **** SEP Y 9
     6 GLP5        6 GROUP        1 Y    GLP  0     **** GLP Y 13
     7 ALL1        2 GROUP        1 Z    ALL  0     ROOT ALL Z 15
     8 SEL2       24 GROUP        1 Z    SEL  0     **** SEL Z 16
     9 GLL5        5 GROUP        1 Z    GLL  0     **** GLL Z 20
@<TRIPOS>SET

