#    Name: 3np7_Z15_1_ligand
#    Modification time : Tue Mar 25 01:55:32 2014

@<TRIPOS>MOLECULE
3np7_Z15_1_ligand
   35    36     1     0     0
SMALL
NO_CHARGES


@<TRIPOS>ATOM
      1 C1          7.0580   24.5830   32.1970 C.ar      1 Z15997      0.0000 
      2 O1          6.6790   24.2560   33.4700 O.3       1 Z15997      0.0000 
      3 C2          7.5850   23.6210   31.3240 C.ar      1 Z15997      0.0000 
      4 C3          7.9780   23.9680   30.0280 C.ar      1 Z15997      0.0000 
      5 C4          7.8320   25.2840   29.6080 C.ar      1 Z15997      0.0000 
      6 O4          8.1930   25.6720   28.3580 O.3       1 Z15997      0.0000 
      7 C5          7.3100   26.2310   30.4750 C.ar      1 Z15997      0.0000 
      8 CL5         7.1580   27.8430   29.8960 Cl        1 Z15997      0.0000 
      9 C6          6.9180   25.9010   31.7690 C.ar      1 Z15997      0.0000 
     10 C1'         7.7450   22.1740   31.7840 C.3       1 Z15997      0.0000 
     11 C2'         7.0930   21.1790   30.8090 C.3       1 Z15997      0.0000 
     12 O2'         5.6900   21.4150   30.7070 O.3       1 Z15997      0.0000 
     13 C3'         7.3120   19.7590   31.3100 C.3       1 Z15997      0.0000 
     14 O3'         6.8030   18.8450   30.3470 O.3       1 Z15997      0.0000 
     15 C4'         8.7960   19.5050   31.5360 C.3       1 Z15997      0.0000 
     16 O4'         8.9390   18.2170   32.1220 O.3       1 Z15997      0.0000 
     17 C5'         9.3950   20.5800   32.4560 C.3       1 Z15997      0.0000 
     18 O5'         9.1570   21.8840   31.8700 O.3       1 Z15997      0.0000 
     19 C6'        10.9080   20.4670   32.6260 C.3       1 Z15997      0.0000 
     20 O6'        11.5190   20.7460   31.3470 O.3       1 Z15997      0.0000 
     21 H           8.3664   23.2612   29.4022 H         1 Z15997      0.0000 
     22 H           6.5353   26.6107   32.3926 H         1 Z15997      0.0000 
     23 H           7.2798   22.0643   32.7472 H         1 Z15997      0.0000 
     24 H           7.5810   21.2761   29.8542 H         1 Z15997      0.0000 
     25 H           6.8021   19.6551   32.2558 H         1 Z15997      0.0000 
     26 H           9.2950   19.5590   30.5826 H         1 Z15997      0.0000 
     27 H           8.9322   20.5211   33.4201 H         1 Z15997      0.0000 
     28 H          11.1375   19.4615   32.9673 H         1 Z15997      0.0000 
     29 H          11.2195   21.1824   33.3818 H         1 Z15997      0.0000 
     30 H           7.4856   24.4336   34.0337 H         1 Z15997      0.0000 
     31 H           8.3932   24.8219   27.8710 H         1 Z15997      0.0000 
     32 H           5.2906   20.9444   31.4938 H         1 Z15997      0.0000 
     33 H           7.5795   18.6368   29.7523 H         1 Z15997      0.0000 
     34 H           9.0384   17.5906   31.3488 H         1 Z15997      0.0000 
     35 H          11.0683   21.5769   31.0207 H         1 Z15997      0.0000 
@<TRIPOS>BOND
     1    2    1 1    
     2    3    1 ar   
     3    9    1 ar   
     4   30    2 1    
     5    4    3 ar   
     6   10    3 1    
     7    5    4 ar   
     8   21    4 1    
     9    6    5 1    
    10    7    5 ar   
    11   31    6 1    
    12    8    7 1    
    13    9    7 ar   
    14   22    9 1    
    15   11   10 1    
    16   18   10 1    
    17   23   10 1    
    18   12   11 1    
    19   13   11 1    
    20   24   11 1    
    21   32   12 1    
    22   14   13 1    
    23   15   13 1    
    24   25   13 1    
    25   33   14 1    
    26   16   15 1    
    27   17   15 1    
    28   26   15 1    
    29   34   16 1    
    30   18   17 1    
    31   19   17 1    
    32   27   17 1    
    33   20   19 1    
    34   28   19 1    
    35   29   19 1    
    36   35   20 1    
@<TRIPOS>SUBSTRUCTURE
     1 Z15997      1 GROUP   
@<TRIPOS>SET

