#    Name: 2xkb_GDP_5_INTS_M
#    Modification time : Tue Mar 25 06:12:11 2014

@<TRIPOS>MOLECULE
2xkb_GDP_5_INTS_M
   39     0     9     0     0
SMALL
NO_CHARGES


@<TRIPOS>ATOM
      1 N          23.2200   -6.3335   46.8220 N.am      2 SEC2        0.0000 
      2 N          22.2600   -7.1120   46.1010 N.am      8 SEL2        0.0000 
      3 N          24.1800   -5.5550   47.5430 N.am      5 SEP2        0.0000 
      4 N          19.4995   -8.7380   44.0555 N.am      2 SEC2        0.0000 
      5 N          20.8000   -8.8900   45.1050 N.am      8 SEL2        0.0000 
      6 N          18.1990   -8.5860   43.0060 N.am      5 SEP2        0.0000 
      7 N          19.3085   -8.4495   45.4990 N.am      2 SEC2        0.0000 
      8 N          17.8170   -8.0090   45.8930 N.am      5 SEP2        0.0000 
      9 N          19.2745   -5.8155   45.6065 N.am      2 SEC2        0.0000 
     10 N          20.1240   -6.5060   45.0470 N.am      8 SEL2        0.0000 
     11 N          18.4250   -5.1250   46.1660 N.am      5 SEP2        0.0000 
     12 N          24.7120   -4.5750   44.9410 N.am      2 SEC2        0.0000 
     13 N          23.7770   -5.4950   44.3290 N.am      8 SEL2        0.0000 
     14 N          25.6470   -3.6550   45.5530 N.am      5 SEP2        0.0000 
     15 CA         20.9900   -6.1575   41.4025 C.3       3 GLC5        0.0000 
     16 CA         22.5460   -5.2040   41.2650 C.3       9 GLL5        0.0000 
     17 CA         19.4340   -7.1110   41.5400 C.3       6 GLP5        0.0000 
     18 O          22.6750   -6.0955   36.7960 O.2       1 ALC1        0.0000 
     19 O          22.9880   -5.0940   37.6470 O.2       7 ALL1        0.0000 
     20 O          22.3620   -7.0970   35.9450 O.2       4 ALP1        0.0000 
     21 CA         28.9885   -3.6160   43.4885 C.3       3 GLC5        0.0000 
     22 CA         28.0080   -2.9750   41.6530 C.3       9 GLL5        0.0000 
     23 CA         29.9690   -4.2570   45.3240 C.3       6 GLP5        0.0000 
     24 CA         29.5735   -3.8990   41.0060 C.3       3 GLC5        0.0000 
     25 CA         31.1390   -4.8230   40.3590 C.3       6 GLP5        0.0000 
     26 N          30.4360   -0.8125   43.5075 N.am      2 SEC2        0.0000 
     27 N          29.8220   -2.0390   42.9480 N.am      8 SEL2        0.0000 
     28 N          31.0500    0.4140   44.0670 N.am      5 SEP2        0.0000 
     29 O          29.4040    0.5075   42.0220 O.2       1 ALC1        0.0000 
     30 O          28.8220   -0.6980   41.4520 O.2       7 ALL1        0.0000 
     31 O          29.9860    1.7130   42.5920 O.2       4 ALP1        0.0000 
     32 O          28.9330    1.2425   41.2860 O.2       1 ALC1        0.0000 
     33 O          27.8800    0.7720   39.9800 O.2       7 ALL1        0.0000 
     34 CA         22.2740   -3.1240   41.3478 C.3       3 GLC5        0.0000 
     35 CA         22.9340   -4.5660   39.9240 C.3       9 GLL5        0.0000 
     36 CA         21.8080   -1.3630   42.1010 C.3       6 GLP5        0.0000 
     37 CA         26.5132   -1.7995   42.0592 C.3       3 GLC5        0.0000 
     38 CA         27.0190   -2.6570   40.6120 C.3       9 GLL5        0.0000 
     39 CA         25.5130   -0.7830   42.9860 C.3       6 GLP5        0.0000 
@<TRIPOS>BOND
@<TRIPOS>SUBSTRUCTURE
     1 ALC1       18 GROUP        1 X    ALC  0     ROOT ALC X 1
     2 SEC2        1 GROUP        1 X    SEC  0     **** SEC X 2
     3 GLC5       15 GROUP        1 X    GLC  0     **** GLC X 6
     4 ALP1       20 GROUP        1 Y    ALP  0     ROOT ALP Y 8
     5 SEP2        3 GROUP        1 Y    SEP  0     **** SEP Y 9
     6 GLP5       17 GROUP        1 Y    GLP  0     **** GLP Y 13
     7 ALL1       19 GROUP        1 Z    ALL  0     ROOT ALL Z 15
     8 SEL2        2 GROUP        1 Z    SEL  0     **** SEL Z 16
     9 GLL5       16 GROUP        1 Z    GLL  0     **** GLL Z 20
@<TRIPOS>SET

