#    Name: 2xkb_GDP_5_ligand
#    Modification time : Tue Mar 25 06:12:12 2014

@<TRIPOS>MOLECULE
2xkb_GDP_5_ligand
   40    42     1     0     0
SMALL
NO_CHARGES


@<TRIPOS>ATOM
      1 PB         21.2960   -7.4500   44.9800 P.3       1 GDP900      0.0000 
      2 O1B        22.2600   -7.1120   46.1010 O.co2     1 GDP900      0.0000 
      3 O2B        20.8000   -8.8900   45.1050 O.co2     1 GDP900      0.0000 
      4 O3B        20.1240   -6.5060   45.0470 O.co2     1 GDP900      0.0000 
      5 O3A        22.0300   -7.2130   43.5490 O.3       1 GDP900      0.0000 
      6 PA         23.5220   -6.5990   43.3430 P.3       1 GDP900      0.0000 
      7 O1A        24.5310   -7.7160   43.4950 O.co2     1 GDP900      0.0000 
      8 O2A        23.7770   -5.4950   44.3290 O.co2     1 GDP900      0.0000 
      9 O5'        23.5850   -6.0160   41.8240 O.3       1 GDP900      0.0000 
     10 C5'        22.5460   -5.2040   41.2650 C.3       1 GDP900      0.0000 
     11 C4'        22.9340   -4.5660   39.9240 C.3       1 GDP900      0.0000 
     12 O4'        23.9470   -3.5530   40.0600 O.3       1 GDP900      0.0000 
     13 C3'        23.4870   -5.5480   38.9090 C.3       1 GDP900      0.0000 
     14 O3'        22.9880   -5.0940   37.6470 O.3       1 GDP900      0.0000 
     15 C2'        25.0010   -5.3830   39.0270 C.3       1 GDP900      0.0000 
     16 O2'        25.7120   -5.6940   37.8290 O.3       1 GDP900      0.0000 
     17 C1'        25.1880   -3.9350   39.4420 C.3       1 GDP900      0.0000 
     18 N9         26.3050   -3.7790   40.4100 N.pl3     1 GDP900      0.0000 
     19 C8         26.7650   -4.7380   41.2380 C.2       1 GDP900      0.0000 
     20 N7         27.7940   -4.2700   41.9970 N.2       1 GDP900      0.0000 
     21 C5         28.0080   -2.9750   41.6530 C.2       1 GDP900      0.0000 
     22 C6         28.9450   -1.8840   42.0570 C.2       1 GDP900      0.0000 
     23 O6         29.8220   -2.0390   42.9480 O.2       1 GDP900      0.0000 
     24 N1         28.8220   -0.6980   41.4520 N.am      1 GDP900      0.0000 
     25 C2         27.9060   -0.4640   40.5130 C.2       1 GDP900      0.0000 
     26 N2         27.8800    0.7720   39.9800 N.pl3     1 GDP900      0.0000 
     27 N3         27.0250   -1.4030   40.0930 N.2       1 GDP900      0.0000 
     28 C4         27.0190   -2.6570   40.6120 C.2       1 GDP900      0.0000 
     29 H          22.2629   -4.3804   41.9522 H         1 GDP900      0.0000 
     30 H          21.6209   -5.7921   41.0948 H         1 GDP900      0.0000 
     31 H          22.0372   -4.1171   39.4808 H         1 GDP900      0.0000 
     32 H          23.1993   -6.5055   39.1698 H         1 GDP900      0.0000 
     33 H          25.3210   -5.9939   39.8686 H         1 GDP900      0.0000 
     34 H          25.3642   -3.3518   38.5641 H         1 GDP900      0.0000 
     35 H          26.4122   -5.6499   41.2921 H         1 GDP900      0.0000 
     36 H          29.4820    0.0881   41.7326 H         1 GDP900      0.0000 
     37 H          27.1920    0.9315   39.2720 H         1 GDP900      0.0000 
     38 H          28.5510    1.4205   40.3396 H         1 GDP900      0.0000 
     39 H          23.3039   -5.7732   36.9844 H         1 GDP900      0.0000 
     40 H          26.6479   -5.3838   37.9957 H         1 GDP900      0.0000 
@<TRIPOS>BOND
     1    2    1 ar   
     2    3    1 ar   
     3    4    1 ar   
     4    5    1 1    
     5    6    5 1    
     6    7    6 ar   
     7    8    6 ar   
     8    9    6 1    
     9   10    9 1    
    10   11   10 1    
    11   29   10 1    
    12   30   10 1    
    13   12   11 1    
    14   13   11 1    
    15   31   11 1    
    16   17   12 1    
    17   14   13 1    
    18   15   13 1    
    19   32   13 1    
    20   39   14 1    
    21   16   15 1    
    22   17   15 1    
    23   33   15 1    
    24   40   16 1    
    25   18   17 1    
    26   34   17 1    
    27   19   18 1    
    28   28   18 1    
    29   20   19 2    
    30   35   19 1    
    31   21   20 1    
    32   22   21 1    
    33   28   21 2    
    34   23   22 2    
    35   24   22 am   
    36   25   24 1    
    37   36   24 1    
    38   26   25 1    
    39   27   25 2    
    40   37   26 1    
    41   38   26 1    
    42   28   27 1    
@<TRIPOS>SUBSTRUCTURE
     1 GDP900      1 GROUP   
@<TRIPOS>SET

