#    Name: 3uim_ANP_1_INTS_M
#    Modification time : Mon Mar 24 22:35:45 2014

@<TRIPOS>MOLECULE
3uim_ANP_1_INTS_M
   41     0    12     0     0
SMALL
NO_CHARGES


@<TRIPOS>ATOM
      1 NZ          5.5330    6.4985  -11.0325 N.4       3 LYC4        0.0000 
      2 NZ          7.1200    6.4530  -10.2390 N.4      11 LYL4        0.0000 
      3 NZ          3.9460    6.5440  -11.8260 N.4       7 LYP4        0.0000 
      4 NZ          6.9895   -0.2245  -15.7750 N.4       3 LYC4        0.0000 
      5 NZ          8.0360    1.0990  -14.8960 N.4      11 LYL4        0.0000 
      6 NZ          5.9430   -1.5480  -16.6540 N.4       7 LYP4        0.0000 
      7 CA         13.0785    4.8240  -15.6530 C.3       4 GLC5        0.0000 
      8 CA         12.8790    2.6390  -15.2720 C.3      12 GLL5        0.0000 
      9 CA         13.2780    7.0090  -16.0340 C.3       8 GLP5        0.0000 
     10 CA         14.1465   -0.3540  -14.9335 C.3       4 GLC5        0.0000 
     11 CA         13.0120    1.1890  -15.6090 C.3      12 GLL5        0.0000 
     12 CA         15.2810   -1.8970  -14.2580 C.3       8 GLP5        0.0000 
     13 CA         12.5085   -0.6650  -14.8665 C.3       4 GLC5        0.0000 
     14 CA         12.0050   -2.5190  -14.1240 C.3       8 GLP5        0.0000 
     15 CA         14.8655   -0.7360  -21.6225 C.3       4 GLC5        0.0000 
     16 CA         13.4360    0.1670  -20.3690 C.3      12 GLL5        0.0000 
     17 CA         16.2950   -1.6390  -22.8760 C.3       8 GLP5        0.0000 
     18 CA         14.5280    1.5980  -21.4540 C.3       4 GLC5        0.0000 
     19 CA         15.6200    3.0290  -22.5390 C.3       8 GLP5        0.0000 
     20 O          13.3000   -0.6055  -22.6925 O.2       1 ALC1        0.0000 
     21 O          12.7480   -0.2850  -21.5340 O.2       9 ALL1        0.0000 
     22 O          13.8520   -0.9260  -23.8510 O.2       5 ALP1        0.0000 
     23 N          15.6390    0.5940  -21.4410 N.am      2 SEC2        0.0000 
     24 N          14.7490    0.4500  -20.4220 N.am     10 SEL2        0.0000 
     25 N          16.5290    0.7380  -22.4600 N.am      6 SEP2        0.0000 
     26 CA         15.8600   -0.3840  -21.1105 C.3       4 GLC5        0.0000 
     27 CA         15.4250    0.8710  -19.3450 C.3      12 GLL5        0.0000 
     28 CA         15.5225    1.9500  -20.9420 C.3       4 GLC5        0.0000 
     29 CA         13.6645    1.9745  -20.1995 C.3       4 GLC5        0.0000 
     30 CA         11.9040    3.0780  -21.0540 C.3       8 GLP5        0.0000 
     31 CA         14.4110   -0.9745  -17.3280 C.3       4 GLC5        0.0000 
     32 CA         13.5120    0.7630  -18.0370 C.3      12 GLL5        0.0000 
     33 CA         15.3100   -2.7120  -16.6190 C.3       8 GLP5        0.0000 
     34 CA         12.1690   -0.1545  -11.7912 C.3       4 GLC5        0.0000 
     35 CA         12.2150    1.3040  -13.4600 C.3      12 GLL5        0.0000 
     36 CA         12.7840   -1.6030  -10.3840 C.3       8 GLP5        0.0000 
     37 CA         11.7795   -0.6125  -13.6613 C.3       4 GLC5        0.0000 
     38 CA         13.4074   -1.3735  -19.4391 C.3       4 GLC5        0.0000 
     39 CA         12.7830    0.3230  -19.1420 C.3      12 GLL5        0.0000 
     40 CA         13.5040   -3.2510  -19.9820 C.3       8 GLP5        0.0000 
     41 CA         12.6074    1.7910  -19.9751 C.3       4 GLC5        0.0000 
@<TRIPOS>BOND
@<TRIPOS>SUBSTRUCTURE
     1 ALC1       20 GROUP        1 X    ALC  0     ROOT ALC X 1
     2 SEC2       23 GROUP        1 X    SEC  0     **** SEC X 2
     3 LYC4        1 GROUP        1 X    LYC  0     **** LYC X 4
     4 GLC5        7 GROUP        1 X    GLC  0     **** GLC X 6
     5 ALP1       22 GROUP        1 Y    ALP  0     ROOT ALP Y 8
     6 SEP2       25 GROUP        1 Y    SEP  0     **** SEP Y 9
     7 LYP4        3 GROUP        1 Y    LYP  0     **** LYP Y 11
     8 GLP5        9 GROUP        1 Y    GLP  0     **** GLP Y 13
     9 ALL1       21 GROUP        1 Z    ALL  0     ROOT ALL Z 15
    10 SEL2       24 GROUP        1 Z    SEL  0     **** SEL Z 16
    11 LYL4        2 GROUP        1 Z    LYL  0     **** LYL Z 18
    12 GLL5        8 GROUP        1 Z    GLL  0     **** GLL Z 20
@<TRIPOS>SET

