#    Name: 3uim_ANP_1_ligand
#    Modification time : Mon Mar 24 22:35:45 2014

@<TRIPOS>MOLECULE
3uim_ANP_1_ligand
   43    45     1     0     0
SMALL
NO_CHARGES


@<TRIPOS>ATOM
      1 PG          7.2150    4.8920  -10.3100 P.3       1 ANP1000     0.0000 
      2 O1G         8.6860    4.4780  -10.6830 O.co2     1 ANP1000     0.0000 
      3 O2G         7.1200    6.4530  -10.2390 O.co2     1 ANP1000     0.0000 
      4 O3G         6.8700    4.3320   -8.9610 O.co2     1 ANP1000     0.0000 
      5 PB          6.4320    2.8200  -12.0750 P.3       1 ANP1000     0.0000 
      6 O1B         5.1630    2.2260  -12.7920 O.co2     1 ANP1000     0.0000 
      7 O2B         6.7410    1.8770  -10.8890 O.co2     1 ANP1000     0.0000 
      8 N3B         6.1120    4.3400  -11.4510 N.4       1 ANP1000     0.0000 
      9 PA          8.4650    1.6470  -13.5500 P.3       1 ANP1000     0.0000 
     10 O1A         8.0360    1.0990  -14.8960 O.co2     1 ANP1000     0.0000 
     11 O2A         8.3470    0.5470  -12.5120 O.co2     1 ANP1000     0.0000 
     12 O3A         7.5750    2.9050  -13.1540 O.3       1 ANP1000     0.0000 
     13 O5'         9.9760    2.0690  -13.6250 O.3       1 ANP1000     0.0000 
     14 C5'        10.8930    1.2840  -12.9370 C.3       1 ANP1000     0.0000 
     15 C4'        12.2150    1.3040  -13.4600 C.3       1 ANP1000     0.0000 
     16 O4'        12.2430    0.4910  -14.6740 O.3       1 ANP1000     0.0000 
     17 C3'        12.4510    2.6940  -13.8660 C.3       1 ANP1000     0.0000 
     18 O3'        13.3750    3.2870  -13.0380 O.3       1 ANP1000     0.0000 
     19 C2'        12.8790    2.6390  -15.2720 C.3       1 ANP1000     0.0000 
     20 O2'        14.0760    3.2630  -15.3980 O.3       1 ANP1000     0.0000 
     21 C1'        13.0120    1.1890  -15.6090 C.3       1 ANP1000     0.0000 
     22 N9         12.6570    0.8360  -16.9880 N.pl3     1 ANP1000     0.0000 
     23 C8         11.4440    0.4500  -17.4160 C.2       1 ANP1000     0.0000 
     24 N7         11.5070    0.1400  -18.7290 N.2       1 ANP1000     0.0000 
     25 C5         12.7830    0.3230  -19.1420 C.ar      1 ANP1000     0.0000 
     26 C6         13.4360    0.1670  -20.3690 C.ar      1 ANP1000     0.0000 
     27 N6         12.7480   -0.2850  -21.5340 N.pl3     1 ANP1000     0.0000 
     28 N1         14.7490    0.4500  -20.4220 N.ar      1 ANP1000     0.0000 
     29 C2         15.4250    0.8710  -19.3450 C.ar      1 ANP1000     0.0000 
     30 N3         14.8240    1.0310  -18.1650 N.ar      1 ANP1000     0.0000 
     31 C4         13.5120    0.7630  -18.0370 C.ar      1 ANP1000     0.0000 
     32 H          10.5321    0.2099  -12.8899 H         1 ANP1000     0.0000 
     33 H          10.9250    1.5854  -11.8441 H         1 ANP1000     0.0000 
     34 H          12.9282    0.9936  -12.7679 H         1 ANP1000     0.0000 
     35 H          11.4817    3.2078  -13.8336 H         1 ANP1000     0.0000 
     36 H          12.1048    3.0568  -15.8847 H         1 ANP1000     0.0000 
     37 H          14.0853    0.9283  -15.4441 H         1 ANP1000     0.0000 
     38 H          10.6408    0.3999  -16.8680 H         1 ANP1000     0.0000 
     39 H          11.7668   -0.4478  -21.4302 H         1 ANP1000     0.0000 
     40 H          13.3047   -0.4011  -22.3565 H         1 ANP1000     0.0000 
     41 H          16.4562    1.0802  -19.4346 H         1 ANP1000     0.0000 
     42 H          13.0476    4.2237  -12.9138 H         1 ANP1000     0.0000 
     43 H          14.2963    3.5882  -14.4784 H         1 ANP1000     0.0000 
@<TRIPOS>BOND
     1    2    1 ar   
     2    3    1 ar   
     3    4    1 ar   
     4    8    1 1    
     5    6    5 ar   
     6    7    5 ar   
     7    8    5 1    
     8   12    5 1    
     9   10    9 ar   
    10   11    9 ar   
    11   12    9 1    
    12   13    9 1    
    13   14   13 1    
    14   15   14 1    
    15   32   14 1    
    16   33   14 1    
    17   16   15 1    
    18   17   15 1    
    19   34   15 1    
    20   21   16 1    
    21   18   17 1    
    22   19   17 1    
    23   35   17 1    
    24   42   18 1    
    25   20   19 1    
    26   21   19 1    
    27   36   19 1    
    28   43   20 1    
    29   22   21 1    
    30   37   21 1    
    31   23   22 1    
    32   31   22 1    
    33   24   23 2    
    34   38   23 1    
    35   25   24 1    
    36   26   25 ar   
    37   31   25 ar   
    38   27   26 1    
    39   28   26 ar   
    40   39   27 1    
    41   40   27 1    
    42   29   28 ar   
    43   30   29 ar   
    44   41   29 1    
    45   31   30 ar   
@<TRIPOS>SUBSTRUCTURE
     1 ANP1000     1 GROUP   
@<TRIPOS>SET

