#    Name: 1t5b_FMN_1_INTS_M
#    Modification time : Tue Mar 25 04:23:02 2014

@<TRIPOS>MOLECULE
1t5b_FMN_1_INTS_M
   69     0     9     0     0
SMALL
NO_CHARGES


@<TRIPOS>ATOM
      1 N          -1.2580   47.7055   28.8805 N.am      2 SEC2        0.0000 
      2 N          -1.2720   46.3700   27.9230 N.am      8 SEL2        0.0000 
      3 N          -1.2440   49.0410   29.8380 N.am      5 SEP2        0.0000 
      4 N           0.7055   46.9890   29.9575 N.am      2 SEC2        0.0000 
      5 N           0.8520   46.4330   28.6870 N.am      8 SEL2        0.0000 
      6 N           0.5590   47.5450   31.2280 N.am      5 SEP2        0.0000 
      7 N           2.0975   46.3765   28.5360 N.am      2 SEC2        0.0000 
      8 N           3.3430   46.3200   28.3850 N.am      5 SEP2        0.0000 
      9 N           0.3575   44.0325   23.5765 N.am      2 SEC2        0.0000 
     10 N          -0.0200   43.7650   25.0060 N.am      8 SEL2        0.0000 
     11 N           0.7350   44.3000   22.1470 N.am      5 SEP2        0.0000 
     12 N          -2.4685   44.4265   23.8135 N.am      2 SEC2        0.0000 
     13 N          -2.8460   44.5490   25.1170 N.am      8 SEL2        0.0000 
     14 N          -2.0910   44.3040   22.5100 N.am      5 SEP2        0.0000 
     15 CA         -5.3475   45.7780   22.6140 C.3       3 GLC5        0.0000 
     16 CA         -6.5070   44.7550   24.1040 C.3       9 GLL5        0.0000 
     17 CA         -4.1880   46.8010   21.1240 C.3       6 GLP5        0.0000 
     18 CA         -8.1750   43.9875   21.5695 C.3       3 GLC5        0.0000 
     19 CA         -7.4020   44.1560   23.0250 C.3       9 GLL5        0.0000 
     20 CA         -8.9480   43.8190   20.1140 C.3       6 GLP5        0.0000 
     21 CA         -9.4390   44.0590   23.4265 C.3       3 GLC5        0.0000 
     22 CA        -11.4760   43.9620   23.8280 C.3       6 GLP5        0.0000 
     23 CA         -9.9650   45.1110   24.5485 C.3       3 GLC5        0.0000 
     24 CA         -8.4540   46.2600   25.2690 C.3       9 GLL5        0.0000 
     25 N          -2.0185   49.0570   28.3560 N.am      2 SEC2        0.0000 
     26 N          -2.7930   49.0730   26.8740 N.am      8 SEL2        0.0000 
     27 O          -2.5770   48.5305   25.6440 O.2       1 ALC1        0.0000 
     28 O          -2.7930   49.0730   26.8740 O.2       7 ALL1        0.0000 
     29 O          -2.3610   47.9880   24.4140 O.2       4 ALP1        0.0000 
     30 CA         -3.4735   52.8955   27.8750 C.3       3 GLC5        0.0000 
     31 CA         -4.4420   51.0910   27.9430 C.3       9 GLL5        0.0000 
     32 CA         -2.5050   54.7000   27.8070 C.3       6 GLP5        0.0000 
     33 O          -3.9790   53.2370   27.8685 O.2       1 ALC1        0.0000 
     34 O          -4.5280   52.1050   28.9530 O.2       7 ALL1        0.0000 
     35 O          -3.4300   54.3690   26.7840 O.2       4 ALP1        0.0000 
     36 CA         -4.7115   51.9270   25.4475 C.3       3 GLC5        0.0000 
     37 CA         -5.7190   51.1850   27.1720 C.3       9 GLL5        0.0000 
     38 CA         -3.7040   52.6690   23.7230 C.3       6 GLP5        0.0000 
     39 CA         -5.8900   50.3390   25.1410 C.3       3 GLC5        0.0000 
     40 CA         -6.0610   49.4930   23.1100 C.3       6 GLP5        0.0000 
     41 N          -9.1165   53.2515   25.0310 N.am      2 SEC2        0.0000 
     42 N          -8.4570   53.1420   26.3710 N.am      8 SEL2        0.0000 
     43 N          -9.7760   53.3610   23.6910 N.am      5 SEP2        0.0000 
     44 N          -8.7460   54.5545   25.7605 N.am      2 SEC2        0.0000 
     45 N          -9.0350   55.9670   25.1500 N.am      5 SEP2        0.0000 
     46 N          -8.2880   54.2210   27.2590 N.am      2 SEC2        0.0000 
     47 N          -8.1190   55.3000   28.1470 N.am      5 SEP2        0.0000 
     48 N          -7.6300   51.5285   23.4490 N.am      2 SEC2        0.0000 
     49 N          -7.1730   52.3880   24.2930 N.am      8 SEL2        0.0000 
     50 N          -8.0870   50.6690   22.6050 N.am      5 SEP2        0.0000 
     51 N          -7.8555   54.9150   25.3485 N.am      2 SEC2        0.0000 
     52 N          -6.6760   53.8630   25.5470 N.am      8 SEL2        0.0000 
     53 N          -6.3585   55.1910   26.1420 N.am      2 SEC2        0.0000 
     54 N          -6.0410   56.5190   26.7370 N.am      5 SEP2        0.0000 
     55 N          -6.3415   54.9725   24.6910 N.am      2 SEC2        0.0000 
     56 N          -6.0070   56.0820   23.8350 N.am      5 SEP2        0.0000 
     57 CA         -3.0042   43.8530   23.3698 C.3       3 GLC5        0.0000 
     58 CA         -5.0990   44.3390   24.0900 C.3       9 GLL5        0.0000 
     59 CA         -1.3670   43.0900   22.1430 C.3       6 GLP5        0.0000 
     60 CA         -3.8444   45.8563   23.7421 C.3       3 GLC5        0.0000 
     61 CA         -4.1840   44.8930   25.1030 C.3       9 GLL5        0.0000 
     62 CA         -3.0660   46.4970   22.1310 C.3       6 GLP5        0.0000 
     63 CA         -2.9090   48.6344   29.6572 C.3       3 GLC5        0.0000 
     64 CA         -4.3170   49.6990   28.6320 C.3       9 GLL5        0.0000 
     65 CA         -1.6820   48.4390   31.0820 C.3       6 GLP5        0.0000 
     66 CA         -5.5542   53.0205   28.4542 C.3       3 GLC5        0.0000 
     67 CA         -6.0280   54.9030   29.3510 C.3       6 GLP5        0.0000 
     68 CA         -2.2684   50.4651   28.2587 C.3       3 GLC5        0.0000 
     69 CA         -0.2360   50.7920   28.5010 C.3       6 GLP5        0.0000 
@<TRIPOS>BOND
@<TRIPOS>SUBSTRUCTURE
     1 ALC1       27 GROUP        1 X    ALC  0     ROOT ALC X 1
     2 SEC2        1 GROUP        1 X    SEC  0     **** SEC X 2
     3 GLC5       15 GROUP        1 X    GLC  0     **** GLC X 6
     4 ALP1       29 GROUP        1 Y    ALP  0     ROOT ALP Y 8
     5 SEP2        3 GROUP        1 Y    SEP  0     **** SEP Y 9
     6 GLP5       17 GROUP        1 Y    GLP  0     **** GLP Y 13
     7 ALL1       28 GROUP        1 Z    ALL  0     ROOT ALL Z 15
     8 SEL2        2 GROUP        1 Z    SEL  0     **** SEL Z 16
     9 GLL5       16 GROUP        1 Z    GLL  0     **** GLL Z 20
@<TRIPOS>SET

