#    Name: 1t5b_FMN_1_ligand
#    Modification time : Tue Mar 25 04:23:02 2014

@<TRIPOS>MOLECULE
1t5b_FMN_1_ligand
   50    52     1     0     0
SMALL
NO_CHARGES


@<TRIPOS>ATOM
      1 N1         -1.2720   46.3700   27.9230 N.2       1 FMN202      0.0000 
      2 C2          0.0470   46.0080   27.8900 C.2       1 FMN202      0.0000 
      3 O2          0.8520   46.4330   28.6870 O.2       1 FMN202      0.0000 
      4 N3          0.4090   45.0990   26.8490 N.am      1 FMN202      0.0000 
      5 C4         -0.4650   44.5300   25.8480 C.2       1 FMN202      0.0000 
      6 O4         -0.0200   43.7650   25.0060 O.2       1 FMN202      0.0000 
      7 C4A        -1.8110   44.9410   25.9450 C.2       1 FMN202      0.0000 
      8 N5         -2.8460   44.5490   25.1170 N.2       1 FMN202      0.0000 
      9 C5A        -4.1840   44.8930   25.1030 C.ar      1 FMN202      0.0000 
     10 C6         -5.0990   44.3390   24.0900 C.ar      1 FMN202      0.0000 
     11 C7         -6.5070   44.7550   24.1040 C.ar      1 FMN202      0.0000 
     12 C7M        -7.4020   44.1560   23.0250 C.3       1 FMN202      0.0000 
     13 C8         -6.9830   45.7230   25.1410 C.ar      1 FMN202      0.0000 
     14 C8M        -8.4540   46.2600   25.2690 C.3       1 FMN202      0.0000 
     15 C9         -6.0210   46.2250   26.1190 C.ar      1 FMN202      0.0000 
     16 C9A        -4.6040   45.8150   26.1100 C.ar      1 FMN202      0.0000 
     17 N10        -3.5570   46.2480   27.0100 N.pl3     1 FMN202      0.0000 
     18 C10        -2.1750   45.8710   27.0010 C.2       1 FMN202      0.0000 
     19 C1'        -3.9080   47.2490   28.1180 C.3       1 FMN202      0.0000 
     20 C2'        -4.0020   48.6720   27.5480 C.3       1 FMN202      0.0000 
     21 O2'        -2.7930   49.0730   26.8740 O.3       1 FMN202      0.0000 
     22 C3'        -4.3170   49.6990   28.6320 C.3       1 FMN202      0.0000 
     23 O3'        -5.5010   49.3440   29.3640 O.3       1 FMN202      0.0000 
     24 C4'        -4.4420   51.0910   27.9430 C.3       1 FMN202      0.0000 
     25 O4'        -4.5280   52.1050   28.9530 O.3       1 FMN202      0.0000 
     26 C5'        -5.7190   51.1850   27.1720 C.3       1 FMN202      0.0000 
     27 O5'        -5.9380   52.4030   26.5290 O.3       1 FMN202      0.0000 
     28 P          -7.2680   52.5320   25.7650 P.3       1 FMN202      0.0000 
     29 O1P        -8.4570   53.1420   26.3710 O.co2     1 FMN202      0.0000 
     30 O2P        -7.1730   52.3880   24.2930 O.co2     1 FMN202      0.0000 
     31 O3P        -6.6760   53.8630   25.5470 O.co2     1 FMN202      0.0000 
     32 H           1.4308   44.8053   26.7999 H         1 FMN202      0.0000 
     33 H          -4.7671   43.6955   23.4104 H         1 FMN202      0.0000 
     34 H          -6.3333   46.8806   26.8337 H         1 FMN202      0.0000 
     35 H          -3.1382   47.2210   28.8834 H         1 FMN202      0.0000 
     36 H          -4.8628   46.9767   28.5578 H         1 FMN202      0.0000 
     37 H          -4.8417   48.6897   26.8386 H         1 FMN202      0.0000 
     38 H          -3.4466   49.7546   29.2868 H         1 FMN202      0.0000 
     39 H          -3.6163   51.2382   27.3057 H         1 FMN202      0.0000 
     40 H          -6.5589   50.9412   27.8829 H         1 FMN202      0.0000 
     41 H          -5.7330   50.3280   26.4401 H         1 FMN202      0.0000 
     42 H          -7.0809   44.3859   22.1063 H         1 FMN202      0.0000 
     43 H          -7.4361   43.1582   23.0825 H         1 FMN202      0.0000 
     44 H          -8.3431   44.4861   23.0976 H         1 FMN202      0.0000 
     45 H          -8.5503   46.9015   26.0301 H         1 FMN202      0.0000 
     46 H          -8.7474   46.7399   24.4422 H         1 FMN202      0.0000 
     47 H          -9.1074   45.5194   25.4255 H         1 FMN202      0.0000 
     48 H          -2.8086   48.5839   26.0019 H         1 FMN202      0.0000 
     49 H          -5.1674   48.9582   30.2242 H         1 FMN202      0.0000 
     50 H          -4.3181   52.9603   28.4794 H         1 FMN202      0.0000 
@<TRIPOS>BOND
     1    2    1 1    
     2   18    1 2    
     3    3    2 2    
     4    4    2 am   
     5    5    4 am   
     6   32    4 1    
     7    6    5 2    
     8    7    5 1    
     9    8    7 2    
    10   18    7 1    
    11    9    8 1    
    12   10    9 ar   
    13   16    9 ar   
    14   11   10 ar   
    15   33   10 1    
    16   12   11 1    
    17   13   11 ar   
    18   42   12 1    
    19   43   12 1    
    20   44   12 1    
    21   14   13 1    
    22   15   13 ar   
    23   45   14 1    
    24   46   14 1    
    25   47   14 1    
    26   16   15 ar   
    27   34   15 1    
    28   17   16 1    
    29   18   17 1    
    30   19   17 1    
    31   20   19 1    
    32   35   19 1    
    33   36   19 1    
    34   21   20 1    
    35   22   20 1    
    36   37   20 1    
    37   48   21 1    
    38   23   22 1    
    39   24   22 1    
    40   38   22 1    
    41   49   23 1    
    42   25   24 1    
    43   26   24 1    
    44   39   24 1    
    45   50   25 1    
    46   27   26 1    
    47   40   26 1    
    48   41   26 1    
    49   28   27 1    
    50   29   28 ar   
    51   30   28 ar   
    52   31   28 ar   
@<TRIPOS>SUBSTRUCTURE
     1 FMN202      1 GROUP   
@<TRIPOS>SET

