#    Name: 3dea_HZH_2_INTS_M
#    Modification time : Mon Mar 24 23:13:52 2014

@<TRIPOS>MOLECULE
3dea_HZH_2_INTS_M
   36     0     6     0     0
SMALL
NO_CHARGES


@<TRIPOS>ATOM
      1 CA         -3.0840  -17.4865   14.7120 C.3       2 GLC5        0.0000 
      2 CA         -3.8090  -17.3240   12.7080 C.3       6 GLL5        0.0000 
      3 CA         -2.3590  -17.6490   16.7160 C.3       4 GLP5        0.0000 
      4 N          -2.9160  -14.2405   12.1255 N.am      1 SEC2        0.0000 
      5 N          -4.2560  -14.4820   12.4900 N.am      5 SEL2        0.0000 
      6 N          -1.5760  -13.9990   11.7610 N.am      3 SEP2        0.0000 
      7 N          -5.0015  -13.2540   12.1665 N.am      1 SEC2        0.0000 
      8 N          -5.7470  -12.0260   11.8430 N.am      3 SEP2        0.0000 
      9 CA         -3.5345  -15.3950   14.0810 C.3       2 GLC5        0.0000 
     10 CA         -5.5480  -15.6710   14.1950 C.3       6 GLL5        0.0000 
     11 CA         -1.5210  -15.1190   13.9670 C.3       4 GLP5        0.0000 
     12 CA         -5.9675  -14.9985   12.2790 C.3       2 GLC5        0.0000 
     13 CA         -6.3870  -14.3260   10.3630 C.3       4 GLP5        0.0000 
     14 CA         -9.0120  -14.4190   15.1060 C.3       2 GLC5        0.0000 
     15 CA         -8.4620  -15.6970   16.7120 C.3       6 GLL5        0.0000 
     16 CA         -9.5620  -13.1410   13.5000 C.3       4 GLP5        0.0000 
     17 CA         -9.5715  -16.5635   15.1320 C.3       2 GLC5        0.0000 
     18 CA        -10.6810  -17.4300   13.5520 C.3       4 GLP5        0.0000 
     19 CA         -9.4100  -17.8175   15.1210 C.3       2 GLC5        0.0000 
     20 CA         -8.1390  -18.2050   16.6900 C.3       6 GLL5        0.0000 
     21 CA         -4.0320  -17.7655   18.3845 C.3       2 GLC5        0.0000 
     22 CA         -6.0870  -17.9900   18.5690 C.3       6 GLL5        0.0000 
     23 CA         -1.9770  -17.5410   18.2000 C.3       4 GLP5        0.0000 
     24 CA         -2.9200  -16.0987   13.1720 C.3       2 GLC5        0.0000 
     25 CA         -3.7015  -15.6807   10.1775 C.3       2 GLC5        0.0000 
     26 CA         -4.8290  -16.8330   12.0460 C.3       6 GLL5        0.0000 
     27 CA         -2.7490  -14.5890    8.9440 C.3       4 GLP5        0.0000 
     28 CA         -5.6487  -15.6519   10.8909 C.3       2 GLC5        0.0000 
     29 CA         -8.5670  -14.5172   14.1698 C.3       2 GLC5        0.0000 
     30 CA         -7.1040  -16.4880   14.3820 C.3       6 GLL5        0.0000 
     31 CA         -9.1265  -16.6617   14.1958 C.3       2 GLC5        0.0000 
     32 CA         -8.0400  -15.2990   15.2970 C.3       6 GLL5        0.0000 
     33 CA         -6.9725  -14.3465   17.1863 C.3       2 GLC5        0.0000 
     34 CA         -5.6940  -13.1950   18.3680 C.3       4 GLP5        0.0000 
     35 CA         -6.4705  -15.0425   18.0113 C.3       2 GLC5        0.0000 
     36 CA         -6.7380  -16.8360   18.1260 C.3       6 GLL5        0.0000 
@<TRIPOS>BOND
@<TRIPOS>SUBSTRUCTURE
     1 SEC2        4 GROUP        1 X    SEC  0     ROOT SEC X 2
     2 GLC5        1 GROUP        1 X    GLC  0     **** GLC X 6
     3 SEP2        6 GROUP        1 Y    SEP  0     ROOT SEP Y 9
     4 GLP5        3 GROUP        1 Y    GLP  0     **** GLP Y 13
     5 SEL2        5 GROUP        1 Z    SEL  0     ROOT SEL Z 16
     6 GLL5        2 GROUP        1 Z    GLL  0     **** GLL Z 20
@<TRIPOS>SET

