#    Name: 3dea_HZH_2_ligand
#    Modification time : Mon Mar 24 23:13:52 2014

@<TRIPOS>MOLECULE
3dea_HZH_2_ligand
   27    27     1     0     0
SMALL
NO_CHARGES


@<TRIPOS>ATOM
      1 F2         -3.8090  -17.3240   12.7080 F         1 HZH402      0.0000 
      2 C11        -4.8290  -16.8330   12.0460 C.3       1 HZH402      0.0000 
      3 F1         -5.8550  -17.6540   12.0770 F         1 HZH402      0.0000 
      4 F3         -4.4790  -16.7120   10.7760 F         1 HZH402      0.0000 
      5 C10        -5.2410  -15.5030   12.7080 C.2       1 HZH402      0.0000 
      6 O1         -4.2560  -14.4820   12.4900 O.2       1 HZH402      0.0000 
      7 C9         -5.5480  -15.6710   14.1950 C.3       1 HZH402      0.0000 
      8 S          -7.1040  -16.4880   14.3820 S.3       1 HZH402      0.0000 
      9 C8         -8.0400  -15.2990   15.2970 C.3       1 HZH402      0.0000 
     10 C7         -8.4620  -15.6970   16.7120 C.3       1 HZH402      0.0000 
     11 C6         -7.7560  -16.9440   17.1830 C.ar      1 HZH402      0.0000 
     12 C4         -8.1390  -18.2050   16.6900 C.ar      1 HZH402      0.0000 
     13 C2         -7.4860  -19.3580   17.1300 C.ar      1 HZH402      0.0000 
     14 C1         -6.4600  -19.2480   18.0760 C.ar      1 HZH402      0.0000 
     15 C3         -6.0870  -17.9900   18.5690 C.ar      1 HZH402      0.0000 
     16 C5         -6.7380  -16.8360   18.1260 C.ar      1 HZH402      0.0000 
     17 H          -5.6897  -14.7472   14.6976 H         1 HZH402      0.0000 
     18 H          -4.8666  -16.3164   14.6902 H         1 HZH402      0.0000 
     19 H          -8.8974  -15.1033   14.6465 H         1 HZH402      0.0000 
     20 H          -7.3959  -14.4149   15.2879 H         1 HZH402      0.0000 
     21 H          -9.5455  -15.8606   16.7244 H         1 HZH402      0.0000 
     22 H          -8.2387  -14.8682   17.3932 H         1 HZH402      0.0000 
     23 H          -8.9003  -18.2723   16.0059 H         1 HZH402      0.0000 
     24 H          -7.7533  -20.2743   16.7659 H         1 HZH402      0.0000 
     25 H          -5.9788  -20.0908   18.4102 H         1 HZH402      0.0000 
     26 H          -5.3297  -17.9182   19.2606 H         1 HZH402      0.0000 
     27 H          -6.4670  -15.9203   18.4931 H         1 HZH402      0.0000 
@<TRIPOS>BOND
     1    2    1 1    
     2    3    2 1    
     3    4    2 1    
     4    5    2 1    
     5    6    5 2    
     6    7    5 1    
     7    8    7 1    
     8   17    7 1    
     9   18    7 1    
    10    9    8 1    
    11   10    9 1    
    12   19    9 1    
    13   20    9 1    
    14   11   10 1    
    15   21   10 1    
    16   22   10 1    
    17   12   11 ar   
    18   16   11 ar   
    19   13   12 ar   
    20   23   12 1    
    21   14   13 ar   
    22   24   13 1    
    23   15   14 ar   
    24   25   14 1    
    25   16   15 ar   
    26   26   15 1    
    27   27   16 1    
@<TRIPOS>SUBSTRUCTURE
     1 HZH402      1 GROUP   
@<TRIPOS>SET

