#    Name: 4b72_2FB_1_INTS_M
#    Modification time : Tue Mar 25 06:49:53 2014

@<TRIPOS>MOLECULE
4b72_2FB_1_INTS_M
   55     0     9     0     0
SMALL
NO_CHARGES


@<TRIPOS>ATOM
      1 CA         10.1735    4.8750  -16.3770 C.3       3 GLC5        0.0000 
      2 CA          8.3090    3.8620  -16.2020 C.3       9 GLL5        0.0000 
      3 CA         12.0380    5.8880  -16.5520 C.3       6 GLP5        0.0000 
      4 O           3.0595    2.8965  -20.9650 O.2       1 ALC1        0.0000 
      5 O           4.2250    2.7250  -20.3170 O.2       7 ALL1        0.0000 
      6 O           1.8940    3.0680  -21.6130 O.2       4 ALP1        0.0000 
      7 CA          2.6340    1.8180  -18.4945 C.3       3 GLC5        0.0000 
      8 CA          4.1850    3.1500  -19.0900 C.3       9 GLL5        0.0000 
      9 CA          1.0830    0.4860  -17.8990 C.3       6 GLP5        0.0000 
     10 O           1.8270    3.2730  -19.0975 O.2       1 ALC1        0.0000 
     11 O           3.0500    3.4390  -18.3700 O.2       7 ALL1        0.0000 
     12 O           0.6040    3.1070  -19.8250 O.2       4 ALP1        0.0000 
     13 O           2.4720    3.2535  -19.9915 O.2       1 ALC1        0.0000 
     14 O           2.7320    3.8440  -17.0555 O.2       1 ALC1        0.0000 
     15 O           2.4140    4.2490  -15.7410 O.2       4 ALP1        0.0000 
     16 CA          8.6535    6.3065  -24.3545 C.3       3 GLC5        0.0000 
     17 CA          7.4610    4.8970  -23.1010 C.3       9 GLL5        0.0000 
     18 CA          9.8460    7.7160  -25.6080 C.3       6 GLP5        0.0000 
     19 CA          9.4340    5.4070  -22.3250 C.3       3 GLC5        0.0000 
     20 CA         11.4070    5.9170  -21.5490 C.3       6 GLP5        0.0000 
     21 N           7.4300    5.3980  -26.1010 N.am      2 SEC2        0.0000 
     22 N           6.7240    6.0700  -25.0280 N.am      8 SEL2        0.0000 
     23 N           8.1360    4.7260  -27.1740 N.am      5 SEP2        0.0000 
     24 CA          4.1225    7.0550  -27.0825 C.3       3 GLC5        0.0000 
     25 CA          5.6880    6.8500  -25.6560 C.3       9 GLL5        0.0000 
     26 CA          2.5570    7.2600  -28.5090 C.3       6 GLP5        0.0000 
     27 CA          7.7670    7.2830  -25.6320 C.3       3 GLC5        0.0000 
     28 CA          6.3010    6.3880  -27.3400 C.3       3 GLC5        0.0000 
     29 CA          6.9140    5.9260  -29.0240 C.3       6 GLP5        0.0000 
     30 CA          6.3660    8.8390  -26.0080 C.3       3 GLC5        0.0000 
     31 CA          7.0440   10.8280  -26.3600 C.3       6 GLP5        0.0000 
     32 CA          6.3880   -4.9130  -19.9965 C.3       3 GLC5        0.0000 
     33 CA          5.8900   -3.4100  -19.2180 C.3       9 GLL5        0.0000 
     34 CA          6.8860   -6.4160  -20.7750 C.3       6 GLP5        0.0000 
     35 CA          3.7680   -6.0255  -18.0575 C.3       3 GLC5        0.0000 
     36 CA          4.2030   -4.2060  -17.8360 C.3       9 GLL5        0.0000 
     37 CA          3.3330   -7.8450  -18.2790 C.3       6 GLP5        0.0000 
     38 CA          2.2355   -4.9415  -18.2040 C.3       3 GLC5        0.0000 
     39 CA          0.2680   -5.6770  -18.5720 C.3       6 GLP5        0.0000 
     40 CA          2.4225   -0.9080  -18.5000 C.3       3 GLC5        0.0000 
     41 CA          3.7620   -2.3020  -19.1010 C.3       9 GLL5        0.0000 
     42 CA          4.6928    2.2850  -23.8556 C.3       3 GLC5        0.0000 
     43 CA          5.1760    4.6140  -23.8870 C.3       9 GLL5        0.0000 
     44 CA          4.0740    0.4680  -24.5900 C.3       6 GLP5        0.0000 
     45 CA          3.8746    5.3410  -22.9435 C.3       3 GLC5        0.0000 
     46 CA          4.9470    3.7410  -22.8200 C.3       9 GLL5        0.0000 
     47 CA          2.3710    6.3500  -22.5050 C.3       6 GLP5        0.0000 
     48 CA          5.1790    0.6583  -23.1160 C.3       3 GLC5        0.0000 
     49 CA          5.8800    1.0340  -21.1000 C.3       9 GLL5        0.0000 
     50 CA          5.3647   -0.3553  -23.3325 C.3       3 GLC5        0.0000 
     51 CA          6.9220   -0.6810  -22.4790 C.3       9 GLL5        0.0000 
     52 CA          3.5830   -1.0260  -21.3080 C.3       3 GLC5        0.0000 
     53 CA          5.5690   -1.3160  -20.5870 C.3       9 GLL5        0.0000 
     54 CA          1.6960   -1.4140  -22.1790 C.3       6 GLP5        0.0000 
     55 CA          3.0507   -1.8722  -20.7782 C.3       3 GLC5        0.0000 
@<TRIPOS>BOND
@<TRIPOS>SUBSTRUCTURE
     1 ALC1        4 GROUP        1 X    ALC  0     ROOT ALC X 1
     2 SEC2       21 GROUP        1 X    SEC  0     **** SEC X 2
     3 GLC5        1 GROUP        1 X    GLC  0     **** GLC X 6
     4 ALP1        6 GROUP        1 Y    ALP  0     ROOT ALP Y 8
     5 SEP2       23 GROUP        1 Y    SEP  0     **** SEP Y 9
     6 GLP5        3 GROUP        1 Y    GLP  0     **** GLP Y 13
     7 ALL1        5 GROUP        1 Z    ALL  0     ROOT ALL Z 15
     8 SEL2       22 GROUP        1 Z    SEL  0     **** SEL Z 16
     9 GLL5        2 GROUP        1 Z    GLL  0     **** GLL Z 20
@<TRIPOS>SET

