#    Name: 4b72_2FB_1_ligand
#    Modification time : Tue Mar 25 06:49:53 2014

@<TRIPOS>MOLECULE
4b72_2FB_1_ligand
   50    54     1     0     0
SMALL
NO_CHARGES


@<TRIPOS>ATOM
      1 C1          8.3090    3.8620  -16.2020 C.3       1 2FB1503     0.0000 
      2 C2          7.4260    3.5170  -17.3770 C.2       1 2FB1503     0.0000 
      3 N3          6.1380    3.6020  -17.3760 N.2       1 2FB1503     0.0000 
      4 C4          5.5420    3.2460  -18.5300 C.2       1 2FB1503     0.0000 
      5 C5          6.4080    2.8550  -19.5020 C.2       1 2FB1503     0.0000 
      6 S6          7.9840    2.9370  -18.8880 S.3       1 2FB1503     0.0000 
      7 C7          5.6180    2.5000  -20.7410 C.3       1 2FB1503     0.0000 
      8 N8          4.2250    2.7250  -20.3170 N.pl3     1 2FB1503     0.0000 
      9 C9          4.1850    3.1500  -19.0900 C.2       1 2FB1503     0.0000 
     10 N10         3.0500    3.4390  -18.3700 N.pl3     1 2FB1503     0.0000 
     11 C11         5.9470    3.4390  -21.8910 C.ar      1 2FB1503     0.0000 
     12 C12         7.2010    4.0510  -22.0210 C.ar      1 2FB1503     0.0000 
     13 C13         7.4610    4.8970  -23.1010 C.ar      1 2FB1503     0.0000 
     14 C14         6.4430    5.2320  -24.0010 C.ar      1 2FB1503     0.0000 
     15 C15         5.1760    4.6140  -23.8870 C.ar      1 2FB1503     0.0000 
     16 C16         4.9470    3.7410  -22.8200 C.ar      1 2FB1503     0.0000 
     17 O17         6.7240    6.0700  -25.0280 O.3       1 2FB1503     0.0000 
     18 C18         5.6880    6.8500  -25.6560 C.3       1 2FB1503     0.0000 
     19 C19         5.8800    1.0340  -21.1000 C.ar      1 2FB1503     0.0000 
     20 C20         6.6880    0.6630  -22.1840 C.ar      1 2FB1503     0.0000 
     21 C21         6.9220   -0.6810  -22.4790 C.ar      1 2FB1503     0.0000 
     22 C22         6.3890   -1.6760  -21.6710 C.ar      1 2FB1503     0.0000 
     23 C23         5.5690   -1.3160  -20.5870 C.ar      1 2FB1503     0.0000 
     24 C24         5.3710    0.0400  -20.2870 C.ar      1 2FB1503     0.0000 
     25 C25         5.0490   -2.3590  -19.6540 C.ar      1 2FB1503     0.0000 
     26 C26         5.8900   -3.4100  -19.2180 C.ar      1 2FB1503     0.0000 
     27 N27         5.4430   -4.2910  -18.3220 N.ar      1 2FB1503     0.0000 
     28 C28         4.2030   -4.2060  -17.8360 C.ar      1 2FB1503     0.0000 
     29 N29         3.3940   -3.2220  -18.2010 N.ar      1 2FB1503     0.0000 
     30 C30         3.7620   -2.3020  -19.1010 C.ar      1 2FB1503     0.0000 
     31 H           3.5035    2.5513  -20.9398 H         1 2FB1503     0.0000 
     32 H           3.1922    3.7480  -17.4296 H         1 2FB1503     0.0000 
     33 H           2.1813    3.3150  -18.8495 H         1 2FB1503     0.0000 
     34 H           7.9293    3.8753  -21.3187 H         1 2FB1503     0.0000 
     35 H           8.4074    5.2776  -23.2373 H         1 2FB1503     0.0000 
     36 H           4.4518    4.8059  -24.5711 H         1 2FB1503     0.0000 
     37 H           4.0109    3.3058  -22.7145 H         1 2FB1503     0.0000 
     38 H           7.1151    1.3970  -22.7713 H         1 2FB1503     0.0000 
     39 H           7.4917   -0.9316  -23.2986 H         1 2FB1503     0.0000 
     40 H           6.5854   -2.6610  -21.8551 H         1 2FB1503     0.0000 
     41 H           4.8321    0.2908  -19.4384 H         1 2FB1503     0.0000 
     42 H           6.8429   -3.4634  -19.6150 H         1 2FB1503     0.0000 
     43 H           3.8659   -4.9346  -17.1517 H         1 2FB1503     0.0000 
     44 H           3.1272   -1.5483  -19.4032 H         1 2FB1503     0.0000 
     45 H           9.2769    3.7225  -16.4112 H         1 2FB1503     0.0000 
     46 H           8.2035    4.8174  -15.9261 H         1 2FB1503     0.0000 
     47 H           8.0982    3.3008  -15.4016 H         1 2FB1503     0.0000 
     48 H           6.0479    7.4183  -26.3960 H         1 2FB1503     0.0000 
     49 H           4.9751    6.2708  -26.0514 H         1 2FB1503     0.0000 
     50 H           5.2399    7.4640  -25.0062 H         1 2FB1503     0.0000 
@<TRIPOS>BOND
     1    2    1 1    
     2   45    1 1    
     3   46    1 1    
     4   47    1 1    
     5    3    2 2    
     6    6    2 1    
     7    4    3 1    
     8    5    4 2    
     9    9    4 1    
    10    6    5 1    
    11    7    5 1    
    12    8    7 1    
    13   11    7 1    
    14   19    7 1    
    15    9    8 2    
    16   31    8 1    
    17   10    9 1    
    18   32   10 1    
    19   33   10 1    
    20   12   11 ar   
    21   16   11 ar   
    22   13   12 ar   
    23   34   12 1    
    24   14   13 ar   
    25   35   13 1    
    26   15   14 ar   
    27   17   14 1    
    28   16   15 ar   
    29   36   15 1    
    30   37   16 1    
    31   18   17 1    
    32   48   18 1    
    33   49   18 1    
    34   50   18 1    
    35   20   19 ar   
    36   24   19 ar   
    37   21   20 ar   
    38   38   20 1    
    39   22   21 ar   
    40   39   21 1    
    41   23   22 ar   
    42   40   22 1    
    43   24   23 ar   
    44   25   23 1    
    45   41   24 1    
    46   26   25 ar   
    47   30   25 ar   
    48   27   26 ar   
    49   42   26 1    
    50   28   27 ar   
    51   29   28 ar   
    52   43   28 1    
    53   30   29 ar   
    54   44   30 1    
@<TRIPOS>SUBSTRUCTURE
     1 2FB1503     1 GROUP   
@<TRIPOS>SET

