#    Name: 1fwk_ADP_3_INTS_M
#    Modification time : Tue Mar 25 02:08:28 2014

@<TRIPOS>MOLECULE
1fwk_ADP_3_INTS_M
   54     0     9     0     0
SMALL
NO_CHARGES


@<TRIPOS>ATOM
      1 N          24.5995   63.4300   92.8195 N.am      2 SEC2        0.0000 
      2 N          25.3510   64.7000   92.4280 N.am      8 SEL2        0.0000 
      3 N          23.8480   62.1600   93.2110 N.am      5 SEP2        0.0000 
      4 N          24.2275   64.2490   91.6520 N.am      2 SEC2        0.0000 
      5 N          23.1040   63.7980   90.8760 N.am      5 SEP2        0.0000 
      6 N          26.4265   63.5435   94.5015 N.am      2 SEC2        0.0000 
      7 N          26.2680   64.8950   94.8020 N.am      8 SEL2        0.0000 
      8 N          26.5850   62.1920   94.2010 N.am      5 SEP2        0.0000 
      9 N          23.2350   65.1880   91.2535 N.am      2 SEC2        0.0000 
     10 N          23.3660   66.5780   91.6310 N.am      8 SEL2        0.0000 
     11 N          24.7480   66.9990   95.4975 N.am      2 SEC2        0.0000 
     12 N          24.3050   66.3510   94.0580 N.am      8 SEL2        0.0000 
     13 N          25.1910   67.6470   96.9370 N.am      5 SEP2        0.0000 
     14 CA         21.9150   66.3865   95.0430 C.3       3 GLC5        0.0000 
     15 CA         21.2070   66.8540   93.0270 C.3       9 GLL5        0.0000 
     16 CA         22.6230   65.9190   97.0590 C.3       6 GLP5        0.0000 
     17 CA         21.6695   64.9785   92.3380 C.3       3 GLC5        0.0000 
     18 CA         22.1320   63.1030   91.6490 C.3       6 GLP5        0.0000 
     19 CA         18.9990   65.6935   91.7015 C.3       3 GLC5        0.0000 
     20 CA         18.1430   65.5360   93.7370 C.3       9 GLL5        0.0000 
     21 CA         19.8550   65.8510   89.6660 C.3       6 GLP5        0.0000 
     22 N          16.5480   61.5070   91.9630 N.am      2 SEC2        0.0000 
     23 N          16.9560   61.9360   93.2650 N.am      8 SEL2        0.0000 
     24 N          16.1400   61.0780   90.6610 N.am      5 SEP2        0.0000 
     25 CA         16.1615   61.5995   92.9975 C.3       3 GLC5        0.0000 
     26 CA         18.1690   61.8030   93.9300 C.3       9 GLL5        0.0000 
     27 CA         14.1540   61.3960   92.0650 C.3       6 GLP5        0.0000 
     28 CA         19.7180   59.1395   93.5305 C.3       3 GLC5        0.0000 
     29 CA         18.8750   60.6260   94.3910 C.3       9 GLL5        0.0000 
     30 CA         20.5610   57.6530   92.6700 C.3       6 GLP5        0.0000 
     31 O          17.0595   59.2045   93.5225 O.2       1 ALC1        0.0000 
     32 O          18.3740   59.4240   94.2100 O.2       7 ALL1        0.0000 
     33 O          15.7450   58.9850   92.8350 O.2       4 ALP1        0.0000 
     34 O          19.4395   58.4340   94.1455 O.2       1 ALC1        0.0000 
     35 O          20.5050   57.4440   94.0810 O.2       4 ALP1        0.0000 
     36 N          21.1200   59.9760   95.6215 N.am      2 SEC2        0.0000 
     37 N          20.0600   60.7350   95.0160 N.am      8 SEL2        0.0000 
     38 N          22.1800   59.2170   96.2270 N.am      5 SEP2        0.0000 
     39 CA         19.8505   61.9125   96.8215 C.3       3 GLC5        0.0000 
     40 CA         20.6040   61.9150   95.2280 C.3       9 GLL5        0.0000 
     41 CA         19.0970   61.9100   98.4150 C.3       6 GLP5        0.0000 
     42 CA         21.2515   60.6345   96.4560 C.3       3 GLC5        0.0000 
     43 CA         21.8990   59.3540   97.6840 C.3       6 GLP5        0.0000 
     44 CA         21.6725   61.8690   93.7625 C.3       3 GLC5        0.0000 
     45 CA         22.7410   61.8230   92.2970 C.3       6 GLP5        0.0000 
     46 CA         20.4700   63.0975   92.9220 C.3       3 GLC5        0.0000 
     47 CA         18.8080   63.0920   94.1950 C.3       9 GLL5        0.0000 
     48 CA         20.1805   66.4145   91.4315 C.3       3 GLC5        0.0000 
     49 CA         20.8203   66.2792   96.0197 C.3       3 GLC5        0.0000 
     50 CA         19.4200   67.2550   94.8340 C.3       9 GLL5        0.0000 
     51 CA         17.4950   61.8781   95.6769 C.3       3 GLC5        0.0000 
     52 CA         16.3250   61.6030   97.1760 C.3       6 GLP5        0.0000 
     53 CA         18.8525   61.2606   92.4534 C.3       3 GLC5        0.0000 
     54 CA         19.0400   60.3680   90.7290 C.3       6 GLP5        0.0000 
@<TRIPOS>BOND
@<TRIPOS>SUBSTRUCTURE
     1 ALC1       31 GROUP        1 X    ALC  0     ROOT ALC X 1
     2 SEC2        1 GROUP        1 X    SEC  0     **** SEC X 2
     3 GLC5       14 GROUP        1 X    GLC  0     **** GLC X 6
     4 ALP1       33 GROUP        1 Y    ALP  0     ROOT ALP Y 8
     5 SEP2        3 GROUP        1 Y    SEP  0     **** SEP Y 9
     6 GLP5       16 GROUP        1 Y    GLP  0     **** GLP Y 13
     7 ALL1       32 GROUP        1 Z    ALL  0     ROOT ALL Z 15
     8 SEL2        2 GROUP        1 Z    SEL  0     **** SEL Z 16
     9 GLL5       15 GROUP        1 Z    GLL  0     **** GLL Z 20
@<TRIPOS>SET

