#    Name: 1fwk_ADP_3_ligand
#    Modification time : Tue Mar 25 02:08:28 2014

@<TRIPOS>MOLECULE
1fwk_ADP_3_ligand
   39    41     1     0     0
SMALL
NO_CHARGES


@<TRIPOS>ATOM
      1 PB         25.6300   65.7220   93.5970 P.3       1 ADP800      0.0000 
      2 O1B        25.3510   64.7000   92.4280 O.co2     1 ADP800      0.0000 
      3 O2B        26.5990   66.8410   93.0130 O.co2     1 ADP800      0.0000 
      4 O3B        26.2680   64.8950   94.8020 O.co2     1 ADP800      0.0000 
      5 PA         23.5520   67.3350   93.0740 P.3       1 ADP800      0.0000 
      6 O1A        24.3270   68.6710   92.6510 O.co2     1 ADP800      0.0000 
      7 O2A        23.3660   66.5780   91.6310 O.co2     1 ADP800      0.0000 
      8 O3A        24.3050   66.3510   94.0580 O.3       1 ADP800      0.0000 
      9 O5'        22.1640   67.6750   93.6510 O.3       1 ADP800      0.0000 
     10 C5'        21.2070   66.8540   93.0270 C.3       1 ADP800      0.0000 
     11 C4'        19.8050   67.1020   93.3670 C.3       1 ADP800      0.0000 
     12 O4'        19.0410   66.0590   92.7660 O.3       1 ADP800      0.0000 
     13 C3'        19.4200   67.2550   94.8340 C.3       1 ADP800      0.0000 
     14 O3'        18.6450   68.4480   94.8970 O.3       1 ADP800      0.0000 
     15 C2'        18.6150   66.0240   95.1270 C.3       1 ADP800      0.0000 
     16 O2'        17.5410   66.2940   96.0080 O.3       1 ADP800      0.0000 
     17 C1'        18.1430   65.5360   93.7370 C.3       1 ADP800      0.0000 
     18 N9         17.9840   64.0790   93.7030 N.pl3     1 ADP800      0.0000 
     19 C8         16.9560   63.3200   93.1890 C.2       1 ADP800      0.0000 
     20 N7         16.9560   61.9360   93.2650 N.2       1 ADP800      0.0000 
     21 C5         18.1690   61.8030   93.9300 C.ar      1 ADP800      0.0000 
     22 C6         18.8750   60.6260   94.3910 C.ar      1 ADP800      0.0000 
     23 N6         18.3740   59.4240   94.2100 N.pl3     1 ADP800      0.0000 
     24 N1         20.0600   60.7350   95.0160 N.ar      1 ADP800      0.0000 
     25 C2         20.6040   61.9150   95.2280 C.ar      1 ADP800      0.0000 
     26 N3         20.1150   63.0990   94.8940 N.ar      1 ADP800      0.0000 
     27 C4         18.8080   63.0920   94.1950 C.ar      1 ADP800      0.0000 
     28 H          21.4309   65.7611   93.2360 H         1 ADP800      0.0000 
     29 H          21.3110   66.9173   91.8986 H         1 ADP800      0.0000 
     30 H          19.4962   68.0578   92.8541 H         1 ADP800      0.0000 
     31 H          20.2927   67.2782   95.4017 H         1 ADP800      0.0000 
     32 H          19.2919   65.2701   95.5048 H         1 ADP800      0.0000 
     33 H          17.1433   66.0078   93.5979 H         1 ADP800      0.0000 
     34 H          16.1499   63.7986   92.7270 H         1 ADP800      0.0000 
     35 H          18.9194   58.6626   94.5603 H         1 ADP800      0.0000 
     36 H          17.4932   59.3808   93.7384 H         1 ADP800      0.0000 
     37 H          21.5788   61.9207   95.7426 H         1 ADP800      0.0000 
     38 H          19.2851   69.1569   95.1932 H         1 ADP800      0.0000 
     39 H          17.5129   67.2907   96.0839 H         1 ADP800      0.0000 
@<TRIPOS>BOND
     1    2    1 ar   
     2    3    1 ar   
     3    4    1 ar   
     4    8    1 1    
     5    6    5 ar   
     6    7    5 ar   
     7    8    5 1    
     8    9    5 1    
     9   10    9 1    
    10   11   10 1    
    11   28   10 1    
    12   29   10 1    
    13   12   11 1    
    14   13   11 1    
    15   30   11 1    
    16   17   12 1    
    17   14   13 1    
    18   15   13 1    
    19   31   13 1    
    20   38   14 1    
    21   16   15 1    
    22   17   15 1    
    23   32   15 1    
    24   39   16 1    
    25   18   17 1    
    26   33   17 1    
    27   19   18 1    
    28   27   18 1    
    29   20   19 2    
    30   34   19 1    
    31   21   20 1    
    32   22   21 ar   
    33   27   21 ar   
    34   23   22 1    
    35   24   22 ar   
    36   35   23 1    
    37   36   23 1    
    38   25   24 ar   
    39   26   25 ar   
    40   37   25 1    
    41   27   26 ar   
@<TRIPOS>SUBSTRUCTURE
     1 ADP800      1 GROUP   
@<TRIPOS>SET

