#    Name: 4blv_SAM_1_INTS_M
#    Modification time : Tue Mar 25 07:55:14 2014

@<TRIPOS>MOLECULE
4blv_SAM_1_INTS_M
   87     0    15     0     0
SMALL
NO_CHARGES


@<TRIPOS>ATOM
      1 OD1        16.4510  -23.3935    5.4395 O.co2     3 ASC3        0.0000 
      2 OD1        18.1780  -23.2500    4.7530 O.co2    13 ASL3        0.0000 
      3 OD1        14.7240  -23.5370    6.1260 O.co2     8 ASP3        0.0000 
      4 OD1        18.4870  -22.3640    3.6865 O.co2     3 ASC3        0.0000 
      5 OD1        18.7960  -21.4780    2.6200 O.co2     8 ASP3        0.0000 
      6 O          17.1880  -24.2360    4.2790 O.2       1 ALC1        0.0000 
      7 O          18.1780  -23.2500    4.7530 O.2      11 ALL1        0.0000 
      8 O          16.1980  -25.2220    3.8050 O.2       6 ALP1        0.0000 
      9 O          18.4870  -22.3640    3.6865 O.2       1 ALC1        0.0000 
     10 O          18.7960  -21.4780    2.6200 O.2       6 ALP1        0.0000 
     11 CA         17.7080  -25.2885    5.5870 C.3       5 GLC5        0.0000 
     12 CA         19.4110  -23.9430    5.0020 C.3      15 GLL5        0.0000 
     13 CA         16.0050  -26.6340    6.1720 C.3      10 GLP5        0.0000 
     14 CA         18.8835  -22.6225    6.5860 C.3       5 GLC5        0.0000 
     15 CA         18.3560  -21.3020    8.1700 C.3      10 GLP5        0.0000 
     16 NZ         20.7170  -21.0715    3.9025 N.4       4 LYC4        0.0000 
     17 NZ         20.2690  -21.8290    5.5640 N.4      14 LYL4        0.0000 
     18 NZ         21.1650  -20.3140    2.2410 N.4       9 LYP4        0.0000 
     19 N          20.9970  -20.8300    6.3140 N.am      2 SEC2        0.0000 
     20 N          20.2690  -21.8290    5.5640 N.am     12 SEL2        0.0000 
     21 N          21.7250  -19.8310    7.0640 N.am      7 SEP2        0.0000 
     22 N          20.3710  -22.0760    7.2205 N.am      2 SEC2        0.0000 
     23 N          20.4730  -22.3230    8.8770 N.am      7 SEP2        0.0000 
     24 N          19.6405  -21.2555    6.3210 N.am      2 SEC2        0.0000 
     25 N          19.0120  -20.6820    7.0780 N.am      7 SEP2        0.0000 
     26 N          20.9135  -22.8815    7.5580 N.am      2 SEC2        0.0000 
     27 N          21.3540  -23.4400    6.2390 N.am     12 SEL2        0.0000 
     28 CA         22.0275  -24.7895    3.5110 C.3       5 GLC5        0.0000 
     29 CA         19.9570  -24.7040    3.7920 C.3      15 GLL5        0.0000 
     30 CA         24.0980  -24.8750    3.2300 C.3      10 GLP5        0.0000 
     31 CA         19.5715  -26.6460    4.5510 C.3       5 GLC5        0.0000 
     32 CA         19.1860  -28.5880    5.3100 C.3      10 GLP5        0.0000 
     33 CA         21.7590  -26.4145    1.5295 C.3       5 GLC5        0.0000 
     34 CA         19.8010  -25.8440    1.3180 C.3      15 GLL5        0.0000 
     35 CA         23.7170  -26.9850    1.7410 C.3      10 GLP5        0.0000 
     36 CA         22.3210  -25.3065    1.2640 C.3       5 GLC5        0.0000 
     37 CA         20.7790  -25.0870    0.4660 C.3      15 GLL5        0.0000 
     38 CA         23.8630  -25.5260    2.0620 C.3      10 GLP5        0.0000 
     39 CA         20.4240  -26.7695   -0.5665 C.3       5 GLC5        0.0000 
     40 CA         18.5510  -26.4480    0.3810 C.3      15 GLL5        0.0000 
     41 CA         22.2970  -27.0910   -1.5140 C.3      10 GLP5        0.0000 
     42 CA         20.3710  -28.6015   -0.7755 C.3       5 GLC5        0.0000 
     43 CA         18.9160  -28.9900    0.6070 C.3      15 GLL5        0.0000 
     44 CA         21.8260  -28.2130   -2.1580 C.3      10 GLP5        0.0000 
     45 O          18.2170  -29.7805    2.6800 O.2       1 ALC1        0.0000 
     46 O          19.2760  -29.4220    1.8620 O.2      11 ALL1        0.0000 
     47 O          17.1580  -30.1390    3.4980 O.2       6 ALP1        0.0000 
     48 O          18.1545  -30.7260    2.1440 O.2       1 ALC1        0.0000 
     49 O          17.0330  -32.0300    2.4260 O.2       6 ALP1        0.0000 
     50 O          17.5770  -31.6640    1.2740 O.2       1 ALC1        0.0000 
     51 O          18.1210  -31.2980    0.1220 O.2      11 ALL1        0.0000 
     52 CA         15.0880  -28.0175   -0.1870 C.3       5 GLC5        0.0000 
     53 CA         16.5760  -29.5520    0.3510 C.3      15 GLL5        0.0000 
     54 CA         13.6000  -26.4830   -0.7250 C.3      10 GLP5        0.0000 
     55 CA         14.6200  -31.4025   -2.0050 C.3       5 GLC5        0.0000 
     56 CA         13.3750  -29.6890   -1.2980 C.3      15 GLL5        0.0000 
     57 CA         15.8650  -33.1160   -2.7120 C.3      10 GLP5        0.0000 
     58 CA         10.0495  -30.4810   -0.1690 C.3       5 GLC5        0.0000 
     59 CA         11.9400  -29.7290   -1.0350 C.3      15 GLL5        0.0000 
     60 CA          8.1590  -31.2330    0.6970 C.3      10 GLP5        0.0000 
     61 O           9.6765  -29.9445   -2.1510 O.2       1 ALC1        0.0000 
     62 O          11.1120  -29.7410   -2.0460 O.2      11 ALL1        0.0000 
     63 O           8.2410  -30.1480   -2.2560 O.2       6 ALP1        0.0000 
     64 N          10.2135  -29.3740    0.7555 N.am      2 SEC2        0.0000 
     65 N          11.5180  -29.7430    0.2340 N.am     12 SEL2        0.0000 
     66 N           8.9090  -29.0050    1.2770 N.am      7 SEP2        0.0000 
     67 CA         12.9685  -28.1210    0.2605 C.3       5 GLC5        0.0000 
     68 CA         12.3370  -29.7590    1.2460 C.3      15 GLL5        0.0000 
     69 CA         13.2415  -30.6275    2.9535 C.3       5 GLC5        0.0000 
     70 CA         14.1460  -31.4960    4.6610 C.3      10 GLP5        0.0000 
     71 CA         12.0425  -31.6620    0.8465 C.3       5 GLC5        0.0000 
     72 CA         11.7480  -33.5650    0.4470 C.3      10 GLP5        0.0000 
     73 CA         10.2480  -30.4960    0.9715 C.3       5 GLC5        0.0000 
     74 CA         10.6040  -28.7380    1.5900 C.3       5 GLC5        0.0000 
     75 CA          8.8710  -27.7170    1.9340 C.3      10 GLP5        0.0000 
     76 CA         13.7205  -31.8195    0.2540 C.3       5 GLC5        0.0000 
     77 CA         14.2220  -29.6830   -0.1230 C.3      15 GLL5        0.0000 
     78 CA         13.2190  -33.9560    0.6310 C.3      10 GLP5        0.0000 
     79 CA         21.2935  -26.2782   -0.3110 C.3       5 GLC5        0.0000 
     80 CA         16.4745  -26.4030    1.0615 C.3       5 GLC5        0.0000 
     81 CA         14.6640  -25.6870    1.5100 C.3      10 GLP5        0.0000 
     82 CA         17.5625  -26.6555   -1.2875 C.3       5 GLC5        0.0000 
     83 CA         18.0190  -27.7900    0.8450 C.3      15 GLL5        0.0000 
     84 CA         16.8400  -26.1920   -3.1880 C.3      10 GLP5        0.0000 
     85 CA         12.0598  -31.5050   -1.0972 C.3       5 GLC5        0.0000 
     86 CA         11.4620  -33.3010   -1.0280 C.3      10 GLP5        0.0000 
     87 CA         13.5199  -28.0895   -0.6849 C.3       5 GLC5        0.0000 
@<TRIPOS>BOND
@<TRIPOS>SUBSTRUCTURE
     1 ALC1        6 GROUP        1 X    ALC  0     ROOT ALC X 1
     2 SEC2       19 GROUP        1 X    SEC  0     **** SEC X 2
     3 ASC3        1 GROUP        1 X    ASC  0     **** ASC X 3
     4 LYC4       16 GROUP        1 X    LYC  0     **** LYC X 4
     5 GLC5       11 GROUP        1 X    GLC  0     **** GLC X 6
     6 ALP1        8 GROUP        1 Y    ALP  0     ROOT ALP Y 8
     7 SEP2       21 GROUP        1 Y    SEP  0     **** SEP Y 9
     8 ASP3        3 GROUP        1 Y    ASP  0     **** ASP Y 10
     9 LYP4       18 GROUP        1 Y    LYP  0     **** LYP Y 11
    10 GLP5       13 GROUP        1 Y    GLP  0     **** GLP Y 13
    11 ALL1        7 GROUP        1 Z    ALL  0     ROOT ALL Z 15
    12 SEL2       20 GROUP        1 Z    SEL  0     **** SEL Z 16
    13 ASL3        2 GROUP        1 Z    ASL  0     **** ASL Z 17
    14 LYL4       17 GROUP        1 Z    LYL  0     **** LYL Z 18
    15 GLL5       12 GROUP        1 Z    GLL  0     **** GLL Z 20
@<TRIPOS>SET

