#    Name: 4blv_SAM_1_ligand
#    Modification time : Tue Mar 25 07:55:14 2014

@<TRIPOS>MOLECULE
4blv_SAM_1_ligand
   50    52     1     0     0
SMALL
NO_CHARGES


@<TRIPOS>ATOM
      1 N          18.1780  -23.2500    4.7530 N.4       1 SAM1281     0.0000 
      2 CA         19.4110  -23.9430    5.0020 C.3       1 SAM1281     0.0000 
      3 C          20.4320  -22.9790    5.6340 C.2       1 SAM1281     0.0000 
      4 O          20.2690  -21.8290    5.5640 O.co2     1 SAM1281     0.0000 
      5 OXT        21.3540  -23.4400    6.2390 O.co2     1 SAM1281     0.0000 
      6 CB         19.9570  -24.7040    3.7920 C.3       1 SAM1281     0.0000 
      7 CG         19.1760  -24.8850    2.5000 C.3       1 SAM1281     0.0000 
      8 SD         19.8010  -25.8440    1.3180 S.3       1 SAM1281     0.0000 
      9 CE         20.7790  -25.0870    0.4660 C.3       1 SAM1281     0.0000 
     10 C5'        18.5510  -26.4480    0.3810 C.3       1 SAM1281     0.0000 
     11 C4'        18.0190  -27.7900    0.8450 C.3       1 SAM1281     0.0000 
     12 O4'        16.7070  -28.1580    0.4820 O.3       1 SAM1281     0.0000 
     13 C3'        18.9160  -28.9900    0.6070 C.3       1 SAM1281     0.0000 
     14 O3'        19.2760  -29.4220    1.8620 O.3       1 SAM1281     0.0000 
     15 C2'        17.9690  -29.9700   -0.1180 C.3       1 SAM1281     0.0000 
     16 O2'        18.1210  -31.2980    0.1220 O.3       1 SAM1281     0.0000 
     17 C1'        16.5760  -29.5520    0.3510 C.3       1 SAM1281     0.0000 
     18 N9         15.4450  -29.6870   -0.5620 N.pl3     1 SAM1281     0.0000 
     19 C8         15.4100  -29.6390   -1.8690 C.2       1 SAM1281     0.0000 
     20 N7         14.1620  -29.6530   -2.3340 N.2       1 SAM1281     0.0000 
     21 C5         13.3750  -29.6890   -1.2980 C.ar      1 SAM1281     0.0000 
     22 C6         11.9400  -29.7290   -1.0350 C.ar      1 SAM1281     0.0000 
     23 N6         11.1120  -29.7410   -2.0460 N.pl3     1 SAM1281     0.0000 
     24 N1         11.5180  -29.7430    0.2340 N.ar      1 SAM1281     0.0000 
     25 C2         12.3370  -29.7590    1.2460 C.ar      1 SAM1281     0.0000 
     26 N3         13.6560  -29.7310    1.0870 N.ar      1 SAM1281     0.0000 
     27 C4         14.2220  -29.6830   -0.1230 C.ar      1 SAM1281     0.0000 
     28 H          19.2159  -24.7210    5.8005 H         1 SAM1281     0.0000 
     29 H          20.2753  -25.7433    4.1562 H         1 SAM1281     0.0000 
     30 H          20.9711  -24.2407    3.5252 H         1 SAM1281     0.0000 
     31 H          18.9928  -23.8969    2.0168 H         1 SAM1281     0.0000 
     32 H          18.1628  -25.2982    2.7149 H         1 SAM1281     0.0000 
     33 H          18.9524  -26.5055   -0.6317 H         1 SAM1281     0.0000 
     34 H          17.7762  -25.6805    0.4056 H         1 SAM1281     0.0000 
     35 H          18.0081  -27.7168    2.0188 H         1 SAM1281     0.0000 
     36 H          19.6820  -28.7083   -0.0301 H         1 SAM1281     0.0000 
     37 H          17.9980  -29.7031   -1.1805 H         1 SAM1281     0.0000 
     38 H          16.3766  -29.9772    1.3030 H         1 SAM1281     0.0000 
     39 H          16.2154  -29.5967   -2.4590 H         1 SAM1281     0.0000 
     40 H          11.4088  -29.2478   -2.8637 H         1 SAM1281     0.0000 
     41 H          10.2576  -30.2423   -1.9091 H         1 SAM1281     0.0000 
     42 H          11.9482  -29.7957    2.2393 H         1 SAM1281     0.0000 
     43 H          18.3048  -22.4789    4.1291 H         1 SAM1281     0.0000 
     44 H          17.4914  -23.8497    4.3420 H         1 SAM1281     0.0000 
     45 H          17.7812  -22.8838    5.5947 H         1 SAM1281     0.0000 
     46 H          21.5455  -24.7356    1.0035 H         1 SAM1281     0.0000 
     47 H          21.1658  -25.6617   -0.2552 H         1 SAM1281     0.0000 
     48 H          20.3512  -24.3022    0.0176 H         1 SAM1281     0.0000 
     49 H          18.4150  -29.6652    2.3087 H         1 SAM1281     0.0000 
     50 H          18.1166  -31.3829    1.1184 H         1 SAM1281     0.0000 
@<TRIPOS>BOND
     1    2    1 1    
     2   43    1 1    
     3   44    1 1    
     4   45    1 1    
     5    3    2 1    
     6    6    2 1    
     7   28    2 1    
     8    4    3 ar   
     9    5    3 ar   
    10    7    6 1    
    11   29    6 1    
    12   30    6 1    
    13    8    7 1    
    14   31    7 1    
    15   32    7 1    
    16    9    8 1    
    17   10    8 1    
    18   46    9 1    
    19   47    9 1    
    20   48    9 1    
    21   11   10 1    
    22   33   10 1    
    23   34   10 1    
    24   12   11 1    
    25   13   11 1    
    26   35   11 1    
    27   17   12 1    
    28   14   13 1    
    29   15   13 1    
    30   36   13 1    
    31   49   14 1    
    32   16   15 1    
    33   17   15 1    
    34   37   15 1    
    35   50   16 1    
    36   18   17 1    
    37   38   17 1    
    38   19   18 1    
    39   27   18 1    
    40   20   19 2    
    41   39   19 1    
    42   21   20 1    
    43   22   21 ar   
    44   27   21 ar   
    45   23   22 1    
    46   24   22 ar   
    47   40   23 1    
    48   41   23 1    
    49   25   24 ar   
    50   26   25 ar   
    51   42   25 1    
    52   27   26 ar   
@<TRIPOS>SUBSTRUCTURE
     1 SAM1281     1 GROUP   
@<TRIPOS>SET

