#    Name: 1zq9_SAM_1_INTS_M
#    Modification time : Mon Mar 24 17:47:23 2014

@<TRIPOS>MOLECULE
1zq9_SAM_1_INTS_M
   74     0     9     0     0
SMALL
NO_CHARGES


@<TRIPOS>ATOM
      1 O          -6.3655   35.9185    3.6875 O.2       1 ALC1        0.0000 
      2 O          -6.2850   34.5950    4.0150 O.2       7 ALL1        0.0000 
      3 O          -6.4460   37.2420    3.3600 O.2       4 ALP1        0.0000 
      4 O          -5.0430   34.2625    4.5580 O.2       1 ALC1        0.0000 
      5 O          -3.8010   33.9300    5.1010 O.2       4 ALP1        0.0000 
      6 CA         -7.6575   34.7645    2.8070 C.3       3 GLC5        0.0000 
      7 CA         -6.3010   33.4410    3.0580 C.3       9 GLL5        0.0000 
      8 CA         -9.0140   36.0880    2.5560 C.3       6 GLP5        0.0000 
      9 CA         -6.6975   34.2880    5.0235 C.3       3 GLC5        0.0000 
     10 CA         -7.0940   35.1350    6.9890 C.3       6 GLP5        0.0000 
     11 CA         -3.3680   32.7225    1.4220 C.3       3 GLC5        0.0000 
     12 CA         -5.2280   33.6320    1.9560 C.3       9 GLL5        0.0000 
     13 CA         -1.5080   31.8130    0.8880 C.3       6 GLP5        0.0000 
     14 CA         -6.8880   36.0840    1.4775 C.3       3 GLC5        0.0000 
     15 CA         -5.3830   34.8080    0.9720 C.3       9 GLL5        0.0000 
     16 CA         -8.3930   37.3600    1.9830 C.3       6 GLP5        0.0000 
     17 CA         -5.9330   37.5095   -0.4335 C.3       3 GLC5        0.0000 
     18 CA         -4.6650   37.6650    0.7630 C.3       9 GLL5        0.0000 
     19 CA         -7.2010   37.3540   -1.6300 C.3       6 GLP5        0.0000 
     20 CA         -6.5290   37.5125    1.3730 C.3       3 GLC5        0.0000 
     21 CA         -4.8505   39.3955    1.1440 C.3       3 GLC5        0.0000 
     22 CA         -5.0360   41.1260    1.5250 C.3       6 GLP5        0.0000 
     23 CA         -5.2465   36.5390   -1.1770 C.3       3 GLC5        0.0000 
     24 CA         -3.2920   35.7240   -0.7240 C.3       9 GLL5        0.0000 
     25 CA         -3.0370   33.9235   -1.2365 C.3       3 GLC5        0.0000 
     26 CA         -2.7820   32.1230   -1.7490 C.3       6 GLP5        0.0000 
     27 CA         -1.7660   39.4140   -0.4050 C.3       3 GLC5        0.0000 
     28 CA         -2.1950   37.7650   -1.7160 C.3       9 GLL5        0.0000 
     29 CA         -1.3370   41.0630    0.9060 C.3       6 GLP5        0.0000 
     30 N          -0.6615   39.5025   -0.1265 N.am      2 SEC2        0.0000 
     31 N          -1.2140   38.7290   -1.3310 N.am      8 SEL2        0.0000 
     32 N          -0.1090   40.2760    1.0780 N.am      5 SEP2        0.0000 
     33 O          -0.0665   38.9570   -1.8985 O.2       1 ALC1        0.0000 
     34 O          -1.2140   38.7290   -1.3310 O.2       7 ALL1        0.0000 
     35 O           1.0810   39.1850   -2.4660 O.2       4 ALP1        0.0000 
     36 O          -0.3135   38.5955   -3.3105 O.2       1 ALC1        0.0000 
     37 O          -1.7080   38.0060   -4.1550 O.2       7 ALL1        0.0000 
     38 O          -0.6475   38.6315   -4.3540 O.2       1 ALC1        0.0000 
     39 O           0.4130   39.2570   -4.5530 O.2       4 ALP1        0.0000 
     40 CA          0.3550   36.2875   -1.2025 C.3       3 GLC5        0.0000 
     41 CA         -0.7430   36.2540   -2.7650 C.3       9 GLL5        0.0000 
     42 CA          1.4530   36.3210    0.3600 C.3       6 GLP5        0.0000 
     43 CA          3.1000   32.7540   -6.8370 C.3       3 GLC5        0.0000 
     44 CA          1.6580   32.8600   -5.3560 C.3       9 GLL5        0.0000 
     45 CA          4.5420   32.6480   -8.3180 C.3       6 GLP5        0.0000 
     46 CA          3.1540   31.7505   -4.3795 C.3       3 GLC5        0.0000 
     47 CA          4.6500   30.6410   -3.4030 C.3       6 GLP5        0.0000 
     48 O           2.5515   30.9420   -6.9020 O.2       1 ALC1        0.0000 
     49 O           1.4800   31.8090   -6.1540 O.2       7 ALL1        0.0000 
     50 O           3.6230   30.0750   -7.6500 O.2       4 ALP1        0.0000 
     51 N           4.1925   32.6705   -5.5900 N.am      2 SEC2        0.0000 
     52 N           2.9380   33.3130   -5.0630 N.am      8 SEL2        0.0000 
     53 N           5.4470   32.0280   -6.1170 N.am      5 SEP2        0.0000 
     54 CA          3.5500   36.2925   -4.0960 C.3       3 GLC5        0.0000 
     55 CA          3.0930   34.4020   -4.2200 C.3       9 GLL5        0.0000 
     56 CA          4.0070   38.1830   -3.9720 C.3       6 GLP5        0.0000 
     57 CA          2.0930   35.2675   -5.7085 C.3       3 GLC5        0.0000 
     58 CA          1.0930   36.1330   -7.1970 C.3       6 GLP5        0.0000 
     59 CA          4.4705   32.9935   -3.9455 C.3       3 GLC5        0.0000 
     60 CA          5.8480   31.5850   -3.6710 C.3       6 GLP5        0.0000 
     61 N           2.3165   36.2360   -4.7615 N.am      2 SEC2        0.0000 
     62 N           1.9930   35.0700   -3.6960 N.am      8 SEL2        0.0000 
     63 N           2.6400   37.4020   -5.8270 N.am      5 SEP2        0.0000 
     64 CA         -5.0092   32.5360    0.2405 C.3       3 GLC5        0.0000 
     65 CA         -4.7130   30.8520   -0.9830 C.3       6 GLP5        0.0000 
     66 CA         -5.9422   36.3788   -0.3445 C.3       3 GLC5        0.0000 
     67 CA         -0.3245   36.7370   -0.4575 C.3       3 GLC5        0.0000 
     68 CA         -2.0090   36.5410   -0.8340 C.3       9 GLL5        0.0000 
     69 CA         -2.1037   39.5205   -2.8428 C.3       3 GLC5        0.0000 
     70 CA         -2.1340   41.5950   -3.2850 C.3       6 GLP5        0.0000 
     71 CA          0.8548   31.4262   -4.0220 C.3       3 GLC5        0.0000 
     72 CA          0.5390   33.5310   -4.8360 C.3       9 GLL5        0.0000 
     73 CA          0.6110   29.6570   -2.9480 C.3       6 GLP5        0.0000 
     74 CA          1.0044   35.0274   -5.8750 C.3       3 GLC5        0.0000 
@<TRIPOS>BOND
@<TRIPOS>SUBSTRUCTURE
     1 ALC1        1 GROUP        1 X    ALC  0     ROOT ALC X 1
     2 SEC2       30 GROUP        1 X    SEC  0     **** SEC X 2
     3 GLC5        6 GROUP        1 X    GLC  0     **** GLC X 6
     4 ALP1        3 GROUP        1 Y    ALP  0     ROOT ALP Y 8
     5 SEP2       32 GROUP        1 Y    SEP  0     **** SEP Y 9
     6 GLP5        8 GROUP        1 Y    GLP  0     **** GLP Y 13
     7 ALL1        2 GROUP        1 Z    ALL  0     ROOT ALL Z 15
     8 SEL2       31 GROUP        1 Z    SEL  0     **** SEL Z 16
     9 GLL5        7 GROUP        1 Z    GLL  0     **** GLL Z 20
@<TRIPOS>SET

