#    Name: 1zq9_SAM_1_ligand
#    Modification time : Mon Mar 24 17:47:23 2014

@<TRIPOS>MOLECULE
1zq9_SAM_1_ligand
   50    52     1     0     0
SMALL
NO_CHARGES


@<TRIPOS>ATOM
      1 N          -6.2850   34.5950    4.0150 N.4       1 SAM4000     0.0000 
      2 CA         -6.3010   33.4410    3.0580 C.3       1 SAM4000     0.0000 
      3 C          -6.1940   32.1430    3.8880 C.2       1 SAM4000     0.0000 
      4 O          -5.1560   31.4630    3.9390 O.co2     1 SAM4000     0.0000 
      5 OXT        -7.1580   31.7480    4.5660 O.co2     1 SAM4000     0.0000 
      6 CB         -5.2280   33.6320    1.9560 C.3       1 SAM4000     0.0000 
      7 CG         -5.3830   34.8080    0.9720 C.3       1 SAM4000     0.0000 
      8 SD         -3.9840   35.9990    0.9100 S.3       1 SAM4000     0.0000 
      9 CE         -4.6650   37.6650    0.7630 C.3       1 SAM4000     0.0000 
     10 C5'        -3.2920   35.7240   -0.7240 C.3       1 SAM4000     0.0000 
     11 C4'        -2.0090   36.5410   -0.8340 C.3       1 SAM4000     0.0000 
     12 O4'        -1.0210   35.7580   -1.4580 O.3       1 SAM4000     0.0000 
     13 C3'        -2.1950   37.7650   -1.7160 C.3       1 SAM4000     0.0000 
     14 O3'        -1.2140   38.7290   -1.3310 O.3       1 SAM4000     0.0000 
     15 C2'        -1.9520   37.1270   -3.0850 C.3       1 SAM4000     0.0000 
     16 O2'        -1.7080   38.0060   -4.1550 O.3       1 SAM4000     0.0000 
     17 C1'        -0.7430   36.2540   -2.7650 C.3       1 SAM4000     0.0000 
     18 N9         -0.5170   35.1120   -3.6620 N.pl3     1 SAM4000     0.0000 
     19 C8         -1.4550   34.2980   -4.2550 C.2       1 SAM4000     0.0000 
     20 N7         -0.8050   33.3390   -4.9740 N.2       1 SAM4000     0.0000 
     21 C5          0.5390   33.5310   -4.8360 C.ar      1 SAM4000     0.0000 
     22 C6          1.6580   32.8600   -5.3560 C.ar      1 SAM4000     0.0000 
     23 N6          1.4800   31.8090   -6.1540 N.pl3     1 SAM4000     0.0000 
     24 N1          2.9380   33.3130   -5.0630 N.ar      1 SAM4000     0.0000 
     25 C2          3.0930   34.4020   -4.2200 C.ar      1 SAM4000     0.0000 
     26 N3          1.9930   35.0700   -3.6960 N.ar      1 SAM4000     0.0000 
     27 C4          0.7330   34.6480   -4.0100 C.ar      1 SAM4000     0.0000 
     28 H          -7.2898   33.4370    2.5709 H         1 SAM4000     0.0000 
     29 H          -5.1657   32.6831    1.3647 H         1 SAM4000     0.0000 
     30 H          -4.2297   33.7193    2.4557 H         1 SAM4000     0.0000 
     31 H          -6.2177   35.4586    1.2102 H         1 SAM4000     0.0000 
     32 H          -5.4525   34.4935   -0.0638 H         1 SAM4000     0.0000 
     33 H          -4.0608   36.0563   -1.3638 H         1 SAM4000     0.0000 
     34 H          -3.1323   34.6823   -0.7394 H         1 SAM4000     0.0000 
     35 H          -1.7067   36.8594    0.1374 H         1 SAM4000     0.0000 
     36 H          -3.1851   38.0694   -1.6434 H         1 SAM4000     0.0000 
     37 H          -2.7738   36.4377   -3.2543 H         1 SAM4000     0.0000 
     38 H           0.1261   36.8928   -2.7230 H         1 SAM4000     0.0000 
     39 H          -2.4051   34.3951   -4.1719 H         1 SAM4000     0.0000 
     40 H           0.5319   31.5777   -6.3721 H         1 SAM4000     0.0000 
     41 H           2.3105   31.3457   -6.4633 H         1 SAM4000     0.0000 
     42 H           4.0480   34.7260   -3.9745 H         1 SAM4000     0.0000 
     43 H          -6.3486   35.4725    3.5398 H         1 SAM4000     0.0000 
     44 H          -7.0492   34.5542    4.6587 H         1 SAM4000     0.0000 
     45 H          -5.4454   34.6158    4.5578 H         1 SAM4000     0.0000 
     46 H          -3.9453   38.3580    0.7212 H         1 SAM4000     0.0000 
     47 H          -5.2194   37.7681   -0.0628 H         1 SAM4000     0.0000 
     48 H          -5.2504   37.8968    1.5399 H         1 SAM4000     0.0000 
     49 H          -0.4687   38.6163   -1.9881 H         1 SAM4000     0.0000 
     50 H          -0.7765   38.3390   -4.0089 H         1 SAM4000     0.0000 
@<TRIPOS>BOND
     1    2    1 1    
     2   43    1 1    
     3   44    1 1    
     4   45    1 1    
     5    3    2 1    
     6    6    2 1    
     7   28    2 1    
     8    4    3 ar   
     9    5    3 ar   
    10    7    6 1    
    11   29    6 1    
    12   30    6 1    
    13    8    7 1    
    14   31    7 1    
    15   32    7 1    
    16    9    8 1    
    17   10    8 1    
    18   46    9 1    
    19   47    9 1    
    20   48    9 1    
    21   11   10 1    
    22   33   10 1    
    23   34   10 1    
    24   12   11 1    
    25   13   11 1    
    26   35   11 1    
    27   17   12 1    
    28   14   13 1    
    29   15   13 1    
    30   36   13 1    
    31   49   14 1    
    32   16   15 1    
    33   17   15 1    
    34   37   15 1    
    35   50   16 1    
    36   18   17 1    
    37   38   17 1    
    38   19   18 1    
    39   27   18 1    
    40   20   19 2    
    41   39   19 1    
    42   21   20 1    
    43   22   21 ar   
    44   27   21 ar   
    45   23   22 1    
    46   24   22 ar   
    47   40   23 1    
    48   41   23 1    
    49   25   24 ar   
    50   26   25 ar   
    51   42   25 1    
    52   27   26 ar   
@<TRIPOS>SUBSTRUCTURE
     1 SAM4000     1 GROUP   
@<TRIPOS>SET

