#    Name: 1pke_2FD_2_INTS_M
#    Modification time : Mon Mar 24 21:49:28 2014

@<TRIPOS>MOLECULE
1pke_2FD_2_INTS_M
   39     0     9     0     0
SMALL
NO_CHARGES


@<TRIPOS>ATOM
      1 CA         72.7295   34.0365   -4.6225 C.3       3 GLC5        0.0000 
      2 CA         73.5650   32.4210   -4.3900 C.3       9 GLL5        0.0000 
      3 CA         71.8940   35.6520   -4.8550 C.3       6 GLP5        0.0000 
      4 CA         77.3465   35.5100   -3.7560 C.3       3 GLC5        0.0000 
      5 CA         75.7380   35.4220   -5.1610 C.3       9 GLL5        0.0000 
      6 CA         78.9550   35.5980   -2.3510 C.3       6 GLP5        0.0000 
      7 CA         75.1075   37.5265   -0.1895 C.3       3 GLC5        0.0000 
      8 CA         74.7260   36.7940   -2.1370 C.3       9 GLL5        0.0000 
      9 CA         75.4890   38.2590    1.7580 C.3       6 GLP5        0.0000 
     10 CA         73.2270   36.1605   -2.8055 C.3       3 GLC5        0.0000 
     11 CA         71.7280   35.5270   -3.4740 C.3       6 GLP5        0.0000 
     12 O          74.6840   39.0495   -7.7495 O.2       1 ALC1        0.0000 
     13 O          74.7560   38.7090   -6.2200 O.2       7 ALL1        0.0000 
     14 O          74.6120   39.3900   -9.2790 O.2       4 ALP1        0.0000 
     15 N          75.7885   36.8360   -8.5525 N.am      2 SEC2        0.0000 
     16 N          75.8650   36.1040   -7.3100 N.am      8 SEL2        0.0000 
     17 N          75.7120   37.5680   -9.7950 N.am      5 SEP2        0.0000 
     18 CA         77.9475   34.1705   -3.2055 C.3       3 GLC5        0.0000 
     19 CA         76.9400   32.7430   -4.0600 C.3       9 GLL5        0.0000 
     20 CA         76.1970   33.3920   -2.0950 C.3       3 GLC5        0.0000 
     21 CA         75.4540   34.0410   -0.1300 C.3       6 GLP5        0.0000 
     22 O          76.9965   30.0680   -2.1870 O.2       1 ALC1        0.0000 
     23 O          76.3870   30.4860   -3.2740 O.2       7 ALL1        0.0000 
     24 O          77.6060   29.6500   -1.1000 O.2       4 ALP1        0.0000 
     25 CA         77.6048   36.1337   -6.3905 C.3       3 GLC5        0.0000 
     26 CA         79.5810   36.3270   -7.1850 C.3       6 GLP5        0.0000 
     27 CA         76.0790   38.2045   -2.4260 C.3       3 GLC5        0.0000 
     28 CA         75.0000   36.6480   -3.4050 C.3       9 GLL5        0.0000 
     29 CA         77.2950   39.6880   -2.0810 C.3       6 GLP5        0.0000 
     30 CA         76.9090   36.1595   -2.5610 C.3       3 GLC5        0.0000 
     31 CA         75.1585   35.3810   -1.4505 C.3       3 GLC5        0.0000 
     32 CA         76.5960   38.3693   -6.8015 C.3       3 GLC5        0.0000 
     33 CA         75.0030   37.6500   -5.4810 C.3       9 GLL5        0.0000 
     34 CA         77.9310   39.6840   -7.8470 C.3       6 GLP5        0.0000 
     35 CA         73.6871   30.6780   -4.2767 C.3       3 GLC5        0.0000 
     36 CA         74.8800   31.6710   -4.6440 C.3       9 GLL5        0.0000 
     37 CA         72.3200   29.4450   -4.5490 C.3       6 GLP5        0.0000 
     38 CA         74.4491   32.6260   -2.3283 C.3       3 GLC5        0.0000 
     39 CA         73.8440   33.3410   -0.6520 C.3       6 GLP5        0.0000 
@<TRIPOS>BOND
@<TRIPOS>SUBSTRUCTURE
     1 ALC1       12 GROUP        1 X    ALC  0     ROOT ALC X 1
     2 SEC2       15 GROUP        1 X    SEC  0     **** SEC X 2
     3 GLC5        1 GROUP        1 X    GLC  0     **** GLC X 6
     4 ALP1       14 GROUP        1 Y    ALP  0     ROOT ALP Y 8
     5 SEP2       17 GROUP        1 Y    SEP  0     **** SEP Y 9
     6 GLP5        3 GROUP        1 Y    GLP  0     **** GLP Y 13
     7 ALL1       13 GROUP        1 Z    ALL  0     ROOT ALL Z 15
     8 SEL2       16 GROUP        1 Z    SEL  0     **** SEL Z 16
     9 GLL5        2 GROUP        1 Z    GLL  0     **** GLL Z 20
@<TRIPOS>SET

