#    Name: 1pke_2FD_2_ligand
#    Modification time : Mon Mar 24 21:49:29 2014

@<TRIPOS>MOLECULE
1pke_2FD_2_ligand
   31    33     1     0     0
SMALL
NO_CHARGES


@<TRIPOS>ATOM
      1 O5'        72.6830   32.2740   -5.5090 O.3       1 2FD447      0.0000 
      2 C5'        73.5650   32.4210   -4.3900 C.3       1 2FD447      0.0000 
      3 C4'        74.8800   31.6710   -4.6440 C.3       1 2FD447      0.0000 
      4 O4'        75.5840   32.0980   -5.8560 O.3       1 2FD447      0.0000 
      5 C1'        76.6770   32.9750   -5.5630 C.3       1 2FD447      0.0000 
      6 N9         76.2430   34.3670   -5.9200 N.pl3     1 2FD447      0.0000 
      7 C4         75.7380   35.4220   -5.1610 C.ar      1 2FD447      0.0000 
      8 N3         75.4920   35.4650   -3.8220 N.ar      1 2FD447      0.0000 
      9 C2         75.0000   36.6480   -3.4050 C.ar      1 2FD447      0.0000 
     10 F          74.7260   36.7940   -2.1370 F         1 2FD447      0.0000 
     11 N1         74.7510   37.7150   -4.1590 N.ar      1 2FD447      0.0000 
     12 C6         75.0030   37.6500   -5.4810 C.ar      1 2FD447      0.0000 
     13 N6         74.7560   38.7090   -6.2200 N.pl3     1 2FD447      0.0000 
     14 C5         75.5190   36.4590   -6.0310 C.ar      1 2FD447      0.0000 
     15 N7         75.8650   36.1040   -7.3100 N.2       1 2FD447      0.0000 
     16 C8         76.2690   34.8860   -7.1500 C.2       1 2FD447      0.0000 
     17 C2'        76.9400   32.7430   -4.0600 C.3       1 2FD447      0.0000 
     18 C3'        75.8860   31.7760   -3.4920 C.3       1 2FD447      0.0000 
     19 O3'        76.3870   30.4860   -3.2740 O.3       1 2FD447      0.0000 
     20 H          73.1246   32.0161   -3.4699 H         1 2FD447      0.0000 
     21 H          73.8140   33.4737   -4.2048 H         1 2FD447      0.0000 
     22 H          74.6429   30.5928   -4.7467 H         1 2FD447      0.0000 
     23 H          77.5384   32.6879   -6.1098 H         1 2FD447      0.0000 
     24 H          74.4269   39.5182   -5.7333 H         1 2FD447      0.0000 
     25 H          74.9198   38.6087   -7.2014 H         1 2FD447      0.0000 
     26 H          76.6098   34.3078   -7.9479 H         1 2FD447      0.0000 
     27 H          76.8771   33.6879   -3.5385 H         1 2FD447      0.0000 
     28 H          77.9243   32.3142   -3.9338 H         1 2FD447      0.0000 
     29 H          75.4053   32.2214   -2.6822 H         1 2FD447      0.0000 
     30 H          73.1199   32.7821   -6.2513 H         1 2FD447      0.0000 
     31 H          76.7817   30.5136   -2.3556 H         1 2FD447      0.0000 
@<TRIPOS>BOND
     1    2    1 1    
     2   30    1 1    
     3    3    2 1    
     4   20    2 1    
     5   21    2 1    
     6    4    3 1    
     7   18    3 1    
     8   22    3 1    
     9    5    4 1    
    10    6    5 1    
    11   17    5 1    
    12   23    5 1    
    13    7    6 1    
    14   16    6 1    
    15    8    7 ar   
    16   14    7 ar   
    17    9    8 ar   
    18   10    9 1    
    19   11    9 ar   
    20   12   11 ar   
    21   13   12 1    
    22   14   12 ar   
    23   24   13 1    
    24   25   13 1    
    25   15   14 1    
    26   16   15 2    
    27   26   16 1    
    28   18   17 1    
    29   27   17 1    
    30   28   17 1    
    31   19   18 1    
    32   29   18 1    
    33   31   19 1    
@<TRIPOS>SUBSTRUCTURE
     1 2FD447      1 GROUP   
@<TRIPOS>SET

