#    Name: 1YLR_2_CAVITY_N1_6.mol2
#    Modification time : Mon Mar 10 21:00:47 2014

@<TRIPOS>MOLECULE
1YLR_2_CAVITY_N1_6.mol2
  177     0     7     0     0
SMALL
NO_CHARGES


@<TRIPOS>ATOM
      1 O          35.4724   16.2348   21.8121 O.2       2 ALA2        0.0000 
      2 O          34.5718   17.4344   21.8083 O.2       2 ALA2        0.0000 
      3 OD1        39.2319   11.5499   20.3397 O.3       3 ASP3        0.0000 
      4 OD1        36.5302   15.1486   20.3284 O.3       3 ASP3        0.0000 
      5 O          35.6296   16.3481   20.3246 O.2       2 ALA2        0.0000 
      6 O          34.7290   17.5477   20.3209 O.2       2 ALA2        0.0000 
      7 OD1        39.3891   11.6632   18.8522 O.3       3 ASP3        0.0000 
      8 OD1        38.4885   12.8628   18.8485 O.3       3 ASP3        0.0000 
      9 OD1        37.5879   14.0623   18.8447 O.3       3 ASP3        0.0000 
     10 OD1        36.6873   15.2619   18.8409 O.3       3 ASP3        0.0000 
     11 O          35.7867   16.4614   18.8372 O.2       2 ALA2        0.0000 
     12 N          39.5462   11.7766   17.3648 N.2       2 ALA2        0.0000 
     13 DU         38.6456   12.9761   17.3610 H         7 CUB7        0.0000 
     14 DU         37.7450   14.1757   17.3573 H         7 CUB7        0.0000 
     15 DU         36.8444   15.3752   17.3535 H         7 CUB7        0.0000 
     16 O          35.9438   16.5748   17.3498 O.2       2 ALA2        0.0000 
     17 O          35.0433   17.7743   17.3460 O.2       2 ALA2        0.0000 
     18 O          40.6039   10.6903   15.8811 O.2       2 ALA2        0.0000 
     19 O          39.7033   11.8899   15.8773 O.2       2 ALA2        0.0000 
     20 DU         38.8028   13.0894   15.8736 H         7 CUB7        0.0000 
     21 DU         37.9022   14.2890   15.8698 H         7 CUB7        0.0000 
     22 DU         37.0016   15.4885   15.8661 H         7 CUB7        0.0000 
     23 O          40.7611   10.8036   14.3937 O.2       2 ALA2        0.0000 
     24 CZ         39.8605   12.0032   14.3899 C.ar      5 PHE5        0.0000 
     25 CZ         38.9599   13.2027   14.3861 C.ar      5 PHE5        0.0000 
     26 CZ         38.0593   14.4023   14.3824 C.ar      5 PHE5        0.0000 
     27 CZ         40.9182   10.9169   12.9062 C.ar      5 PHE5        0.0000 
     28 CZ         40.0176   12.1165   12.9025 C.ar      5 PHE5        0.0000 
     29 O          34.1261   15.2281   23.1058 O.2       2 ALA2        0.0000 
     30 O          34.2832   15.3414   21.6184 O.2       2 ALA2        0.0000 
     31 O          33.3826   16.5409   21.6146 O.2       2 ALA2        0.0000 
     32 OD1        38.0427   10.6565   20.1460 O.3       3 ASP3        0.0000 
     33 OD1        35.3409   14.2551   20.1347 O.3       3 ASP3        0.0000 
     34 DU         34.4403   15.4547   20.1309 H         7 CUB7        0.0000 
     35 NZ         33.5398   16.6542   20.1272 N.2       4 LYS4        0.0000 
     36 OD1        38.1998   10.7698   18.6585 O.3       3 ASP3        0.0000 
     37 OD1        37.2993   11.9693   18.6548 O.3       3 ASP3        0.0000 
     38 OD1        36.3987   13.1689   18.6510 O.3       3 ASP3        0.0000 
     39 OD1        35.4981   14.3684   18.6472 O.3       3 ASP3        0.0000 
     40 DU         34.5975   15.5680   18.6435 H         7 CUB7        0.0000 
     41 O          33.6969   16.7675   18.6397 O.2       2 ALA2        0.0000 
     42 N          38.3570   10.8831   17.1711 N.2       2 ALA2        0.0000 
     43 DU         37.4564   12.0827   17.1673 H         7 CUB7        0.0000 
     44 DU         36.5558   13.2822   17.1636 H         7 CUB7        0.0000 
     45 DU         35.6552   14.4818   17.1598 H         7 CUB7        0.0000 
     46 CA         34.7546   15.6813   17.1561 C.3       6 GLY6        0.0000 
     47 O          33.8540   16.8809   17.1523 O.2       2 ALA2        0.0000 
     48 O          38.5141   10.9964   15.6836 O.2       2 ALA2        0.0000 
     49 CZ         37.6135   12.1960   15.6799 C.ar      5 PHE5        0.0000 
     50 CZ         36.7129   13.3955   15.6761 C.ar      5 PHE5        0.0000 
     51 CA         35.8123   14.5951   15.6724 C.3       6 GLY6        0.0000 
     52 CA         34.9118   15.7946   15.6686 C.3       6 GLY6        0.0000 
     53 O          39.5718    9.9102   14.2000 O.2       2 ALA2        0.0000 
     54 CZ         38.6713   11.1097   14.1962 C.ar      5 PHE5        0.0000 
     55 O          31.7220   15.3075   25.8832 O.2       2 ALA2        0.0000 
     56 O          32.7797   14.2213   24.3995 O.2       2 ALA2        0.0000 
     57 O          31.8791   15.4208   24.3958 O.2       2 ALA2        0.0000 
     58 OD1        30.9785   16.6204   24.3920 O.3       3 ASP3        0.0000 
     59 O          33.8374   13.1351   22.9159 O.2       2 ALA2        0.0000 
     60 O          32.9369   14.3346   22.9121 O.2       2 ALA2        0.0000 
     61 O          32.0363   15.5342   22.9083 O.2       2 ALA2        0.0000 
     62 NZ         31.1357   16.7337   22.9046 N.2       4 LYS4        0.0000 
     63 OD1        33.9946   13.2484   21.4284 O.3       3 ASP3        0.0000 
     64 DU         33.0940   14.4479   21.4247 H         7 CUB7        0.0000 
     65 NZ         32.1934   15.6475   21.4209 N.2       4 LYS4        0.0000 
     66 CA         36.8535    9.7630   19.9523 C.3       6 GLY6        0.0000 
     67 OD1        35.9529   10.9626   19.9485 O.3       3 ASP3        0.0000 
     68 OD1        35.0523   12.1621   19.9447 O.3       3 ASP3        0.0000 
     69 OD1        34.1517   13.3617   19.9410 O.3       3 ASP3        0.0000 
     70 DU         33.2511   14.5612   19.9372 H         7 CUB7        0.0000 
     71 CA         32.3505   15.7608   19.9335 C.3       6 GLY6        0.0000 
     72 N          37.9112    8.6768   18.4686 N.2       2 ALA2        0.0000 
     73 DU         37.0106    9.8764   18.4648 H         7 CUB7        0.0000 
     74 OD1        36.1100   11.0759   18.4611 O.3       3 ASP3        0.0000 
     75 OD1        35.2094   12.2755   18.4573 O.3       3 ASP3        0.0000 
     76 CA         34.3089   13.4750   18.4536 C.3       6 GLY6        0.0000 
     77 CA         33.4083   14.6746   18.4498 C.3       6 GLY6        0.0000 
     78 N          32.5077   15.8741   18.4460 N.2       2 ALA2        0.0000 
     79 N          38.0684    8.7901   16.9811 N.2       2 ALA2        0.0000 
     80 N          37.1678    9.9897   16.9774 N.2       2 ALA2        0.0000 
     81 DU         36.2672   11.1892   16.9736 H         7 CUB7        0.0000 
     82 DU         35.3666   12.3888   16.9699 H         7 CUB7        0.0000 
     83 CA         34.4660   13.5883   16.9661 C.3       6 GLY6        0.0000 
     84 CZ         37.3249   10.1030   15.4900 C.ar      5 PHE5        0.0000 
     85 CZ         36.4243   11.3025   15.4862 C.ar      5 PHE5        0.0000 
     86 CZ         35.5237   12.5021   15.4824 C.ar      5 PHE5        0.0000 
     87 CA         34.6231   13.7016   15.4787 C.3       6 GLY6        0.0000 
     88 OD1        31.4334   13.2145   25.6933 O.3       3 ASP3        0.0000 
     89 OD1        30.5328   14.4141   25.6895 O.3       3 ASP3        0.0000 
     90 O          31.5905   13.3279   24.2058 O.2       2 ALA2        0.0000 
     91 O          30.6899   14.5274   24.2021 O.2       2 ALA2        0.0000 
     92 O          29.7893   15.7270   24.1983 O.2       2 ALA2        0.0000 
     93 OG         32.6482   12.2416   22.7222 O.2       1 SER1        0.0000 
     94 OG         31.7476   13.4412   22.7184 O.2       1 SER1        0.0000 
     95 DU         30.8470   14.6407   22.7147 H         7 CUB7        0.0000 
     96 O          29.9465   15.8403   22.7109 O.2       2 ALA2        0.0000 
     97 OG         33.7060   11.1554   21.2385 O.2       1 SER1        0.0000 
     98 OG         32.8054   12.3549   21.2347 O.2       1 SER1        0.0000 
     99 DU         31.9048   13.5545   21.2310 H         7 CUB7        0.0000 
    100 CA         31.0042   14.7540   21.2272 C.3       6 GLY6        0.0000 
    101 N          34.7637   10.0691   19.7548 N.2       2 ALA2        0.0000 
    102 OG         33.8631   11.2687   19.7511 O.2       1 SER1        0.0000 
    103 DU         32.9625   12.4683   19.7473 H         7 CUB7        0.0000 
    104 O          32.0619   13.6678   19.7435 O.2       2 ALA2        0.0000 
    105 N          36.7220    7.7834   18.2749 N.2       2 ALA2        0.0000 
    106 N          35.8214    8.9829   18.2711 N.2       2 ALA2        0.0000 
    107 N          34.9208   10.1825   18.2674 N.2       2 ALA2        0.0000 
    108 O          34.0202   11.3820   18.2636 O.2       2 ALA2        0.0000 
    109 O          33.1196   12.5816   18.2599 O.2       2 ALA2        0.0000 
    110 CA         36.8791    7.8967   16.7874 C.3       6 GLY6        0.0000 
    111 N          35.9785    9.0962   16.7837 N.2       2 ALA2        0.0000 
    112 DU         35.0780   10.2958   16.7799 H         7 CUB7        0.0000 
    113 O          34.1774   11.4953   16.7762 O.2       2 ALA2        0.0000 
    114 O          36.1357    9.2095   15.2963 O.2       2 ALA2        0.0000 
    115 CZ         35.2351   10.4091   15.2925 C.ar      5 PHE5        0.0000 
    116 O          34.3345   11.6086   15.2887 O.2       2 ALA2        0.0000 
    117 CZ         35.3922   10.5224   13.8051 C.ar      5 PHE5        0.0000 
    118 OG         30.4013   12.4344   24.0122 O.2       1 SER1        0.0000 
    119 O          29.5007   13.6340   24.0084 O.2       2 ALA2        0.0000 
    120 OG         30.5584   12.5477   22.5247 O.2       1 SER1        0.0000 
    121 O          29.6578   13.7473   22.5210 O.2       2 ALA2        0.0000 
    122 OG         31.6161   11.4615   21.0410 O.2       1 SER1        0.0000 
    123 N          30.7156   12.6610   21.0373 N.2       2 ALA2        0.0000 
    124 CA         29.8150   13.8606   21.0335 C.3       6 GLY6        0.0000 
    125 N          33.5745    9.1757   19.5611 N.2       2 ALA2        0.0000 
    126 OG         32.6739   10.3753   19.5574 O.2       1 SER1        0.0000 
    127 N          31.7733   11.5748   19.5536 N.2       2 ALA2        0.0000 
    128 N          33.7316    9.2890   18.0737 N.2       2 ALA2        0.0000 
    129 O          32.8310   10.4886   18.0699 O.2       2 ALA2        0.0000 
    130 O          31.9304   11.6881   18.0662 O.2       2 ALA2        0.0000 
    131 O          34.7893    8.2028   16.5900 O.2       2 ALA2        0.0000 
    132 N          33.8887    9.4023   16.5862 N.2       2 ALA2        0.0000 
    133 O          32.9881   10.6019   16.5825 O.2       2 ALA2        0.0000 
    134 OG         34.0459    9.5157   15.0988 O.2       1 SER1        0.0000 
    135 OG         30.2698   10.4547   22.3348 O.2       1 SER1        0.0000 
    136 CA         29.3692   11.6543   22.3310 C.3       6 GLY6        0.0000 
    137 OG         31.3275    9.3685   20.8511 O.2       1 SER1        0.0000 
    138 CA         30.4269   10.5681   20.8473 C.3       6 GLY6        0.0000 
    139 N          29.5263   11.7676   20.8436 N.2       2 ALA2        0.0000 
    140 CA         31.4847    9.4818   19.3637 C.3       6 GLY6        0.0000 
    141 N          32.5424    8.3956   17.8800 N.2       2 ALA2        0.0000 
    142 CA         31.6418    9.5951   17.8762 C.3       6 GLY6        0.0000 
    143 N          32.6995    8.5089   16.3925 N.2       2 ALA2        0.0000 
    144 CA         30.2954    8.5884   19.1700 C.3       6 GLY6        0.0000 
    145 N          29.3948    9.7879   19.1662 N.2       2 ALA2        0.0000 
    146 CA         31.3532    7.5021   17.6863 C.3       6 GLY6        0.0000 
    147 O          30.4526    8.7017   17.6825 O.2       2 ALA2        0.0000 
    148 CA         31.5103    7.6155   16.1988 C.3       6 GLY6        0.0000 
    149 CA         29.1062    7.6949   18.9763 C.3       6 GLY6        0.0000 
    150 CA         30.1639    6.6087   17.4926 C.3       6 GLY6        0.0000 
    151 O          29.2633    7.8082   17.4888 O.2       2 ALA2        0.0000 
    152 NZ         30.3211    6.7220   16.0052 N.2       4 LYS4        0.0000 
    153 N          29.4205    7.9216   16.0014 N.2       2 ALA2        0.0000 
    154 CZ         39.8092   15.7359   20.7195 C.ar      5 PHE5        0.0000 
    155 DU         39.9663   15.8492   19.2321 H         7 CUB7        0.0000 
    156 N          42.8252   12.3639   17.7559 N.2       2 ALA2        0.0000 
    157 DU         41.9246   13.5634   17.7522 H         7 CUB7        0.0000 
    158 OD1        37.5622   15.9287   22.0095 O.3       3 ASP3        0.0000 
    159 O          36.6617   17.1283   22.0058 O.2       2 ALA2        0.0000 
    160 O          35.7611   18.3278   22.0020 O.2       2 ALA2        0.0000 
    161 OD1        38.6200   14.8425   20.5258 O.3       3 ASP3        0.0000 
    162 OD1        37.7194   16.0420   20.5221 O.3       3 ASP3        0.0000 
    163 O          36.8188   17.2416   20.5183 O.2       2 ALA2        0.0000 
    164 OD1        39.6777   13.7562   19.0422 O.3       3 ASP3        0.0000 
    165 OD1        38.7771   14.9558   19.0384 O.3       3 ASP3        0.0000 
    166 DU         37.8765   16.1553   19.0346 H         7 CUB7        0.0000 
    167 N          41.6360   11.4704   17.5622 N.2       2 ALA2        0.0000 
    168 DU         40.7354   12.6700   17.5585 H         7 CUB7        0.0000 
    169 DU         39.8348   13.8695   17.5547 H         7 CUB7        0.0000 
    170 DU         38.9342   15.0691   17.5510 H         7 CUB7        0.0000 
    171 O          42.6937   10.3842   16.0786 O.2       2 ALA2        0.0000 
    172 N          41.7932   11.5838   16.0748 N.2       2 ALA2        0.0000 
    173 DU         40.8926   12.7833   16.0710 H         7 CUB7        0.0000 
    174 DU         39.9920   13.9829   16.0673 H         7 CUB7        0.0000 
    175 DU         39.0914   15.1824   16.0635 H         7 CUB7        0.0000 
    176 N          41.9503   11.6971   14.5874 N.2       2 ALA2        0.0000 
    177 DU         41.0497   12.8966   14.5836 H         7 CUB7        0.0000 
@<TRIPOS>BOND
@<TRIPOS>SUBSTRUCTURE
     1 SER1       93 GROUP   
     2 ALA2        1 GROUP   
     3 ASP3        3 GROUP   
     4 LYS4       35 GROUP   
     5 PHE5       24 GROUP   
     6 GLY6       46 GROUP   
     7 CUB7       13 GROUP   
@<TRIPOS>SET

