#    Name: 1ylr_FMN_2_INTS_M
#    Modification time : Tue Mar 25 11:10:10 2014

@<TRIPOS>MOLECULE
1ylr_FMN_2_INTS_M
   84     0    12     0     0
SMALL
NO_CHARGES


@<TRIPOS>ATOM
      1 N          37.6175   11.7365   20.5860 N.am      2 SEC2        0.0000 
      2 N          37.9790   10.6750   19.8560 N.am     10 SEL2        0.0000 
      3 N          37.2560   12.7980   21.3160 N.am      6 SEP2        0.0000 
      4 O          39.1000    8.9610   17.8590 O.2       1 ALC1        0.0000 
      5 O          37.5380    9.5900   17.9140 O.2       9 ALL1        0.0000 
      6 O          40.6620    8.3320   17.8040 O.2       5 ALP1        0.0000 
      7 N          38.7015    8.2345   15.8085 N.am      2 SEC2        0.0000 
      8 N          37.0080    8.4910   15.9940 N.am     10 SEL2        0.0000 
      9 N          40.3950    7.9780   15.6230 N.am      6 SEP2        0.0000 
     10 N          35.9730    7.2700   15.4015 N.am      2 SEC2        0.0000 
     11 N          34.9380    6.0490   14.8090 N.am      6 SEP2        0.0000 
     12 N          37.0275    7.7195   14.7055 N.am      2 SEC2        0.0000 
     13 N          37.0470    6.9480   13.4170 N.am      6 SEP2        0.0000 
     14 N          34.6485    7.3135   15.6550 N.am      2 SEC2        0.0000 
     15 N          34.3590    8.5780   16.5010 N.am     10 SEL2        0.0000 
     16 CA         33.3750    7.7035   14.8485 C.3       4 GLC5        0.0000 
     17 CA         33.0520    8.5570   16.8690 C.3      12 GLL5        0.0000 
     18 CA         33.6980    6.8500   12.8280 C.3       8 GLP5        0.0000 
     19 CA         29.9695    8.6325   14.8945 C.3       4 GLC5        0.0000 
     20 CA         29.8740    6.7430   15.7350 C.3      12 GLL5        0.0000 
     21 CA         30.0650   10.5220   14.0540 C.3       8 GLP5        0.0000 
     22 CA         28.2535    5.9440   16.8045 C.3       4 GLC5        0.0000 
     23 CA         26.6330    5.1450   17.8740 C.3       8 GLP5        0.0000 
     24 CA         28.8115    5.6595   14.5930 C.3       4 GLC5        0.0000 
     25 CA         27.7490    4.5760   13.4510 C.3       8 GLP5        0.0000 
     26 CA         28.2690    8.8170   20.0955 C.3       4 GLC5        0.0000 
     27 CA         28.9640    8.1050   18.1890 C.3      12 GLL5        0.0000 
     28 CA         27.5740    9.5290   22.0020 C.3       8 GLP5        0.0000 
     29 CA         27.7985    6.6250   18.0315 C.3       4 GLC5        0.0000 
     30 CA         33.4865   10.3000   21.9390 C.3       4 GLC5        0.0000 
     31 CA         33.0630   10.4760   20.0970 C.3      12 GLL5        0.0000 
     32 CA         33.9100   10.1240   23.7810 C.3       8 GLP5        0.0000 
     33 CA         32.3060    8.5095   20.3530 C.3       4 GLC5        0.0000 
     34 CA         31.5490    6.5430   20.6090 C.3       8 GLP5        0.0000 
     35 CA         32.6115   11.0700   22.3910 C.3       4 GLC5        0.0000 
     36 CA         31.3130   12.0160   21.0010 C.3      12 GLL5        0.0000 
     37 NZ         30.2445   12.8850   26.6025 N.4       3 LYC4        0.0000 
     38 NZ         31.4300   12.5310   25.5490 N.4      11 LYL4        0.0000 
     39 NZ         29.0590   13.2390   27.6560 N.4       7 LYP4        0.0000 
     40 N          32.2650   11.3710   25.8290 N.am      2 SEC2        0.0000 
     41 N          31.4300   12.5310   25.5490 N.am     10 SEL2        0.0000 
     42 N          33.1000   10.2110   26.1090 N.am      6 SEP2        0.0000 
     43 NZ         30.1995    9.6700   24.5240 N.4       3 LYC4        0.0000 
     44 NZ         30.4610   10.9250   23.7830 N.4      11 LYL4        0.0000 
     45 NZ         28.8390    8.5580   25.9770 N.4       7 LYP4        0.0000 
     46 N          29.3060   10.3065   24.8360 N.am      2 SEC2        0.0000 
     47 N          30.4610   10.9250   23.7830 N.am     10 SEL2        0.0000 
     48 N          28.1510    9.6880   25.8890 N.am      6 SEP2        0.0000 
     49 N          30.1995    9.6700   24.5240 N.am      2 SEC2        0.0000 
     50 N          29.9380    8.4150   25.2650 N.am      6 SEP2        0.0000 
     51 N          31.5840   10.3055   23.4565 N.am      2 SEC2        0.0000 
     52 N          32.7070    9.6860   23.1300 N.am      6 SEP2        0.0000 
     53 NZ         28.5650   11.0705   25.5145 N.4       3 LYC4        0.0000 
     54 NZ         28.9790   12.4530   25.1400 N.4      11 LYL4        0.0000 
     55 NZ         29.0190   12.8460   26.3980 N.4       3 LYC4        0.0000 
     56 NZ         27.7325   12.7590   24.6125 N.4       3 LYC4        0.0000 
     57 NZ         26.1570   14.3210   23.7860 N.4       7 LYP4        0.0000 
     58 N          28.5650   11.0705   25.5145 N.am      2 SEC2        0.0000 
     59 N          28.9790   12.4530   25.1400 N.am     10 SEL2        0.0000 
     60 N          29.0190   12.8460   26.3980 N.am      2 SEC2        0.0000 
     61 N          29.0590   13.2390   27.6560 N.am      6 SEP2        0.0000 
     62 N          27.7325   12.7590   24.6125 N.am      2 SEC2        0.0000 
     63 N          26.4860   13.0650   24.0850 N.am      6 SEP2        0.0000 
     64 CA         31.3203    9.6253   15.9832 C.3       4 GLC5        0.0000 
     65 CA         30.0310   11.0980   15.4510 C.3       8 GLP5        0.0000 
     66 CA         34.1158    6.7343   16.7662 C.3       4 GLC5        0.0000 
     67 CA         32.1670    7.7480   16.1620 C.3      12 GLL5        0.0000 
     68 CA         35.6220    5.3160   17.0170 C.3       8 GLP5        0.0000 
     69 CA         31.7491    6.6329   18.1289 C.3       4 GLC5        0.0000 
     70 CA         30.8230    7.6030   16.5540 C.3      12 GLL5        0.0000 
     71 CA         31.7820    5.3880   19.7230 C.3       8 GLP5        0.0000 
     72 CA         31.5003    6.7226   14.4473 C.3       4 GLC5        0.0000 
     73 CA         32.3160    6.2360   12.8480 C.3       8 GLP5        0.0000 
     74 CA         28.3670    9.5207   17.8618 C.3       4 GLC5        0.0000 
     75 CA         30.3920    8.2280   17.7040 C.3      12 GLL5        0.0000 
     76 CA         27.0560   10.8750   17.7770 C.3       8 GLP5        0.0000 
     77 CA         30.6135    7.3548   19.2778 C.3       4 GLC5        0.0000 
     78 CA         29.9084    9.5541   16.5550 C.3       4 GLC5        0.0000 
     79 CA         30.9920   10.0935   16.8468 C.3       4 GLC5        0.0000 
     80 CA         31.2860    8.9930   18.4570 C.3      12 GLL5        0.0000 
     81 CA         31.7510    7.8160   19.4258 C.3       4 GLC5        0.0000 
     82 CA         29.7312   14.9155   20.4398 C.3       4 GLC5        0.0000 
     83 CA         30.5930   13.3720   20.9890 C.3      12 GLL5        0.0000 
     84 CA         29.2980   16.3790   19.2710 C.3       8 GLP5        0.0000 
@<TRIPOS>BOND
@<TRIPOS>SUBSTRUCTURE
     1 ALC1        4 GROUP        1 X    ALC  0     ROOT ALC X 1
     2 SEC2        1 GROUP        1 X    SEC  0     **** SEC X 2
     3 LYC4       37 GROUP        1 X    LYC  0     **** LYC X 4
     4 GLC5       16 GROUP        1 X    GLC  0     **** GLC X 6
     5 ALP1        6 GROUP        1 Y    ALP  0     ROOT ALP Y 8
     6 SEP2        3 GROUP        1 Y    SEP  0     **** SEP Y 9
     7 LYP4       39 GROUP        1 Y    LYP  0     **** LYP Y 11
     8 GLP5       18 GROUP        1 Y    GLP  0     **** GLP Y 13
     9 ALL1        5 GROUP        1 Z    ALL  0     ROOT ALL Z 15
    10 SEL2        2 GROUP        1 Z    SEL  0     **** SEL Z 16
    11 LYL4       38 GROUP        1 Z    LYL  0     **** LYL Z 18
    12 GLL5       17 GROUP        1 Z    GLL  0     **** GLL Z 20
@<TRIPOS>SET

