#    Name: 1ylr_FMN_2_ligand
#    Modification time : Tue Mar 25 11:10:10 2014

@<TRIPOS>MOLECULE
1ylr_FMN_2_ligand
   50    52     1     0     0
SMALL
NO_CHARGES


@<TRIPOS>ATOM
      1 N1         35.8140   10.2530   19.3880 N.2       1 FMN2218     0.0000 
      2 C2         37.1320   10.1780   19.0650 C.2       1 FMN2218     0.0000 
      3 O2         37.9790   10.6750   19.8560 O.2       1 FMN2218     0.0000 
      4 N3         37.5380    9.5900   17.9140 N.am      1 FMN2218     0.0000 
      5 C4         36.6320    9.0310   17.0600 C.2       1 FMN2218     0.0000 
      6 O4         37.0080    8.4910   15.9940 O.2       1 FMN2218     0.0000 
      7 C4A        35.2740    9.1170   17.3680 C.2       1 FMN2218     0.0000 
      8 N5         34.3590    8.5780   16.5010 N.2       1 FMN2218     0.0000 
      9 C5A        33.0520    8.5570   16.8690 C.ar      1 FMN2218     0.0000 
     10 C6         32.1670    7.7480   16.1620 C.ar      1 FMN2218     0.0000 
     11 C7         30.8230    7.6030   16.5540 C.ar      1 FMN2218     0.0000 
     12 C7M        29.8740    6.7430   15.7350 C.3       1 FMN2218     0.0000 
     13 C8         30.3920    8.2280   17.7040 C.ar      1 FMN2218     0.0000 
     14 C8M        28.9640    8.1050   18.1890 C.3       1 FMN2218     0.0000 
     15 C9         31.2860    8.9930   18.4570 C.ar      1 FMN2218     0.0000 
     16 C9A        32.6200    9.1850   18.0280 C.ar      1 FMN2218     0.0000 
     17 N10        33.5430    9.8640   18.8440 N.pl3     1 FMN2218     0.0000 
     18 C10        34.8680    9.7300   18.5560 C.2       1 FMN2218     0.0000 
     19 C1'        33.0630   10.4760   20.0970 C.3       1 FMN2218     0.0000 
     20 C2'        32.1960   11.7240   19.7930 C.3       1 FMN2218     0.0000 
     21 O2'        33.0010   12.8670   19.4830 O.3       1 FMN2218     0.0000 
     22 C3'        31.3130   12.0160   21.0010 C.3       1 FMN2218     0.0000 
     23 O3'        30.3780   10.9420   21.1360 O.3       1 FMN2218     0.0000 
     24 C4'        30.5930   13.3720   20.9890 C.3       1 FMN2218     0.0000 
     25 O4'        31.5130   14.4810   20.9610 O.3       1 FMN2218     0.0000 
     26 C5'        29.7360   13.5320   22.2280 C.3       1 FMN2218     0.0000 
     27 O5'        30.5680   13.3920   23.3810 O.3       1 FMN2218     0.0000 
     28 P          30.3340   12.2530   24.4930 P.3       1 FMN2218     0.0000 
     29 O1P        31.4300   12.5310   25.5490 O.co2     1 FMN2218     0.0000 
     30 O2P        30.4610   10.9250   23.7830 O.co2     1 FMN2218     0.0000 
     31 O3P        28.9790   12.4530   25.1400 O.co2     1 FMN2218     0.0000 
     32 H          38.5529    9.5619   17.6739 H         1 FMN2218     0.0000 
     33 H          32.5002    7.2360   15.3236 H         1 FMN2218     0.0000 
     34 H          30.9765    9.4267   19.3386 H         1 FMN2218     0.0000 
     35 H          33.8998   10.7926   20.7215 H         1 FMN2218     0.0000 
     36 H          32.4518    9.7729   20.6649 H         1 FMN2218     0.0000 
     37 H          31.5419   11.4661   18.9646 H         1 FMN2218     0.0000 
     38 H          31.9800   12.0083   21.8927 H         1 FMN2218     0.0000 
     39 H          29.9358   13.4028   20.1278 H         1 FMN2218     0.0000 
     40 H          28.9520   12.7710   22.2011 H         1 FMN2218     0.0000 
     41 H          29.2613   14.5157   22.1897 H         1 FMN2218     0.0000 
     42 H          29.7863    7.0771   14.7965 H         1 FMN2218     0.0000 
     43 H          30.1857    5.7944   15.6805 H         1 FMN2218     0.0000 
     44 H          28.9545    6.7272   16.1277 H         1 FMN2218     0.0000 
     45 H          28.7159    7.1545   18.3761 H         1 FMN2218     0.0000 
     46 H          28.8130    8.6190   19.0334 H         1 FMN2218     0.0000 
     47 H          28.3116    8.4509   17.5146 H         1 FMN2218     0.0000 
     48 H          32.5828   13.6224   19.9874 H         1 FMN2218     0.0000 
     49 H          30.3121   10.7786   22.1204 H         1 FMN2218     0.0000 
     50 H          31.4872   14.8619   21.8853 H         1 FMN2218     0.0000 
@<TRIPOS>BOND
     1    2    1 1    
     2   18    1 2    
     3    3    2 2    
     4    4    2 am   
     5    5    4 am   
     6   32    4 1    
     7    6    5 2    
     8    7    5 1    
     9    8    7 2    
    10   18    7 1    
    11    9    8 1    
    12   10    9 ar   
    13   16    9 ar   
    14   11   10 ar   
    15   33   10 1    
    16   12   11 1    
    17   13   11 ar   
    18   42   12 1    
    19   43   12 1    
    20   44   12 1    
    21   14   13 1    
    22   15   13 ar   
    23   45   14 1    
    24   46   14 1    
    25   47   14 1    
    26   16   15 ar   
    27   34   15 1    
    28   17   16 1    
    29   18   17 1    
    30   19   17 1    
    31   20   19 1    
    32   35   19 1    
    33   36   19 1    
    34   21   20 1    
    35   22   20 1    
    36   37   20 1    
    37   48   21 1    
    38   23   22 1    
    39   24   22 1    
    40   38   22 1    
    41   49   23 1    
    42   25   24 1    
    43   26   24 1    
    44   39   24 1    
    45   50   25 1    
    46   27   26 1    
    47   40   26 1    
    48   41   26 1    
    49   28   27 1    
    50   29   28 ar   
    51   30   28 ar   
    52   31   28 ar   
@<TRIPOS>SUBSTRUCTURE
     1 FMN2218     1 GROUP   
@<TRIPOS>SET

