#    Name: 3imy_B72_1_INTS_M
#    Modification time : Tue Mar 25 16:45:51 2014

@<TRIPOS>MOLECULE
3imy_B72_1_INTS_M
   89     0    12     0     0
SMALL
NO_CHARGES


@<TRIPOS>ATOM
      1 NZ         10.9710   23.9185   25.1045 N.4       3 LYC4        0.0000 
      2 NZ         10.1970   22.7540   24.7310 N.4      11 LYL4        0.0000 
      3 NZ         11.9930   25.6110   26.6710 N.4       7 LYP4        0.0000 
      4 N          10.9710   23.9185   25.1045 N.am      2 SEC2        0.0000 
      5 N          10.1970   22.7540   24.7310 N.am     10 SEL2        0.0000 
      6 N          11.7450   25.0830   25.4780 N.am      6 SEP2        0.0000 
      7 NZ         10.2610   24.5495   25.6745 N.4       3 LYC4        0.0000 
      8 NZ          8.7770   24.0160   25.8710 N.4      11 LYL4        0.0000 
      9 N          10.2610   24.5495   25.6745 N.am      2 SEC2        0.0000 
     10 N           8.7770   24.0160   25.8710 N.am     10 SEL2        0.0000 
     11 CA          8.4170   22.7025   27.6715 C.3       4 GLC5        0.0000 
     12 CA          8.5890   21.5320   25.9490 C.3      12 GLL5        0.0000 
     13 CA          8.2450   23.8730   29.3940 C.3       8 GLP5        0.0000 
     14 CA          9.4510   19.7310   26.3315 C.3       4 GLC5        0.0000 
     15 CA         10.3130   17.9300   26.7140 C.3       8 GLP5        0.0000 
     16 CA         10.3675   21.3145   26.8935 C.3       4 GLC5        0.0000 
     17 CA         12.1460   21.0970   27.8380 C.3       8 GLP5        0.0000 
     18 CA          6.0250   17.3525   32.2335 C.3       4 GLC5        0.0000 
     19 CA          6.3950   18.9220   30.6950 C.3      12 GLL5        0.0000 
     20 CA          5.6550   15.7830   33.7720 C.3       8 GLP5        0.0000 
     21 CA          8.1445   18.9395   31.6145 C.3       4 GLC5        0.0000 
     22 CA          9.8940   18.9570   32.5340 C.3       8 GLP5        0.0000 
     23 CA          5.4665   20.1365   31.8360 C.3       4 GLC5        0.0000 
     24 CA          4.5380   21.3510   32.9770 C.3       8 GLP5        0.0000 
     25 CA          1.7425   19.1145   26.5200 C.3       4 GLC5        0.0000 
     26 CA          3.6710   18.5030   26.2360 C.3      12 GLL5        0.0000 
     27 CA         -0.1860   19.7260   26.8040 C.3       8 GLP5        0.0000 
     28 CA          3.1665   19.7300   24.4890 C.3       4 GLC5        0.0000 
     29 CA          2.6620   20.9570   22.7420 C.3       8 GLP5        0.0000 
     30 CA          4.9465   18.4575   24.6815 C.3       4 GLC5        0.0000 
     31 CA          6.2220   18.4120   23.1270 C.3       8 GLP5        0.0000 
     32 CA          2.2625   17.7155   25.2525 C.3       4 GLC5        0.0000 
     33 CA          0.8540   16.9280   24.2690 C.3       8 GLP5        0.0000 
     34 CA          5.9840   16.5985   28.7485 C.3       4 GLC5        0.0000 
     35 CA          4.2360   17.5870   28.9990 C.3      12 GLL5        0.0000 
     36 CA          7.7320   15.6100   28.4980 C.3       8 GLP5        0.0000 
     37 CA          4.2285   16.5740   32.4260 C.3       4 GLC5        0.0000 
     38 CA          2.8020   17.3650   31.0800 C.3      12 GLL5        0.0000 
     39 CA          1.3160   15.1405   35.2320 C.3       4 GLC5        0.0000 
     40 CA          1.5330   15.5430   33.1110 C.3      12 GLL5        0.0000 
     41 CA          1.0990   14.7380   37.3530 C.3       8 GLP5        0.0000 
     42 CA          3.1260   14.5800   33.0315 C.3       4 GLC5        0.0000 
     43 CA          4.7190   13.6170   32.9520 C.3       8 GLP5        0.0000 
     44 CA          0.2360   14.0170   33.3665 C.3       4 GLC5        0.0000 
     45 CA         -1.0610   12.4910   33.6220 C.3       8 GLP5        0.0000 
     46 CA          1.2890   16.8350   36.0160 C.3       4 GLC5        0.0000 
     47 CA          2.0920   17.7180   34.3720 C.3      12 GLL5        0.0000 
     48 CA          0.4860   15.9520   37.6600 C.3       8 GLP5        0.0000 
     49 CA          3.8735   16.7505   34.0720 C.3       4 GLC5        0.0000 
     50 CA          2.9625   17.8035   36.1310 C.3       4 GLC5        0.0000 
     51 CA          3.8330   17.8890   37.8900 C.3       8 GLP5        0.0000 
     52 CA          1.2975   19.7875   34.3250 C.3       4 GLC5        0.0000 
     53 CA          0.5030   21.8570   34.2780 C.3       8 GLP5        0.0000 
     54 O          -1.0615   19.8700   31.6210 O.2       1 ALC1        0.0000 
     55 O          -0.1370   19.3140   32.3290 O.2       9 ALL1        0.0000 
     56 O          -1.9860   20.4260   30.9130 O.2       5 ALP1        0.0000 
     57 CA          2.5680   21.1310   31.3910 C.3       4 GLC5        0.0000 
     58 CA          1.2690   19.6900   30.3190 C.3      12 GLL5        0.0000 
     59 CA          3.8670   22.5720   32.4630 C.3       8 GLP5        0.0000 
     60 CA          0.6335   20.5745   28.7960 C.3       4 GLC5        0.0000 
     61 CA         -0.0020   21.4590   27.2730 C.3       8 GLP5        0.0000 
     62 CA          1.0695   19.5035   28.1560 C.3       4 GLC5        0.0000 
     63 CA          2.3250   19.2810   29.5080 C.3      12 GLL5        0.0000 
     64 CA          7.5297   22.2155   28.6980 C.3       4 GLC5        0.0000 
     65 CA          6.9350   20.3440   28.6790 C.3      12 GLL5        0.0000 
     66 CA          5.0682   22.0487   26.5012 C.3       4 GLC5        0.0000 
     67 CA          6.6940   20.7720   27.3250 C.3      12 GLL5        0.0000 
     68 CA          3.9730   23.6160   26.0740 C.3       8 GLP5        0.0000 
     69 CA          7.1723   17.9400   28.7538 C.3       4 GLC5        0.0000 
     70 CA          6.1540   19.3520   29.2360 C.3      12 GLL5        0.0000 
     71 CA          8.0700   16.7430   27.5420 C.3       8 GLP5        0.0000 
     72 CA          5.7170   19.0390   24.9682 C.3       4 GLC5        0.0000 
     73 CA          4.7910   19.1410   27.0870 C.3      12 GLL5        0.0000 
     74 CA          2.3252   16.6110   28.7730 C.3       4 GLC5        0.0000 
     75 CA          0.9780   15.3800   28.0960 C.3       8 GLP5        0.0000 
     76 CA          3.4786   15.7087   29.5325 C.3       4 GLC5        0.0000 
     77 CA          3.7200   13.8140   28.8000 C.3       8 GLP5        0.0000 
     78 CA          0.7870   16.8845   30.6212 C.3       4 GLC5        0.0000 
     79 CA         -0.6830   16.1890   29.7510 C.3       8 GLP5        0.0000 
     80 CA          0.3850   16.2437   31.4527 C.3       4 GLC5        0.0000 
     81 CA          1.3730   17.0540   33.1980 C.3      12 GLL5        0.0000 
     82 CA         -0.4425   16.1947   33.2793 C.3       4 GLC5        0.0000 
     83 CA         -2.3380   16.0910   33.4040 C.3       8 GLP5        0.0000 
     84 CA         -0.7095   19.5040   30.4060 C.3       4 GLC5        0.0000 
     85 CA          0.9450   18.9380   31.5310 C.3      12 GLL5        0.0000 
     86 CA         -2.5260   19.6940   29.8870 C.3       8 GLP5        0.0000 
     87 CA          0.5165   17.7432   29.9838 C.3       4 GLC5        0.0000 
     88 CA          6.8207   18.2006   27.5225 C.3       4 GLC5        0.0000 
     89 CA          5.0470   18.7430   28.3910 C.3      12 GLL5        0.0000 
@<TRIPOS>BOND
@<TRIPOS>SUBSTRUCTURE
     1 ALC1       54 GROUP        1 X    ALC  0     ROOT ALC X 1
     2 SEC2        4 GROUP        1 X    SEC  0     **** SEC X 2
     3 LYC4        1 GROUP        1 X    LYC  0     **** LYC X 4
     4 GLC5       11 GROUP        1 X    GLC  0     **** GLC X 6
     5 ALP1       56 GROUP        1 Y    ALP  0     ROOT ALP Y 8
     6 SEP2        6 GROUP        1 Y    SEP  0     **** SEP Y 9
     7 LYP4        3 GROUP        1 Y    LYP  0     **** LYP Y 11
     8 GLP5       13 GROUP        1 Y    GLP  0     **** GLP Y 13
     9 ALL1       55 GROUP        1 Z    ALL  0     ROOT ALL Z 15
    10 SEL2        5 GROUP        1 Z    SEL  0     **** SEL Z 16
    11 LYL4        2 GROUP        1 Z    LYL  0     **** LYL Z 18
    12 GLL5       12 GROUP        1 Z    GLL  0     **** GLL Z 20
@<TRIPOS>SET

