#    Name: 3imy_B72_1_ligand
#    Modification time : Tue Mar 25 16:45:51 2014

@<TRIPOS>MOLECULE
3imy_B72_1_ligand
   47    48     1     0     0
SMALL
NO_CHARGES


@<TRIPOS>ATOM
      1 O1         10.1970   22.7540   24.7310 O.co2     1 B72462      0.0000 
      2 C20         9.3990   22.7910   25.6110 C.2       1 B72462      0.0000 
      3 O2          8.7770   24.0160   25.8710 O.co2     1 B72462      0.0000 
      4 C19         8.5890   21.5320   25.9490 C.3       1 B72462      0.0000 
      5 O3          7.5060   21.8120   26.8010 O.3       1 B72462      0.0000 
      6 C1          6.6940   20.7720   27.3250 C.ar      1 B72462      0.0000 
      7 C2          6.9350   20.3440   28.6790 C.ar      1 B72462      0.0000 
      8 C3          6.1540   19.3520   29.2360 C.ar      1 B72462      0.0000 
      9 C17         6.3950   18.9220   30.6950 C.3       1 B72462      0.0000 
     10 C4          5.0470   18.7430   28.3910 C.ar      1 B72462      0.0000 
     11 C5          4.7910   19.1410   27.0870 C.ar      1 B72462      0.0000 
     12 C6          5.6330   20.1910   26.5320 C.ar      1 B72462      0.0000 
     13 C18         3.6710   18.5030   26.2360 C.3       1 B72462      0.0000 
     14 C7          4.2360   17.5870   28.9990 C.3       1 B72462      0.0000 
     15 C8          3.1090   18.0970   29.9010 C.ar      1 B72462      0.0000 
     16 C13         2.8020   17.3650   31.0800 C.ar      1 B72462      0.0000 
     17 C12         1.7120   17.7950   31.9030 C.ar      1 B72462      0.0000 
     18 C14         1.3730   17.0540   33.1980 C.3       1 B72462      0.0000 
     19 C16         1.5330   15.5430   33.1110 C.3       1 B72462      0.0000 
     20 C15         2.0920   17.7180   34.3720 C.3       1 B72462      0.0000 
     21 C11         0.9450   18.9380   31.5310 C.ar      1 B72462      0.0000 
     22 O4         -0.1370   19.3140   32.3290 O.3       1 B72462      0.0000 
     23 C10         1.2690   19.6900   30.3190 C.ar      1 B72462      0.0000 
     24 C9          2.3250   19.2810   29.5080 C.ar      1 B72462      0.0000 
     25 H           9.2945   20.8038   26.3966 H         1 B72462      0.0000 
     26 H           8.2598   21.0910   24.9870 H         1 B72462      0.0000 
     27 H           7.6890   20.7906   29.2036 H         1 B72462      0.0000 
     28 H           5.4721   20.5127   25.5877 H         1 B72462      0.0000 
     29 H           4.9050   16.9526   29.5830 H         1 B72462      0.0000 
     30 H           3.8083   16.9901   28.1916 H         1 B72462      0.0000 
     31 H           3.3425   16.5518   31.3380 H         1 B72462      0.0000 
     32 H           0.2670   17.2553   33.3711 H         1 B72462      0.0000 
     33 H           0.7058   20.5057   30.0956 H         1 B72462      0.0000 
     34 H           2.5775   19.7620   28.6599 H         1 B72462      0.0000 
     35 H           7.3234   18.5765   30.8318 H         1 B72462      0.0000 
     36 H           6.2684   19.6824   31.3320 H         1 B72462      0.0000 
     37 H           5.7676   18.1961   30.9767 H         1 B72462      0.0000 
     38 H           3.6209   18.9090   25.3235 H         1 B72462      0.0000 
     39 H           3.8122   17.5208   26.1125 H         1 B72462      0.0000 
     40 H           2.7719   18.6191   26.6582 H         1 B72462      0.0000 
     41 H           2.4709   15.2814   32.8832 H         1 B72462      0.0000 
     42 H           1.3055   15.0951   33.9756 H         1 B72462      0.0000 
     43 H           0.9397   15.1464   32.4105 H         1 B72462      0.0000 
     44 H           3.0850   17.7043   34.2551 H         1 B72462      0.0000 
     45 H           1.8226   18.6751   34.4792 H         1 B72462      0.0000 
     46 H           1.8924   17.2586   35.2375 H         1 B72462      0.0000 
     47 H          -0.6211   19.7141   31.5507 H         1 B72462      0.0000 
@<TRIPOS>BOND
     1    2    1 ar   
     2    3    2 ar   
     3    4    2 1    
     4    5    4 1    
     5   25    4 1    
     6   26    4 1    
     7    6    5 1    
     8    7    6 ar   
     9   12    6 ar   
    10    8    7 ar   
    11   27    7 1    
    12    9    8 1    
    13   10    8 ar   
    14   35    9 1    
    15   36    9 1    
    16   37    9 1    
    17   11   10 ar   
    18   14   10 1    
    19   12   11 ar   
    20   13   11 1    
    21   28   12 1    
    22   38   13 1    
    23   39   13 1    
    24   40   13 1    
    25   15   14 1    
    26   29   14 1    
    27   30   14 1    
    28   16   15 ar   
    29   24   15 ar   
    30   17   16 ar   
    31   31   16 1    
    32   18   17 1    
    33   21   17 ar   
    34   19   18 1    
    35   20   18 1    
    36   32   18 1    
    37   41   19 1    
    38   42   19 1    
    39   43   19 1    
    40   44   20 1    
    41   45   20 1    
    42   46   20 1    
    43   22   21 1    
    44   23   21 ar   
    45   47   22 1    
    46   24   23 ar   
    47   33   23 1    
    48   34   24 1    
@<TRIPOS>SUBSTRUCTURE
     1 B72462      1 GROUP   
@<TRIPOS>SET

