#    Name: 3eve_SAH_2_INTS_M
#    Modification time : Tue Mar 25 02:34:31 2014

@<TRIPOS>MOLECULE
3eve_SAH_2_INTS_M
   64     0    12     0     0
SMALL
NO_CHARGES


@<TRIPOS>ATOM
      1 OD1        24.0050   29.2690  -28.0640 O.co2     3 ASC3        0.0000 
      2 OD1        24.2860   30.1430  -26.9520 O.co2    11 ASL3        0.0000 
      3 OD1        23.7240   28.3950  -29.1760 O.co2     7 ASP3        0.0000 
      4 O          24.7620   29.2195  -25.9965 O.2       1 ALC1        0.0000 
      5 O          24.2860   30.1430  -26.9520 O.2       9 ALL1        0.0000 
      6 O          25.2380   28.2960  -25.0410 O.2       5 ALP1        0.0000 
      7 O          24.0050   29.2690  -28.0640 O.2       1 ALC1        0.0000 
      8 O          23.7240   28.3950  -29.1760 O.2       5 ALP1        0.0000 
      9 CA         23.2630   31.0175  -26.5185 C.3       4 GLC5        0.0000 
     10 CA         25.3430   31.1620  -27.0370 C.3      12 GLL5        0.0000 
     11 CA         21.1830   30.8730  -26.0000 C.3       8 GLP5        0.0000 
     12 CA         25.6850   28.1850  -27.9490 C.3       4 GLC5        0.0000 
     13 CA         27.0320   29.7150  -28.2150 C.3      12 GLL5        0.0000 
     14 CA         24.3380   26.6550  -27.6830 C.3       8 GLP5        0.0000 
     15 N          24.7995   34.4650  -27.8660 N.am      2 SEC2        0.0000 
     16 N          25.4870   33.5170  -27.2740 N.am     10 SEL2        0.0000 
     17 N          24.1120   35.4130  -28.4580 N.am      6 SEP2        0.0000 
     18 N          25.0580   34.1265  -25.9220 N.am      2 SEC2        0.0000 
     19 N          24.6290   34.7360  -24.5700 N.am      6 SEP2        0.0000 
     20 CA         29.8850   27.4150  -26.3385 C.3       4 GLC5        0.0000 
     21 CA         30.1780   28.3650  -28.1610 C.3      12 GLL5        0.0000 
     22 CA         29.5920   26.4650  -24.5160 C.3       8 GLP5        0.0000 
     23 O          31.9010   31.1040  -29.1865 O.2       1 ALC1        0.0000 
     24 O          31.7350   30.2350  -28.1550 O.2       9 ALL1        0.0000 
     25 O          32.0670   31.9730  -30.2180 O.2       5 ALP1        0.0000 
     26 O          33.7620   29.5180  -29.9275 O.2       1 ALC1        0.0000 
     27 O          33.7010   28.6770  -28.7690 O.2       9 ALL1        0.0000 
     28 O          33.8230   30.3590  -31.0860 O.2       5 ALP1        0.0000 
     29 CA         30.8580   26.8935  -26.0390 C.3       4 GLC5        0.0000 
     30 CA         32.1240   27.3220  -27.5620 C.3      12 GLL5        0.0000 
     31 CA         35.2700   24.9205  -27.0460 C.3       4 GLC5        0.0000 
     32 CA         33.6980   24.1590  -26.7590 C.3      12 GLL5        0.0000 
     33 CA         36.8420   25.6820  -27.3330 C.3       8 GLP5        0.0000 
     34 CA         35.4315   24.6905  -25.8155 C.3       4 GLC5        0.0000 
     35 CA         34.2000   23.3240  -25.7700 C.3      12 GLL5        0.0000 
     36 CA         36.6630   26.0570  -25.8610 C.3       8 GLP5        0.0000 
     37 CA         35.4855   22.9895  -24.0780 C.3       4 GLC5        0.0000 
     38 CA         36.7710   22.6550  -22.3860 C.3       8 GLP5        0.0000 
     39 CA         32.9545   22.4855  -24.5255 C.3       4 GLC5        0.0000 
     40 CA         31.7090   21.6470  -23.2810 C.3       8 GLP5        0.0000 
     41 O          35.5545   21.3305  -25.0905 O.2       1 ALC1        0.0000 
     42 O          34.7300   22.1480  -26.0910 O.2       9 ALL1        0.0000 
     43 O          36.3790   20.5130  -24.0900 O.2       5 ALP1        0.0000 
     44 N          34.3130   22.8660  -23.2730 N.am      2 SEC2        0.0000 
     45 N          34.1740   23.7410  -24.4950 N.am     10 SEL2        0.0000 
     46 N          34.4520   21.9910  -22.0510 N.am      6 SEP2        0.0000 
     47 CA         31.6405   25.6955  -24.3445 C.3       4 GLC5        0.0000 
     48 CA         33.6890   24.9260  -24.1730 C.3      12 GLL5        0.0000 
     49 CA         33.4325   26.6055  -23.3585 C.3       4 GLC5        0.0000 
     50 CA         33.1760   28.2850  -22.5440 C.3       8 GLP5        0.0000 
     51 CA         35.1760   25.4915  -25.0170 C.3       4 GLC5        0.0000 
     52 CA         35.2300   23.7905  -23.2795 C.3       4 GLC5        0.0000 
     53 CA         32.7955   24.1125  -22.7880 C.3       4 GLC5        0.0000 
     54 CA         31.9020   23.2990  -21.4030 C.3       8 GLP5        0.0000 
     55 N          34.1785   26.9085  -24.5170 N.am      2 SEC2        0.0000 
     56 N          33.2090   25.7500  -25.0890 N.am     10 SEL2        0.0000 
     57 N          35.1480   28.0670  -23.9450 N.am      6 SEP2        0.0000 
     58 CA         31.3955   25.9310  -25.4490 C.3       4 GLC5        0.0000 
     59 CA         33.1990   25.3970  -26.3820 C.3      12 GLL5        0.0000 
     60 CA         34.9310   25.7270  -26.1215 C.3       4 GLC5        0.0000 
     61 CA         30.5018   30.3203  -27.1425 C.3       4 GLC5        0.0000 
     62 CA         30.2530   31.9190  -25.7610 C.3       8 GLP5        0.0000 
     63 CA         31.7645   23.8316  -26.1476 C.3       4 GLC5        0.0000 
     64 CA         29.9550   23.0940  -25.9720 C.3       8 GLP5        0.0000 
@<TRIPOS>BOND
@<TRIPOS>SUBSTRUCTURE
     1 ALC1        4 GROUP        1 X    ALC  0     ROOT ALC X 1
     2 SEC2       15 GROUP        1 X    SEC  0     **** SEC X 2
     3 ASC3        1 GROUP        1 X    ASC  0     **** ASC X 3
     4 GLC5        9 GROUP        1 X    GLC  0     **** GLC X 6
     5 ALP1        6 GROUP        1 Y    ALP  0     ROOT ALP Y 8
     6 SEP2       17 GROUP        1 Y    SEP  0     **** SEP Y 9
     7 ASP3        3 GROUP        1 Y    ASP  0     **** ASP Y 10
     8 GLP5       11 GROUP        1 Y    GLP  0     **** GLP Y 13
     9 ALL1        5 GROUP        1 Z    ALL  0     ROOT ALL Z 15
    10 SEL2       16 GROUP        1 Z    SEL  0     **** SEL Z 16
    11 ASL3        2 GROUP        1 Z    ASL  0     **** ASL Z 17
    12 GLL5       10 GROUP        1 Z    GLL  0     **** GLL Z 20
@<TRIPOS>SET

