#    Name: 3eve_SAH_2_ligand
#    Modification time : Tue Mar 25 02:34:31 2014

@<TRIPOS>MOLECULE
3eve_SAH_2_ligand
   46    48     1     0     0
SMALL
NO_CHARGES


@<TRIPOS>ATOM
      1 N          24.2860   30.1430  -26.9520 N.4       1 SAH901      0.0000 
      2 CA         25.3430   31.1620  -27.0370 C.3       1 SAH901      0.0000 
      3 CB         26.1500   30.9600  -28.3210 C.3       1 SAH901      0.0000 
      4 CG         27.0320   29.7150  -28.2150 C.3       1 SAH901      0.0000 
      5 SD         28.1020   29.4800  -29.6810 S.3       1 SAH901      0.0000 
      6 C          24.7140   32.5560  -27.0680 C.2       1 SAH901      0.0000 
      7 O          25.4870   33.5170  -27.2740 O.co2     1 SAH901      0.0000 
      8 OXT        23.4810   32.6300  -26.8780 O.co2     1 SAH901      0.0000 
      9 C5'        29.0470   28.0140  -29.1290 C.3       1 SAH901      0.0000 
     10 C4'        30.1780   28.3650  -28.1610 C.3       1 SAH901      0.0000 
     11 O4'        30.7070   27.1290  -27.6530 O.3       1 SAH901      0.0000 
     12 C3'        31.3230   29.0780  -28.8870 C.3       1 SAH901      0.0000 
     13 O3'        31.7350   30.2350  -28.1550 O.3       1 SAH901      0.0000 
     14 C2'        32.4330   28.0260  -28.8820 C.3       1 SAH901      0.0000 
     15 O2'        33.7010   28.6770  -28.7690 O.3       1 SAH901      0.0000 
     16 C1'        32.1240   27.3220  -27.5620 C.3       1 SAH901      0.0000 
     17 N9         32.7800   25.9970  -27.4910 N.pl3     1 SAH901      0.0000 
     18 C8         33.0030   25.1790  -28.5170 C.2       1 SAH901      0.0000 
     19 N7         33.5620   24.0530  -28.0780 N.2       1 SAH901      0.0000 
     20 C5         33.6980   24.1590  -26.7590 C.ar      1 SAH901      0.0000 
     21 C6         34.2000   23.3240  -25.7700 C.ar      1 SAH901      0.0000 
     22 N6         34.7300   22.1480  -26.0910 N.pl3     1 SAH901      0.0000 
     23 N1         34.1740   23.7410  -24.4950 N.ar      1 SAH901      0.0000 
     24 C2         33.6890   24.9260  -24.1730 C.ar      1 SAH901      0.0000 
     25 N3         33.2090   25.7500  -25.0890 N.ar      1 SAH901      0.0000 
     26 C4         33.1990   25.3970  -26.3820 C.ar      1 SAH901      0.0000 
     27 H          26.0035   31.1001  -26.2016 H         1 SAH901      0.0000 
     28 H          26.7783   31.8317  -28.4906 H         1 SAH901      0.0000 
     29 H          25.4668   30.8456  -29.1597 H         1 SAH901      0.0000 
     30 H          26.4804   28.7964  -28.1928 H         1 SAH901      0.0000 
     31 H          27.7501   29.7617  -27.4208 H         1 SAH901      0.0000 
     32 H          29.3879   27.6053  -30.0601 H         1 SAH901      0.0000 
     33 H          28.2792   27.4056  -28.6923 H         1 SAH901      0.0000 
     34 H          29.8099   28.9802  -27.3883 H         1 SAH901      0.0000 
     35 H          31.0351   29.2633  -29.8749 H         1 SAH901      0.0000 
     36 H          32.3136   27.3828  -29.6599 H         1 SAH901      0.0000 
     37 H          32.3801   27.9456  -26.7693 H         1 SAH901      0.0000 
     38 H          32.7885   25.3752  -29.4533 H         1 SAH901      0.0000 
     39 H          35.0217   21.5734  -25.3263 H         1 SAH901      0.0000 
     40 H          34.7892   21.9441  -27.0682 H         1 SAH901      0.0000 
     41 H          33.6839   25.2254  -23.1541 H         1 SAH901      0.0000 
     42 H          24.3015   29.5254  -27.7383 H         1 SAH901      0.0000 
     43 H          24.3805   29.5772  -26.1329 H         1 SAH901      0.0000 
     44 H          23.3751   30.5545  -26.9205 H         1 SAH901      0.0000 
     45 H          31.8480   30.9506  -28.8443 H         1 SAH901      0.0000 
     46 H          33.7738   29.2455  -29.5884 H         1 SAH901      0.0000 
@<TRIPOS>BOND
     1    2    1 1    
     2   42    1 1    
     3   43    1 1    
     4   44    1 1    
     5    3    2 1    
     6    6    2 1    
     7   27    2 1    
     8    4    3 1    
     9   28    3 1    
    10   29    3 1    
    11    5    4 1    
    12   30    4 1    
    13   31    4 1    
    14    9    5 1    
    15    7    6 ar   
    16    8    6 ar   
    17   10    9 1    
    18   32    9 1    
    19   33    9 1    
    20   11   10 1    
    21   12   10 1    
    22   34   10 1    
    23   16   11 1    
    24   13   12 1    
    25   14   12 1    
    26   35   12 1    
    27   45   13 1    
    28   15   14 1    
    29   16   14 1    
    30   36   14 1    
    31   46   15 1    
    32   17   16 1    
    33   37   16 1    
    34   18   17 1    
    35   26   17 1    
    36   19   18 2    
    37   38   18 1    
    38   20   19 1    
    39   21   20 ar   
    40   26   20 ar   
    41   22   21 1    
    42   23   21 ar   
    43   39   22 1    
    44   40   22 1    
    45   24   23 ar   
    46   25   24 ar   
    47   41   24 1    
    48   26   25 ar   
@<TRIPOS>SUBSTRUCTURE
     1 SAH901      1 GROUP   
@<TRIPOS>SET

