#    Name: 1gqt_ACP_3_INTS_M
#    Modification time : Tue Mar 25 03:36:14 2014

@<TRIPOS>MOLECULE
1gqt_ACP_3_INTS_M
   46     0     9     0     0
SMALL
NO_CHARGES


@<TRIPOS>ATOM
      1 CA          7.4145    3.1605  197.6815 C.3       3 GLC5        0.0000 
      2 CA          6.2810    2.5250  196.0600 C.3       9 GLL5        0.0000 
      3 CA          8.5480    3.7960  199.3030 C.3       6 GLP5        0.0000 
      4 CA          4.0645    3.2930  201.6370 C.3       3 GLC5        0.0000 
      5 CA          4.4980    4.9520  200.2630 C.3       9 GLL5        0.0000 
      6 CA          3.6310    1.6340  203.0110 C.3       6 GLP5        0.0000 
      7 CA          6.5230    4.3740  199.7830 C.3       3 GLC5        0.0000 
      8 CA          5.8040    6.8400  198.7525 C.3       3 GLC5        0.0000 
      9 CA          4.6790    6.4110  200.6100 C.3       9 GLL5        0.0000 
     10 CA          6.9290    7.2690  196.8950 C.3       6 GLP5        0.0000 
     11 CA          6.3685    6.1525  201.7760 C.3       3 GLC5        0.0000 
     12 CA          8.0580    5.8940  202.9420 C.3       6 GLP5        0.0000 
     13 CA          4.9245    6.6770  203.0585 C.3       3 GLC5        0.0000 
     14 CA          3.5690    6.8630  201.5540 C.3       9 GLL5        0.0000 
     15 CA          6.2800    6.4910  204.5630 C.3       6 GLP5        0.0000 
     16 N           3.3965    8.0865  203.6815 N.am      2 SEC2        0.0000 
     17 N           4.0850    7.7630  202.5200 N.am      8 SEL2        0.0000 
     18 N           2.7080    8.4100  204.8430 N.am      5 SEP2        0.0000 
     19 N           2.4205    8.5980  203.1355 N.am      2 SEC2        0.0000 
     20 N           2.1330    8.7860  201.4280 N.am      8 SEL2        0.0000 
     21 CA          5.2385    7.7020  198.2340 C.3       3 GLC5        0.0000 
     22 CA          3.5480    8.1350  199.5730 C.3       9 GLL5        0.0000 
     23 CA          5.2150    8.7925  200.2790 C.3       3 GLC5        0.0000 
     24 CA          6.8820    9.4500  200.9850 C.3       6 GLP5        0.0000 
     25 CA          1.5145   13.1840  196.7325 C.3       3 GLC5        0.0000 
     26 CA          1.0360   11.1190  196.6950 C.3       9 GLL5        0.0000 
     27 CA          1.9930   15.2490  196.7700 C.3       6 GLP5        0.0000 
     28 CA          2.7045   11.9045  196.2415 C.3       3 GLC5        0.0000 
     29 CA          4.3730   12.6900  195.7880 C.3       6 GLP5        0.0000 
     30 O           0.0810   12.7290  195.2995 O.2       1 ALC1        0.0000 
     31 O           0.4450   11.3220  195.5110 O.2       7 ALL1        0.0000 
     32 O          -0.2830   14.1360  195.0880 O.2       4 ALP1        0.0000 
     33 N           0.0995   13.4485  197.5880 N.am      2 SEC2        0.0000 
     34 N           1.0010   12.1240  197.6370 N.am      8 SEL2        0.0000 
     35 N          -0.8020   14.7730  197.5390 N.am      5 SEP2        0.0000 
     36 CA         -0.2165   12.8595  199.1225 C.3       3 GLC5        0.0000 
     37 CA          1.5860   11.9590  198.8720 C.3       9 GLL5        0.0000 
     38 CA         -2.0190   13.7600  199.3730 C.3       6 GLP5        0.0000 
     39 CA          1.7895   13.6040  197.8210 C.3       3 GLC5        0.0000 
     40 CA          3.3425   12.7105  199.2785 C.3       3 GLC5        0.0000 
     41 CA          5.0990   13.4620  199.6850 C.3       6 GLP5        0.0000 
     42 CA          2.9795   12.3245  197.3300 C.3       3 GLC5        0.0000 
     43 CA          5.5030    8.0435  201.0335 C.3       3 GLC5        0.0000 
     44 CA          3.6600   10.1378  196.6625 C.3       3 GLC5        0.0000 
     45 CA          2.2670    9.8030  198.2730 C.3       9 GLL5        0.0000 
     46 CA          5.3420   10.4080  195.6780 C.3       6 GLP5        0.0000 
@<TRIPOS>BOND
@<TRIPOS>SUBSTRUCTURE
     1 ALC1       30 GROUP        1 X    ALC  0     ROOT ALC X 1
     2 SEC2       16 GROUP        1 X    SEC  0     **** SEC X 2
     3 GLC5        1 GROUP        1 X    GLC  0     **** GLC X 6
     4 ALP1       32 GROUP        1 Y    ALP  0     ROOT ALP Y 8
     5 SEP2       18 GROUP        1 Y    SEP  0     **** SEP Y 9
     6 GLP5        3 GROUP        1 Y    GLP  0     **** GLP Y 13
     7 ALL1       31 GROUP        1 Z    ALL  0     ROOT ALL Z 15
     8 SEL2       17 GROUP        1 Z    SEL  0     **** SEL Z 16
     9 GLL5        2 GROUP        1 Z    GLL  0     **** GLL Z 20
@<TRIPOS>SET

