#    Name: 1gqt_ACP_3_ligand
#    Modification time : Tue Mar 25 03:36:14 2014

@<TRIPOS>MOLECULE
1gqt_ACP_3_ligand
   45    47     1     0     0
SMALL
NO_CHARGES


@<TRIPOS>ATOM
      1 PG          6.2200    2.9260  194.5580 P.3       1 ACP1311     0.0000 
      2 O1G         7.5260    3.0400  193.8690 O.co2     1 ACP1311     0.0000 
      3 O2G         5.4590    4.2570  194.4070 O.co2     1 ACP1311     0.0000 
      4 O3G         5.4180    1.7970  193.8800 O.co2     1 ACP1311     0.0000 
      5 PB          5.2740    1.8970  197.0960 P.3       1 ACP1311     0.0000 
      6 O1B         4.0440    1.4290  196.4120 O.co2     1 ACP1311     0.0000 
      7 O2B         5.9240    0.7270  197.8520 O.co2     1 ACP1311     0.0000 
      8 C3B         6.2810    2.5250  196.0600 C.3       1 ACP1311     0.0000 
      9 PA          3.5070    3.8140  198.1060 P.3       1 ACP1311     0.0000 
     10 O1A         3.3160    4.4870  196.8000 O.co2     1 ACP1311     0.0000 
     11 O2A         2.4530    2.7100  198.3450 O.co2     1 ACP1311     0.0000 
     12 O3A         4.9590    3.1230  198.0990 O.3       1 ACP1311     0.0000 
     13 O5'         3.5020    4.9190  199.2690 O.3       1 ACP1311     0.0000 
     14 C5'         4.4980    4.9520  200.2630 C.3       1 ACP1311     0.0000 
     15 C4'         4.6790    6.4110  200.6100 C.3       1 ACP1311     0.0000 
     16 O4'         4.4840    7.0970  199.3890 O.3       1 ACP1311     0.0000 
     17 C3'         3.5690    6.8630  201.5540 C.3       1 ACP1311     0.0000 
     18 O3'         4.0850    7.7630  202.5200 O.3       1 ACP1311     0.0000 
     19 C2'         2.6200    7.6840  200.6840 C.3       1 ACP1311     0.0000 
     20 O2'         2.1330    8.7860  201.4280 O.3       1 ACP1311     0.0000 
     21 C1'         3.5480    8.1350  199.5730 C.3       1 ACP1311     0.0000 
     22 N9          2.8330    8.5620  198.3580 N.pl3     1 ACP1311     0.0000 
     23 C8          2.6080    7.9160  197.1680 C.2       1 ACP1311     0.0000 
     24 N7          1.9030    8.7660  196.3760 N.2       1 ACP1311     0.0000 
     25 C5          1.6890    9.9320  197.0210 C.ar      1 ACP1311     0.0000 
     26 C6          1.0360   11.1190  196.6950 C.ar      1 ACP1311     0.0000 
     27 N6          0.4450   11.3220  195.5110 N.pl3     1 ACP1311     0.0000 
     28 N1          1.0010   12.1240  197.6370 N.ar      1 ACP1311     0.0000 
     29 C2          1.5860   11.9590  198.8720 C.ar      1 ACP1311     0.0000 
     30 N3          2.2220   10.7820  199.1880 N.ar      1 ACP1311     0.0000 
     31 C4          2.2670    9.8030  198.2730 C.ar      1 ACP1311     0.0000 
     32 H           6.7361    3.4858  196.6252 H         1 ACP1311     0.0000 
     33 H           7.2801    1.8620  196.1696 H         1 ACP1311     0.0000 
     34 H           5.4480    4.5672  199.9100 H         1 ACP1311     0.0000 
     35 H           4.2028    4.4238  201.1625 H         1 ACP1311     0.0000 
     36 H           5.6114    6.5768  201.0296 H         1 ACP1311     0.0000 
     37 H           3.0647    6.0493  201.9415 H         1 ACP1311     0.0000 
     38 H           1.8931    7.0482  200.2928 H         1 ACP1311     0.0000 
     39 H           4.0870    9.0257  199.9939 H         1 ACP1311     0.0000 
     40 H           2.8956    7.0363  196.9466 H         1 ACP1311     0.0000 
     41 H           0.0256   12.2198  195.3767 H         1 ACP1311     0.0000 
     42 H           0.4759   10.5576  194.8670 H         1 ACP1311     0.0000 
     43 H           1.5463   12.7264  199.5665 H         1 ACP1311     0.0000 
     44 H           4.3885    7.1841  203.2768 H         1 ACP1311     0.0000 
     45 H           2.5298    9.5912  200.9874 H         1 ACP1311     0.0000 
@<TRIPOS>BOND
     1    2    1 ar   
     2    3    1 ar   
     3    4    1 ar   
     4    8    1 1    
     5    6    5 ar   
     6    7    5 ar   
     7    8    5 1    
     8   12    5 1    
     9   32    8 1    
    10   33    8 1    
    11   10    9 ar   
    12   11    9 ar   
    13   12    9 1    
    14   13    9 1    
    15   14   13 1    
    16   15   14 1    
    17   34   14 1    
    18   35   14 1    
    19   16   15 1    
    20   17   15 1    
    21   36   15 1    
    22   21   16 1    
    23   18   17 1    
    24   19   17 1    
    25   37   17 1    
    26   44   18 1    
    27   20   19 1    
    28   21   19 1    
    29   38   19 1    
    30   45   20 1    
    31   22   21 1    
    32   39   21 1    
    33   23   22 1    
    34   31   22 1    
    35   24   23 2    
    36   40   23 1    
    37   25   24 1    
    38   26   25 ar   
    39   31   25 ar   
    40   27   26 1    
    41   28   26 ar   
    42   41   27 1    
    43   42   27 1    
    44   29   28 ar   
    45   30   29 ar   
    46   43   29 1    
    47   31   30 ar   
@<TRIPOS>SUBSTRUCTURE
     1 ACP1311     1 GROUP   
@<TRIPOS>SET

