#    Name: 3ldl_ATP_2_INTS_M
#    Modification time : Mon Mar 24 21:32:01 2014

@<TRIPOS>MOLECULE
3ldl_ATP_2_INTS_M
   87     0    12     0     0
SMALL
NO_CHARGES


@<TRIPOS>ATOM
      1 N          -3.2740  -10.8035  -41.2655 N.am      2 SEC2        0.0000 
      2 N          -2.2950  -11.4590  -40.0170 N.am     10 SEL2        0.0000 
      3 N          -4.2530  -10.1480  -42.5140 N.am      6 SEP2        0.0000 
      4 N          -3.5250  -11.9790  -40.4935 N.am      2 SEC2        0.0000 
      5 N          -4.7550  -12.4990  -40.9700 N.am      6 SEP2        0.0000 
      6 N          -2.4665  -12.7945  -39.6805 N.am      2 SEC2        0.0000 
      7 N          -2.6380  -14.1300  -39.3440 N.am      6 SEP2        0.0000 
      8 N          -1.2020   -9.0680  -42.7190 N.am      2 SEC2        0.0000 
      9 N          -1.5820  -10.3280  -42.1010 N.am     10 SEL2        0.0000 
     10 N          -0.8220   -7.8080  -43.3370 N.am      6 SEP2        0.0000 
     11 N          -2.3945   -9.2690  -41.4010 N.am      2 SEC2        0.0000 
     12 N          -3.2070   -8.2100  -40.7010 N.am      6 SEP2        0.0000 
     13 N          -2.9175  -10.2380  -42.3075 N.am      2 SEC2        0.0000 
     14 N           1.0590  -11.9800  -42.1410 N.am      2 SEC2        0.0000 
     15 N          -0.0540  -12.0780  -40.9930 N.am     10 SEL2        0.0000 
     16 N           2.1720  -11.8820  -43.2890 N.am      6 SEP2        0.0000 
     17 N           0.0410  -12.9370  -42.0550 N.am      2 SEC2        0.0000 
     18 N           0.1360  -13.7960  -43.1170 N.am      6 SEP2        0.0000 
     19 Zn          2.0520   -9.8275  -38.6370 Zn        3 ZIC7        0.0000 
     20 Zn          2.1290   -9.2260  -39.5120 Zn       11 ZIL7        0.0000 
     21 Zn          1.9750  -10.4290  -37.7620 Zn        7 ZIP7        0.0000 
     22 N           1.0095   -9.6345  -43.2895 N.am      2 SEC2        0.0000 
     23 N           1.1930   -9.4220  -41.9310 N.am     10 SEL2        0.0000 
     24 N           0.8260   -9.8470  -44.6480 N.am      6 SEP2        0.0000 
     25 N           0.1855   -8.6150  -42.6340 N.am      2 SEC2        0.0000 
     26 N           1.7390   -8.4595  -42.8565 N.am      2 SEC2        0.0000 
     27 N           2.2850   -7.4970  -43.7820 N.am      6 SEP2        0.0000 
     28 N          -1.7620   -9.0415  -40.3405 N.am      2 SEC2        0.0000 
     29 N          -0.3170   -9.8730  -39.9800 N.am     10 SEL2        0.0000 
     30 N          -0.4985   -6.2755  -37.0835 N.am      2 SEC2        0.0000 
     31 N           0.2600   -7.1750  -37.8860 N.am     10 SEL2        0.0000 
     32 N          -1.2570   -5.3760  -36.2810 N.am      6 SEP2        0.0000 
     33 N          -1.2620   -5.7090  -37.8890 N.am      2 SEC2        0.0000 
     34 N          -1.2670   -6.0420  -39.4970 N.am     10 SEL2        0.0000 
     35 CA         -0.6015   -4.9820  -42.1435 C.3       4 GLC5        0.0000 
     36 CA         -1.7100   -5.4090  -40.7020 C.3      12 GLL5        0.0000 
     37 CA          0.5070   -4.5550  -43.5850 C.3       8 GLP5        0.0000 
     38 CA         -1.8800   -3.8055  -43.0260 C.3       4 GLC5        0.0000 
     39 CA         -3.5000   -3.9360  -41.6940 C.3      12 GLL5        0.0000 
     40 CA         -0.2600   -3.6750  -44.3580 C.3       8 GLP5        0.0000 
     41 N          -6.0505   -3.1835  -42.0440 N.am      2 SEC2        0.0000 
     42 N          -4.8490   -4.2200  -42.0610 N.am     10 SEL2        0.0000 
     43 N          -7.2520   -2.1470  -42.0270 N.am      6 SEP2        0.0000 
     44 N          -5.7635   -1.8425  -41.8630 N.am      2 SEC2        0.0000 
     45 N          -4.2750   -1.5380  -41.6990 N.am     10 SEL2        0.0000 
     46 O          -3.7355   -1.4270  -43.2340 O.2       1 ALC1        0.0000 
     47 O          -4.2750   -1.5380  -41.6990 O.2       9 ALL1        0.0000 
     48 O          -3.1960   -1.3160  -44.7690 O.2       5 ALP1        0.0000 
     49 CA         -2.7250   -3.3695  -38.1560 C.3       4 GLC5        0.0000 
     50 CA         -3.7190   -2.7170  -39.7120 C.3      12 GLL5        0.0000 
     51 CA         -1.7310   -4.0220  -36.6000 C.3       8 GLP5        0.0000 
     52 CA         -4.5885   -3.5855  -37.8420 C.3       4 GLC5        0.0000 
     53 CA         -5.4580   -4.4540  -35.9720 C.3       8 GLP5        0.0000 
     54 CA         -2.4425    0.1955  -36.2760 C.3       4 GLC5        0.0000 
     55 CA         -3.4670    0.3670  -37.7560 C.3      12 GLL5        0.0000 
     56 CA         -1.4180    0.0240  -34.7960 C.3       8 GLP5        0.0000 
     57 CA         -5.4340    2.3530  -35.6950 C.3       4 GLC5        0.0000 
     58 CA         -4.2440    1.3190  -36.9370 C.3      12 GLL5        0.0000 
     59 CA         -6.6240    3.3870  -34.4530 C.3       8 GLP5        0.0000 
     60 CA         -3.9220    0.6915  -35.2725 C.3       4 GLC5        0.0000 
     61 CA         -3.6000    0.0640  -33.6080 C.3       8 GLP5        0.0000 
     62 N          -6.3540    1.6120  -35.8375 N.am      2 SEC2        0.0000 
     63 N          -5.5390    1.0690  -36.7640 N.am     10 SEL2        0.0000 
     64 N          -7.1690    2.1550  -34.9110 N.am      6 SEP2        0.0000 
     65 CA         -7.6460    0.3335  -38.7665 C.3       4 GLC5        0.0000 
     66 CA         -6.1580   -0.0070  -37.3050 C.3      12 GLL5        0.0000 
     67 CA         -9.1340    0.6740  -40.2280 C.3       8 GLP5        0.0000 
     68 CA         -5.9620    1.8695  -38.3440 C.3       4 GLC5        0.0000 
     69 CA         -5.7660    3.7460  -39.3830 C.3       8 GLP5        0.0000 
     70 CA         -6.3910    1.6900  -35.8790 C.3       4 GLC5        0.0000 
     71 CA         -4.8790    0.0285  -35.4565 C.3       4 GLC5        0.0000 
     72 CA         -7.4055   -0.6510  -36.3355 C.3       4 GLC5        0.0000 
     73 CA         -8.6530   -1.2950  -35.3660 C.3       8 GLP5        0.0000 
     74 CA         -5.8065   -0.8175  -39.8055 C.3       4 GLC5        0.0000 
     75 CA         -4.2030   -0.7890  -38.3060 C.3      12 GLL5        0.0000 
     76 CA         -7.4100   -0.8460  -41.3050 C.3       8 GLP5        0.0000 
     77 CA         -2.9670   -2.4055  -37.4530 C.3       4 GLC5        0.0000 
     78 CA         -2.6998   -6.8042  -39.4557 C.3       4 GLC5        0.0000 
     79 CA         -3.1010   -4.8000  -40.5050 C.3      12 GLL5        0.0000 
     80 CA         -2.9940   -8.5040  -38.3080 C.3       8 GLP5        0.0000 
     81 CA         -2.0682   -4.5633  -38.6017 C.3       4 GLC5        0.0000 
     82 CA         -3.4224   -6.1691  -41.5434 C.3       4 GLC5        0.0000 
     83 CA         -3.8920   -7.8180  -41.9380 C.3       8 GLP5        0.0000 
     84 CA         -5.4808   -1.7313  -40.8720 C.3       4 GLC5        0.0000 
     85 CA         -3.3840   -2.5160  -41.1660 C.3      12 GLL5        0.0000 
     86 CA         -3.7606    1.4205  -38.8936 C.3       4 GLC5        0.0000 
     87 CA         -3.4920    2.8140  -39.9610 C.3       8 GLP5        0.0000 
@<TRIPOS>BOND
@<TRIPOS>SUBSTRUCTURE
     1 ALC1       46 GROUP        1 X    ALC  0     ROOT ALC X 1
     2 SEC2        1 GROUP        1 X    SEC  0     **** SEC X 2
     3 ZIC7       19 GROUP        1 X    ZIC  0     **** ZIC X 5
     4 GLC5       35 GROUP        1 X    GLC  0     **** GLC X 6
     5 ALP1       48 GROUP        1 Y    ALP  0     ROOT ALP Y 8
     6 SEP2        3 GROUP        1 Y    SEP  0     **** SEP Y 9
     7 ZIP7       21 GROUP        1 Y    ZIP  0     **** ZIP Y 12
     8 GLP5       37 GROUP        1 Y    GLP  0     **** GLP Y 13
     9 ALL1       47 GROUP        1 Z    ALL  0     ROOT ALL Z 15
    10 SEL2        2 GROUP        1 Z    SEL  0     **** SEL Z 16
    11 ZIL7       20 GROUP        1 Z    ZIL  0     **** ZIL Z 19
    12 GLL5       36 GROUP        1 Z    GLL  0     **** GLL Z 20
@<TRIPOS>SET

