#    Name: 3ldl_ATP_2_ligand
#    Modification time : Mon Mar 24 21:32:01 2014

@<TRIPOS>MOLECULE
3ldl_ATP_2_ligand
   43    45     1     0     0
SMALL
NO_CHARGES


@<TRIPOS>ATOM
      1 PG         -1.1150  -11.0040  -40.8370 P.3       1 ATP501      0.0000 
      2 O1G        -2.2950  -11.4590  -40.0170 O.co2     1 ATP501      0.0000 
      3 O2G        -1.5820  -10.3280  -42.1010 O.co2     1 ATP501      0.0000 
      4 O3G        -0.0540  -12.0780  -40.9930 O.co2     1 ATP501      0.0000 
      5 PB          0.9850   -9.0630  -40.4860 P.3       1 ATP501      0.0000 
      6 O1B         2.1290   -9.2260  -39.5120 O.co2     1 ATP501      0.0000 
      7 O2B         1.1930   -9.4220  -41.9310 O.co2     1 ATP501      0.0000 
      8 O3B        -0.3170   -9.8730  -39.9800 O.3       1 ATP501      0.0000 
      9 PA          0.2480   -6.4950  -39.2340 P.3       1 ATP501      0.0000 
     10 O1A         1.1320   -5.2990  -39.5010 O.co2     1 ATP501      0.0000 
     11 O2A         0.2600   -7.1750  -37.8860 O.co2     1 ATP501      0.0000 
     12 O3A         0.4740   -7.5260  -40.4600 O.3       1 ATP501      0.0000 
     13 O5'        -1.2670   -6.0420  -39.4970 O.3       1 ATP501      0.0000 
     14 C5'        -1.7100   -5.4090  -40.7020 C.3       1 ATP501      0.0000 
     15 C4'        -3.1010   -4.8000  -40.5050 C.3       1 ATP501      0.0000 
     16 O4'        -3.0710   -3.9450  -39.3520 O.3       1 ATP501      0.0000 
     17 C3'        -3.5000   -3.9360  -41.6940 C.3       1 ATP501      0.0000 
     18 O3'        -4.8490   -4.2200  -42.0610 O.3       1 ATP501      0.0000 
     19 C2'        -3.3840   -2.5160  -41.1660 C.3       1 ATP501      0.0000 
     20 O2'        -4.2750   -1.5380  -41.6990 O.3       1 ATP501      0.0000 
     21 C1'        -3.7190   -2.7170  -39.7120 C.3       1 ATP501      0.0000 
     22 N9         -3.3230   -1.4910  -38.9890 N.pl3     1 ATP501      0.0000 
     23 C8         -2.1200   -0.8730  -38.9440 C.2       1 ATP501      0.0000 
     24 N7         -2.1830    0.2590  -38.1850 N.2       1 ATP501      0.0000 
     25 C5         -3.4670    0.3670  -37.7560 C.ar      1 ATP501      0.0000 
     26 C6         -4.2440    1.3190  -36.9370 C.ar      1 ATP501      0.0000 
     27 N6         -3.6840    2.4300  -36.3830 N.pl3     1 ATP501      0.0000 
     28 N1         -5.5390    1.0690  -36.7640 N.ar      1 ATP501      0.0000 
     29 C2         -6.1580   -0.0070  -37.3050 C.ar      1 ATP501      0.0000 
     30 N3         -5.5400   -0.9420  -38.0560 N.ar      1 ATP501      0.0000 
     31 C4         -4.2030   -0.7890  -38.3060 C.ar      1 ATP501      0.0000 
     32 H          -1.7733   -6.1218  -41.5349 H         1 ATP501      0.0000 
     33 H          -1.0327   -4.6006  -41.0081 H         1 ATP501      0.0000 
     34 H          -3.8140   -5.5822  -40.3873 H         1 ATP501      0.0000 
     35 H          -2.8042   -4.0762  -42.4660 H         1 ATP501      0.0000 
     36 H          -2.3522   -2.2248  -41.2031 H         1 ATP501      0.0000 
     37 H          -4.8050   -2.8340  -39.6734 H         1 ATP501      0.0000 
     38 H          -1.3110   -1.1900  -39.3928 H         1 ATP501      0.0000 
     39 H          -4.2880    2.9921  -35.8181 H         1 ATP501      0.0000 
     40 H          -2.7181    2.5858  -36.5900 H         1 ATP501      0.0000 
     41 H          -7.2072   -0.1215  -37.1236 H         1 ATP501      0.0000 
     42 H          -4.9577   -5.2021  -41.9069 H         1 ATP501      0.0000 
     43 H          -3.9852   -1.4139  -42.6480 H         1 ATP501      0.0000 
@<TRIPOS>BOND
     1    2    1 ar   
     2    3    1 ar   
     3    4    1 ar   
     4    8    1 1    
     5    6    5 ar   
     6    7    5 ar   
     7    8    5 1    
     8   12    5 1    
     9   10    9 ar   
    10   11    9 ar   
    11   12    9 1    
    12   13    9 1    
    13   14   13 1    
    14   15   14 1    
    15   32   14 1    
    16   33   14 1    
    17   16   15 1    
    18   17   15 1    
    19   34   15 1    
    20   21   16 1    
    21   18   17 1    
    22   19   17 1    
    23   35   17 1    
    24   42   18 1    
    25   20   19 1    
    26   21   19 1    
    27   36   19 1    
    28   43   20 1    
    29   22   21 1    
    30   37   21 1    
    31   23   22 1    
    32   31   22 1    
    33   24   23 2    
    34   38   23 1    
    35   25   24 1    
    36   26   25 ar   
    37   31   25 ar   
    38   27   26 1    
    39   28   26 ar   
    40   39   27 1    
    41   40   27 1    
    42   29   28 ar   
    43   30   29 ar   
    44   41   29 1    
    45   31   30 ar   
@<TRIPOS>SUBSTRUCTURE
     1 ATP501      1 GROUP   
@<TRIPOS>SET

