#    Name: 2xx8_1NE_1_INTS_M
#    Modification time : Tue Mar 25 07:03:19 2014

@<TRIPOS>MOLECULE
2xx8_1NE_1_INTS_M
   74     0     3     0     0
SMALL
NO_CHARGES


@<TRIPOS>ATOM
      1 CA         60.2515   20.1215   43.9360 C.3       1 GLC5        0.0000 
      2 CA         61.8100   20.5750   42.7860 C.3       3 GLL5        0.0000 
      3 CA         58.6930   19.6680   45.0860 C.3       2 GLP5        0.0000 
      4 CA         59.6845   20.8600   42.2720 C.3       1 GLC5        0.0000 
      5 CA         57.5590   21.1450   41.7580 C.3       2 GLP5        0.0000 
      6 CA         61.4610   18.6130   43.5255 C.3       1 GLC5        0.0000 
      7 CA         61.1120   16.6510   44.2650 C.3       2 GLP5        0.0000 
      8 CA         62.9530   21.3880   39.6310 C.3       1 GLC5        0.0000 
      9 CA         61.4680   21.8560   40.7320 C.3       3 GLL5        0.0000 
     10 CA         64.4380   20.9200   38.5300 C.3       2 GLP5        0.0000 
     11 CA         59.5135   21.5005   41.2450 C.3       1 GLC5        0.0000 
     12 CA         60.3225   23.3040   39.9035 C.3       1 GLC5        0.0000 
     13 CA         59.1770   24.7520   39.0750 C.3       2 GLP5        0.0000 
     14 CA         64.7000   24.2175   42.5485 C.3       1 GLC5        0.0000 
     15 CA         62.9700   25.3860   42.9750 C.3       3 GLL5        0.0000 
     16 CA         66.4300   23.0490   42.1220 C.3       2 GLP5        0.0000 
     17 CA         63.1300   27.3135   41.1640 C.3       1 GLC5        0.0000 
     18 CA         62.4180   26.6450   43.0670 C.3       3 GLL5        0.0000 
     19 CA         63.8420   27.9820   39.2610 C.3       2 GLP5        0.0000 
     20 CA         58.2565   25.9580   43.2850 C.3       1 GLC5        0.0000 
     21 CA         60.1350   25.6650   42.9690 C.3       3 GLL5        0.0000 
     22 CA         56.3780   26.2510   43.6010 C.3       2 GLP5        0.0000 
     23 CA         59.9025   24.2930   44.3360 C.3       1 GLC5        0.0000 
     24 CA         60.6710   24.4050   42.8740 C.3       3 GLL5        0.0000 
     25 CA         59.1340   24.1810   45.7980 C.3       2 GLP5        0.0000 
     26 CA         59.1870   33.6430   44.4415 C.3       1 GLC5        0.0000 
     27 CA         59.9140   31.7990   43.8670 C.3       3 GLL5        0.0000 
     28 CA         58.4600   35.4870   45.0160 C.3       2 GLP5        0.0000 
     29 CA         62.6740   32.6940   43.9905 C.3       1 GLC5        0.0000 
     30 CA         60.9150   32.3680   42.8500 C.3       3 GLL5        0.0000 
     31 CA         64.4330   33.0200   45.1310 C.3       2 GLP5        0.0000 
     32 CA         61.4725   34.1810   43.5205 C.3       1 GLC5        0.0000 
     33 CA         62.0300   35.9940   44.1910 C.3       2 GLP5        0.0000 
     34 CA         59.9035   31.6730   39.9070 C.3       1 GLC5        0.0000 
     35 CA         61.0980   31.5750   41.5440 C.3       3 GLL5        0.0000 
     36 CA         58.7090   31.7710   38.2700 C.3       2 GLP5        0.0000 
     37 CA         63.5545   30.8610   41.8280 C.3       1 GLC5        0.0000 
     38 CA         61.5060   30.1350   41.8440 C.3       3 GLL5        0.0000 
     39 CA         65.6030   31.5870   41.8120 C.3       2 GLP5        0.0000 
     40 CA         62.6740   29.0585   40.5525 C.3       1 GLC5        0.0000 
     41 CA         61.7680   28.5690   44.6355 C.3       1 GLC5        0.0000 
     42 CA         60.7280   29.4060   43.0310 C.3       3 GLL5        0.0000 
     43 CA         62.8080   27.7320   46.2400 C.3       2 GLP5        0.0000 
     44 CA         58.6740   29.5290   42.4930 C.3       1 GLC5        0.0000 
     45 CA         56.6200   29.6520   41.9550 C.3       2 GLP5        0.0000 
     46 CA         56.5780   30.5580   44.2010 C.3       1 GLC5        0.0000 
     47 CA         57.8170   30.8790   45.8720 C.3       3 GLL5        0.0000 
     48 CA         55.3390   30.2370   42.5300 C.3       2 GLP5        0.0000 
     49 CA         56.0685   28.5065   47.0435 C.3       1 GLC5        0.0000 
     50 CA         57.1530   29.0440   45.6390 C.3       3 GLL5        0.0000 
     51 CA         54.9840   27.9690   48.4480 C.3       2 GLP5        0.0000 
     52 CA         56.7655   27.6475   44.6200 C.3       1 GLC5        0.0000 
     53 CA         59.7375   29.5890   48.5650 C.3       1 GLC5        0.0000 
     54 CA         58.7710   29.3040   47.0480 C.3       3 GLL5        0.0000 
     55 CA         60.7040   29.8740   50.0820 C.3       2 GLP5        0.0000 
     56 CA         60.6050   28.6415   47.3445 C.3       1 GLC5        0.0000 
     57 CA         62.4390   27.9790   47.6410 C.3       2 GLP5        0.0000 
     58 CA         57.2085   29.0835   48.2855 C.3       1 GLC5        0.0000 
     59 CA         55.6460   28.8630   49.5230 C.3       2 GLP5        0.0000 
     60 CA         61.3650   24.9655   44.5865 C.3       1 GLC5        0.0000 
     61 CA         60.2060   25.0960   46.2500 C.3       2 GLP5        0.0000 
     62 CA         64.7345   26.2577   43.3390 C.3       1 GLC5        0.0000 
     63 CA         66.7750   26.5000   43.6570 C.3       2 GLP5        0.0000 
     64 CA         62.3302   27.0524   44.6425 C.3       1 GLC5        0.0000 
     65 CA         61.0110   26.7300   43.0690 C.3       3 GLL5        0.0000 
     66 CA         60.5654   25.6361   44.6343 C.3       1 GLC5        0.0000 
     67 CA         59.1685   24.7055   41.3963 C.3       1 GLC5        0.0000 
     68 CA         57.9340   24.3760   39.8710 C.3       2 GLP5        0.0000 
     69 CA         58.2488   30.3405   42.9273 C.3       1 GLC5        0.0000 
     70 CA         59.8410   30.2590   43.9320 C.3       3 GLL5        0.0000 
     71 CA         57.1687   29.5063   43.8585 C.3       1 GLC5        0.0000 
     72 CA         58.2820   29.6770   45.8850 C.3       3 GLL5        0.0000 
     73 CA         57.9376   31.0530   47.8291 C.3       1 GLC5        0.0000 
     74 CA         57.4650   32.3150   49.1950 C.3       2 GLP5        0.0000 
@<TRIPOS>BOND
@<TRIPOS>SUBSTRUCTURE
     1 GLC5        1 GROUP        1 X    GLC  0     ROOT GLC X 6
     2 GLP5        3 GROUP        1 Y    GLP  0     ROOT GLP Y 13
     3 GLL5        2 GROUP        1 Z    GLL  0     ROOT GLL Z 20
@<TRIPOS>SET

