#    Name: 2xx8_1NE_1_ligand
#    Modification time : Tue Mar 25 07:03:19 2014

@<TRIPOS>MOLECULE
2xx8_1NE_1_ligand
   42    44     1     0     0
SMALL
NO_CHARGES


@<TRIPOS>ATOM
      1 C1         61.8100   20.5750   42.7860 C.3       1 1NE310      0.0000 
      2 N2         62.1080   21.7990   42.0280 N.am      1 1NE310      0.0000 
      3 C3         61.4680   21.8560   40.7320 C.3       1 1NE310      0.0000 
      4 C4         62.4570   22.8510   42.7770 C.2       1 1NE310      0.0000 
      5 O5         63.2590   22.7420   43.6930 O.2       1 1NE310      0.0000 
      6 C6         62.0780   24.2840   42.8710 C.ar      1 1NE310      0.0000 
      7 C7         62.9700   25.3860   42.9750 C.ar      1 1NE310      0.0000 
      8 C8         62.4180   26.6450   43.0670 C.ar      1 1NE310      0.0000 
      9 C9         61.0110   26.7300   43.0690 C.ar      1 1NE310      0.0000 
     10 C10        60.1350   25.6650   42.9690 C.ar      1 1NE310      0.0000 
     11 C11        60.6710   24.4050   42.8740 C.ar      1 1NE310      0.0000 
     12 N12        60.3990   28.0150   43.1980 N.pl3     1 1NE310      0.0000 
     13 N13        59.5240   28.1490   44.3530 N.2       1 1NE310      0.0000 
     14 C14        59.2160   29.4150   44.7270 C.2       1 1NE310      0.0000 
     15 C15        59.8410   30.2590   43.9320 C.2       1 1NE310      0.0000 
     16 C16        59.9140   31.7990   43.8670 C.3       1 1NE310      0.0000 
     17 C17        60.9150   32.3680   42.8500 C.3       1 1NE310      0.0000 
     18 C18        61.0980   31.5750   41.5440 C.3       1 1NE310      0.0000 
     19 C19        61.5060   30.1350   41.8440 C.3       1 1NE310      0.0000 
     20 C20        60.7280   29.4060   43.0310 C.2       1 1NE310      0.0000 
     21 C21        58.2820   29.6770   45.8850 C.3       1 1NE310      0.0000 
     22 F22        57.8170   30.8790   45.8720 F         1 1NE310      0.0000 
     23 F23        57.1530   29.0440   45.6390 F         1 1NE310      0.0000 
     24 F24        58.7710   29.3040   47.0480 F         1 1NE310      0.0000 
     25 H          63.9659   25.2305   42.9795 H         1 1NE310      0.0000 
     26 H          62.9816   27.4770   43.1307 H         1 1NE310      0.0000 
     27 H          59.1294   25.8149   42.9663 H         1 1NE310      0.0000 
     28 H          60.0916   23.5766   42.8073 H         1 1NE310      0.0000 
     29 H          60.1711   32.1815   44.8725 H         1 1NE310      0.0000 
     30 H          58.9061   32.1891   43.6316 H         1 1NE310      0.0000 
     31 H          61.9064   32.4650   43.3451 H         1 1NE310      0.0000 
     32 H          60.6069   33.4053   42.5921 H         1 1NE310      0.0000 
     33 H          61.8683   32.0528   40.9449 H         1 1NE310      0.0000 
     34 H          60.1614   31.5793   40.9933 H         1 1NE310      0.0000 
     35 H          62.5847   30.0961   42.0911 H         1 1NE310      0.0000 
     36 H          61.3724   29.5124   40.9381 H         1 1NE310      0.0000 
     37 H          62.1055   19.7542   42.2971 H         1 1NE310      0.0000 
     38 H          62.2683   20.5677   43.6748 H         1 1NE310      0.0000 
     39 H          60.8304   20.4755   42.9606 H         1 1NE310      0.0000 
     40 H          61.6882   22.7017   40.2459 H         1 1NE310      0.0000 
     41 H          61.7510   21.0980   40.1444 H         1 1NE310      0.0000 
     42 H          60.4718   21.8122   40.8075 H         1 1NE310      0.0000 
@<TRIPOS>BOND
     1    2    1 1    
     2   37    1 1    
     3   38    1 1    
     4   39    1 1    
     5    3    2 1    
     6    4    2 am   
     7   40    3 1    
     8   41    3 1    
     9   42    3 1    
    10    5    4 2    
    11    6    4 1    
    12    7    6 ar   
    13   11    6 ar   
    14    8    7 ar   
    15   25    7 1    
    16    9    8 ar   
    17   26    8 1    
    18   10    9 ar   
    19   12    9 1    
    20   11   10 ar   
    21   27   10 1    
    22   28   11 1    
    23   13   12 1    
    24   20   12 1    
    25   14   13 2    
    26   15   14 1    
    27   21   14 1    
    28   16   15 1    
    29   20   15 2    
    30   17   16 1    
    31   29   16 1    
    32   30   16 1    
    33   18   17 1    
    34   31   17 1    
    35   32   17 1    
    36   19   18 1    
    37   33   18 1    
    38   34   18 1    
    39   20   19 1    
    40   35   19 1    
    41   36   19 1    
    42   22   21 1    
    43   23   21 1    
    44   24   21 1    
@<TRIPOS>SUBSTRUCTURE
     1 1NE310      1 GROUP   
@<TRIPOS>SET

