#    Name: 2z4o_065_1_INTS_M
#    Modification time : Mon Apr  7 18:34:45 2014

@<TRIPOS>MOLECULE
2z4o_065_1_INTS_M
   97     0     9     0     0
SMALL
NO_CHARGES


@<TRIPOS>ATOM
      1 CA         19.1415   28.2795   16.2510 C.3       3 GLC5        0.0000 
      2 CA         20.8150   27.5840   14.9490 C.3       9 GLL5        0.0000 
      3 CA         17.4680   28.9750   17.5530 C.3       6 GLP5        0.0000 
      4 CA         21.0430   29.4205   14.0270 C.3       3 GLC5        0.0000 
      5 CA         21.2710   31.2570   13.1050 C.3       6 GLP5        0.0000 
      6 CA         21.4760   26.7495   13.0175 C.3       3 GLC5        0.0000 
      7 CA         22.1370   25.9150   11.0860 C.3       6 GLP5        0.0000 
      8 N          20.8920   30.0025   14.9950 N.am      2 SEC2        0.0000 
      9 N          21.7420   28.5790   14.7800 N.am      8 SEL2        0.0000 
     10 N          20.0420   31.4260   15.2100 N.am      5 SEP2        0.0000 
     11 CA         22.3175   29.7665   16.5590 C.3       3 GLC5        0.0000 
     12 CA         22.9230   28.1220   15.3260 C.3       9 GLL5        0.0000 
     13 CA         21.7120   31.4110   17.7920 C.3       6 GLP5        0.0000 
     14 CA         22.0970   29.6895   14.2155 C.3       3 GLC5        0.0000 
     15 CA         23.8720   27.6485   13.6865 C.3       3 GLC5        0.0000 
     16 CA         24.8210   27.1750   12.0470 C.3       6 GLP5        0.0000 
     17 CA         22.8910   26.1385   13.9415 C.3       3 GLC5        0.0000 
     18 CA         21.4380   26.5200   15.5880 C.3       9 GLL5        0.0000 
     19 CA         24.3440   25.7570   12.2950 C.3       6 GLP5        0.0000 
     20 CA         19.7515   29.6710   14.2310 C.3       3 GLC5        0.0000 
     21 CA         19.4590   27.5160   14.6390 C.3       9 GLL5        0.0000 
     22 CA         20.0440   31.8260   13.8230 C.3       6 GLP5        0.0000 
     23 CA         16.9500   21.5410   21.2825 C.3       3 GLC5        0.0000 
     24 CA         18.3370   22.3480   19.8610 C.3       9 GLL5        0.0000 
     25 CA         15.5630   20.7340   22.7040 C.3       6 GLP5        0.0000 
     26 CA         18.8485   25.5780   22.2365 C.3       3 GLC5        0.0000 
     27 CA         19.4830   24.2590   20.9660 C.3       9 GLL5        0.0000 
     28 CA         18.2140   26.8970   23.5070 C.3       6 GLP5        0.0000 
     29 CA         19.9830   23.9325   22.6700 C.3       3 GLC5        0.0000 
     30 CA         20.4830   23.6060   24.3740 C.3       6 GLP5        0.0000 
     31 CA         18.2765   23.5465   22.5540 C.3       3 GLC5        0.0000 
     32 CA         17.0700   22.8340   24.1420 C.3       6 GLP5        0.0000 
     33 CA         17.0145   26.9220   17.5435 C.3       3 GLC5        0.0000 
     34 CA         16.5610   24.8690   17.5340 C.3       9 GLL5        0.0000 
     35 N          13.8080   26.0430   18.3860 N.am      2 SEC2        0.0000 
     36 N          14.2420   24.7490   18.3230 N.am      8 SEL2        0.0000 
     37 N          13.3740   27.3370   18.4490 N.am      5 SEP2        0.0000 
     38 O          13.8000   25.3015   19.5090 O.2       1 ALC1        0.0000 
     39 O          14.2420   24.7490   18.3230 O.2       7 ALL1        0.0000 
     40 O          13.3580   25.8540   20.6950 O.2       4 ALP1        0.0000 
     41 O          14.5010   24.5255   19.8835 O.2       1 ALC1        0.0000 
     42 O          14.7600   24.3020   21.4440 O.2       4 ALP1        0.0000 
     43 O          12.6770   22.4485   17.8345 O.2       1 ALC1        0.0000 
     44 O          14.2160   21.9200   17.8200 O.2       7 ALL1        0.0000 
     45 O          11.1380   22.9770   17.8490 O.2       4 ALP1        0.0000 
     46 CA         12.4650   20.2405   21.0785 C.3       3 GLC5        0.0000 
     47 CA         13.0000   18.3800   20.4560 C.3       9 GLL5        0.0000 
     48 CA         11.9300   22.1010   21.7010 C.3       6 GLP5        0.0000 
     49 CA         13.7835   17.6835   22.1635 C.3       3 GLC5        0.0000 
     50 CA         14.5670   16.9870   23.8710 C.3       6 GLP5        0.0000 
     51 CA         13.9490   16.5760   20.8320 C.3       3 GLC5        0.0000 
     52 CA         14.8980   14.7720   21.2080 C.3       6 GLP5        0.0000 
     53 CA         14.2815   19.5570   21.5800 C.3       3 GLC5        0.0000 
     54 N          10.3565   18.7060   21.3745 N.am      2 SEC2        0.0000 
     55 N          11.5790   18.5010   20.2590 N.am      8 SEL2        0.0000 
     56 N           9.1340   18.9110   22.4900 N.am      5 SEP2        0.0000 
     57 CA         11.1375   20.0750   19.7335 C.3       3 GLC5        0.0000 
     58 CA         11.2920   18.0120   18.9550 C.3       9 GLL5        0.0000 
     59 CA         10.9830   22.1380   20.5120 C.3       6 GLP5        0.0000 
     60 CA          9.3570   18.4170   19.4170 C.3       3 GLC5        0.0000 
     61 CA          7.4220   18.8220   19.8790 C.3       6 GLP5        0.0000 
     62 N           9.7710   19.7040   19.3055 N.am      2 SEC2        0.0000 
     63 N          10.4050   18.8880   18.2630 N.am      8 SEL2        0.0000 
     64 N           9.1370   20.5200   20.3480 N.am      5 SEP2        0.0000 
     65 CA         11.0735   20.8785   18.9155 C.3       3 GLC5        0.0000 
     66 CA         11.1640   19.6190   17.3190 C.3       9 GLL5        0.0000 
     67 CA         13.0525   15.8700   18.7380 C.3       3 GLC5        0.0000 
     68 CA         12.5990   17.9370   18.1860 C.3       9 GLL5        0.0000 
     69 CA         13.5060   13.8030   19.2900 C.3       6 GLP5        0.0000 
     70 CA         11.4025   23.2525   14.7825 C.3       3 GLC5        0.0000 
     71 CA         12.6910   21.7030   14.7750 C.3       9 GLL5        0.0000 
     72 CA         10.1140   24.8020   14.7900 C.3       6 GLP5        0.0000 
     73 CA         19.2555   27.3155   12.8905 C.3       3 GLC5        0.0000 
     74 CA         18.7270   26.3840   14.9700 C.3       9 GLL5        0.0000 
     75 CA         19.0790   27.6640   10.8990 C.3       6 GLP5        0.0000 
     76 CA         19.2960   24.7584   13.7279 C.3       3 GLC5        0.0000 
     77 CA         19.2220   23.6470   12.0970 C.3       6 GLP5        0.0000 
     78 CA         17.9751   27.7767   15.6018 C.3       3 GLC5        0.0000 
     79 CA         19.3320   25.3180   15.5980 C.3       9 GLL5        0.0000 
     80 CA         16.7060   28.8700   16.2420 C.3       6 GLP5        0.0000 
     81 CA         15.2832   18.1818   20.2675 C.3       3 GLC5        0.0000 
     82 CA         13.5830   18.6990   19.0760 C.3       9 GLL5        0.0000 
     83 CA         17.2750   17.8240   20.7690 C.3       6 GLP5        0.0000 
     84 CA         11.8350   21.1635   12.6720 C.3       3 GLC5        0.0000 
     85 CA         11.1560   21.1810   10.9490 C.3       6 GLP5        0.0000 
     86 CA         14.6113   19.5080   11.8347 C.3       3 GLC5        0.0000 
     87 CA         13.3090   19.8420   13.3610 C.3       9 GLL5        0.0000 
     88 CA         15.2490   18.9790   10.2320 C.3       6 GLP5        0.0000 
     89 CA         12.5648   20.6090   12.1933 C.3       3 GLC5        0.0000 
     90 CA         14.6380   20.2320   13.5140 C.3       9 GLL5        0.0000 
     91 CA         16.7080   20.3453   13.3092 C.3       3 GLC5        0.0000 
     92 CA         18.6030   19.9130   12.7150 C.3       6 GLP5        0.0000 
     93 CA         14.8776   23.5480   13.6638 C.3       3 GLC5        0.0000 
     94 CA         14.9880   21.3230   14.2930 C.3       9 GLL5        0.0000 
     95 CA         15.1580   25.1000   12.4890 C.3       6 GLP5        0.0000 
     96 CA         15.5204   19.2765   14.4951 C.3       3 GLC5        0.0000 
     97 CA         16.5600   17.8730   15.1250 C.3       6 GLP5        0.0000 
@<TRIPOS>BOND
@<TRIPOS>SUBSTRUCTURE
     1 ALC1       38 GROUP        1 X    ALC  0     ROOT ALC X 1
     2 SEC2        8 GROUP        1 X    SEC  0     **** SEC X 2
     3 GLC5        1 GROUP        1 X    GLC  0     **** GLC X 6
     4 ALP1       40 GROUP        1 Y    ALP  0     ROOT ALP Y 8
     5 SEP2       10 GROUP        1 Y    SEP  0     **** SEP Y 9
     6 GLP5        3 GROUP        1 Y    GLP  0     **** GLP Y 13
     7 ALL1       39 GROUP        1 Z    ALL  0     ROOT ALL Z 15
     8 SEL2        9 GROUP        1 Z    SEL  0     **** SEL Z 16
     9 GLL5        2 GROUP        1 Z    GLL  0     **** GLL Z 20
@<TRIPOS>SET

