#    Name: 2z4o_065_1_ligand
#    Modification time : Mon Apr  7 18:34:45 2014

@<TRIPOS>MOLECULE
2z4o_065_1_ligand
   76    80     1     0     0
SMALL
NO_CHARGES


@<TRIPOS>ATOM
      1 C2         20.8150   27.5840   14.9490 C.ar      1 065404      0.0000 
      2 O39        21.7420   28.5790   14.7800 O.3       1 065404      0.0000 
      3 C40        22.9230   28.1220   15.3260 C.3       1 065404      0.0000 
      4 O41        22.7600   26.8340   15.7700 O.3       1 065404      0.0000 
      5 C3         21.4380   26.5200   15.5880 C.ar      1 065404      0.0000 
      6 C4         20.6940   25.3930   15.8970 C.ar      1 065404      0.0000 
      7 C5         19.3320   25.3180   15.5980 C.ar      1 065404      0.0000 
      8 C6         18.7270   26.3840   14.9700 C.ar      1 065404      0.0000 
      9 C7         19.4590   27.5160   14.6390 C.ar      1 065404      0.0000 
     10 S8         18.4410   23.8760   16.0410 S.o2      1 065404      0.0000 
     11 O9         17.3270   23.6190   15.0930 O.2       1 065404      0.0000 
     12 O10        19.4260   22.7510   16.1670 O.2       1 065404      0.0000 
     13 N11        17.8000   24.0950   17.5370 N.pl3     1 065404      0.0000 
     14 C12        18.7450   24.4820   18.5680 C.3       1 065404      0.0000 
     15 C13        18.4200   23.8630   19.9310 C.3       1 065404      0.0000 
     16 C14        18.3370   22.3480   19.8610 C.3       1 065404      0.0000 
     17 C15        19.4830   24.2590   20.9660 C.3       1 065404      0.0000 
     18 C16        16.5610   24.8690   17.5340 C.3       1 065404      0.0000 
     19 C17        15.4150   23.9930   18.0420 C.3       1 065404      0.0000 
     20 O18        14.2420   24.7490   18.3230 O.3       1 065404      0.0000 
     21 C19        15.1050   22.8310   17.0990 C.3       1 065404      0.0000 
     22 N20        14.2160   21.9200   17.8200 N.am      1 065404      0.0000 
     23 C21        14.4610   20.6740   18.1870 C.2       1 065404      0.0000 
     24 O22        15.5120   20.0920   17.9210 O.2       1 065404      0.0000 
     25 O23        13.4370   20.0990   18.8730 O.3       1 065404      0.0000 
     26 C24        13.5830   18.6990   19.0760 C.3       1 065404      0.0000 
     27 C25        13.0000   18.3800   20.4560 C.3       1 065404      0.0000 
     28 O26        11.5790   18.5010   20.2590 O.3       1 065404      0.0000 
     29 C27        11.2920   18.0120   18.9550 C.3       1 065404      0.0000 
     30 O28        10.4050   18.8880   18.2630 O.3       1 065404      0.0000 
     31 C29        11.1640   19.6190   17.3190 C.3       1 065404      0.0000 
     32 C30        12.2510   18.6250   16.8700 C.3       1 065404      0.0000 
     33 C31        12.5990   17.9370   18.1860 C.3       1 065404      0.0000 
     34 C32        14.3990   23.2650   15.8210 C.3       1 065404      0.0000 
     35 C33        12.6910   21.7030   14.7750 C.ar      1 065404      0.0000 
     36 C34        12.3370   20.5890   14.0150 C.ar      1 065404      0.0000 
     37 C35        13.3090   19.8420   13.3610 C.ar      1 065404      0.0000 
     38 C36        14.6380   20.2320   13.5140 C.ar      1 065404      0.0000 
     39 C37        14.9880   21.3230   14.2930 C.ar      1 065404      0.0000 
     40 C38        14.0140   22.0730   14.9470 C.ar      1 065404      0.0000 
     41 H          23.2514   28.7899   16.1612 H         1 065404      0.0000 
     42 H          23.7492   28.1797   14.5738 H         1 065404      0.0000 
     43 H          21.1534   24.5861   16.3598 H         1 065404      0.0000 
     44 H          17.7186   26.3454   14.7410 H         1 065404      0.0000 
     45 H          19.0017   28.3057   14.1647 H         1 065404      0.0000 
     46 H          18.7649   25.5801   18.6934 H         1 065404      0.0000 
     47 H          19.7723   24.1773   18.2965 H         1 065404      0.0000 
     48 H          17.4663   24.2491   20.2704 H         1 065404      0.0000 
     49 H          16.3130   25.2072   16.5277 H         1 065404      0.0000 
     50 H          16.6413   25.7393   18.1858 H         1 065404      0.0000 
     51 H          15.7799   23.5252   18.9936 H         1 065404      0.0000 
     52 H          16.0160   22.3273   16.8519 H         1 065404      0.0000 
     53 H          13.2573   22.3674   18.0572 H         1 065404      0.0000 
     54 H          14.5155   18.3126   18.9957 H         1 065404      0.0000 
     55 H          13.3730   19.1000   21.1539 H         1 065404      0.0000 
     56 H          13.2869   17.3839   20.7208 H         1 065404      0.0000 
     57 H          10.8902   17.0115   18.9991 H         1 065404      0.0000 
     58 H          11.6570   20.4701   17.7491 H         1 065404      0.0000 
     59 H          10.5958   19.8960   16.4513 H         1 065404      0.0000 
     60 H          13.0831   19.1539   16.5065 H         1 065404      0.0000 
     61 H          11.8378   17.9318   16.1969 H         1 065404      0.0000 
     62 H          12.8620   16.9542   18.0579 H         1 065404      0.0000 
     63 H          15.0583   23.9276   15.2519 H         1 065404      0.0000 
     64 H          13.4953   23.8249   16.0805 H         1 065404      0.0000 
     65 H          11.9401   22.2669   15.2217 H         1 065404      0.0000 
     66 H          11.3441   20.3187   13.9389 H         1 065404      0.0000 
     67 H          13.0622   19.0418   12.7926 H         1 065404      0.0000 
     68 H          15.3816   19.6896   13.0310 H         1 065404      0.0000 
     69 H          15.9833   21.5858   14.3918 H         1 065404      0.0000 
     70 H          19.1994   21.9424   19.5580 H         1 065404      0.0000 
     71 H          18.1209   21.9464   20.7509 H         1 065404      0.0000 
     72 H          17.6298   22.0439   19.2227 H         1 065404      0.0000 
     73 H          20.3953   23.9487   20.6987 H         1 065404      0.0000 
     74 H          19.5339   25.2505   21.0854 H         1 065404      0.0000 
     75 H          19.2911   23.8650   21.8649 H         1 065404      0.0000 
     76 H          14.1811   24.7707   19.3209 H         1 065404      0.0000 
@<TRIPOS>BOND
     1    2    1 1    
     2    5    1 ar   
     3    9    1 ar   
     4    3    2 1    
     5    4    3 1    
     6   41    3 1    
     7   42    3 1    
     8    5    4 1    
     9    6    5 ar   
    10    7    6 ar   
    11   43    6 1    
    12    8    7 ar   
    13   10    7 1    
    14    9    8 ar   
    15   44    8 1    
    16   45    9 1    
    17   11   10 2    
    18   12   10 2    
    19   13   10 1    
    20   14   13 1    
    21   18   13 1    
    22   15   14 1    
    23   46   14 1    
    24   47   14 1    
    25   16   15 1    
    26   17   15 1    
    27   48   15 1    
    28   70   16 1    
    29   71   16 1    
    30   72   16 1    
    31   73   17 1    
    32   74   17 1    
    33   75   17 1    
    34   19   18 1    
    35   49   18 1    
    36   50   18 1    
    37   20   19 1    
    38   21   19 1    
    39   51   19 1    
    40   76   20 1    
    41   22   21 1    
    42   34   21 1    
    43   52   21 1    
    44   23   22 am   
    45   53   22 1    
    46   24   23 2    
    47   25   23 1    
    48   26   25 1    
    49   27   26 1    
    50   33   26 1    
    51   54   26 1    
    52   28   27 1    
    53   55   27 1    
    54   56   27 1    
    55   29   28 1    
    56   30   29 1    
    57   33   29 1    
    58   57   29 1    
    59   31   30 1    
    60   32   31 1    
    61   58   31 1    
    62   59   31 1    
    63   33   32 1    
    64   60   32 1    
    65   61   32 1    
    66   62   33 1    
    67   40   34 1    
    68   63   34 1    
    69   64   34 1    
    70   36   35 ar   
    71   40   35 ar   
    72   65   35 1    
    73   37   36 ar   
    74   66   36 1    
    75   38   37 ar   
    76   67   37 1    
    77   39   38 ar   
    78   68   38 1    
    79   40   39 ar   
    80   69   39 1    
@<TRIPOS>SUBSTRUCTURE
     1 065404      1 GROUP   
@<TRIPOS>SET

