#    Name: 2h55_DZ8_1_INTS_M
#    Modification time : Tue Mar 25 15:32:06 2014

@<TRIPOS>MOLECULE
2h55_DZ8_1_INTS_M
   61     0     6     0     0
SMALL
NO_CHARGES


@<TRIPOS>ATOM
      1 CA         -0.2515    4.2210   28.5560 C.3       2 GLC5        0.0000 
      2 CA          0.6040    5.5400   27.0940 C.3       6 GLL5        0.0000 
      3 CA         -1.1070    2.9020   30.0180 C.3       4 GLP5        0.0000 
      4 CA          0.7165    3.7280   29.1915 C.3       2 GLC5        0.0000 
      5 CA          2.5400    4.5540   28.3650 C.3       6 GLL5        0.0000 
      6 CA          4.9300    8.4215   26.4540 C.3       2 GLC5        0.0000 
      7 CA          3.6810    8.0250   25.1510 C.3       6 GLL5        0.0000 
      8 CA          6.1790    8.8180   27.7570 C.3       4 GLP5        0.0000 
      9 CA          2.8700   10.9565   26.7305 C.3       2 GLC5        0.0000 
     10 CA          3.2900    9.4140   25.6620 C.3       6 GLL5        0.0000 
     11 CA          2.4500   12.4990   27.7990 C.3       4 GLP5        0.0000 
     12 CA          4.4620   10.3370   26.6685 C.3       2 GLC5        0.0000 
     13 CA          5.6340   11.2600   27.6750 C.3       4 GLP5        0.0000 
     14 CA          1.7050   11.3195   26.6985 C.3       2 GLC5        0.0000 
     15 CA          0.9600   10.1400   25.5980 C.3       6 GLL5        0.0000 
     16 CA         -1.9995    8.1340   29.1025 C.3       2 GLC5        0.0000 
     17 CA         -1.3800    9.3980   28.1590 C.3       6 GLL5        0.0000 
     18 CA         -2.6190    6.8700   30.0460 C.3       4 GLP5        0.0000 
     19 CA         -2.0615   10.2830   29.5085 C.3       2 GLC5        0.0000 
     20 CA         -2.7430   11.1680   30.8580 C.3       4 GLP5        0.0000 
     21 CA         -2.4310    9.3320   25.4885 C.3       2 GLC5        0.0000 
     22 CA         -1.2140   10.8670   24.9240 C.3       6 GLL5        0.0000 
     23 CA         -3.6480    7.7970   26.0530 C.3       4 GLP5        0.0000 
     24 CA         -2.1895   12.5115   25.8315 C.3       2 GLC5        0.0000 
     25 CA         -3.1650   14.1560   26.7390 C.3       4 GLP5        0.0000 
     26 O          -3.5475   11.7780   24.1795 O.2       1 ALC1        0.0000 
     27 O          -2.0150   11.5500   24.1100 O.2       5 ALL1        0.0000 
     28 O          -5.0800   12.0060   24.2490 O.2       3 ALP1        0.0000 
     29 CA          4.7870   15.7650   27.6085 C.3       2 GLC5        0.0000 
     30 CA          5.2410   15.9050   25.7870 C.3       6 GLL5        0.0000 
     31 CA          4.3330   15.6250   29.4300 C.3       4 GLP5        0.0000 
     32 CA          4.8990   16.2445   23.8285 C.3       2 GLC5        0.0000 
     33 CA          4.5570   16.5840   21.8700 C.3       4 GLP5        0.0000 
     34 CA          3.6290   17.0870   25.0535 C.3       2 GLC5        0.0000 
     35 CA          2.0170   18.2690   24.3200 C.3       4 GLP5        0.0000 
     36 CA          6.2615   17.2975   25.8020 C.3       2 GLC5        0.0000 
     37 CA          7.2820   18.6900   25.8170 C.3       4 GLP5        0.0000 
     38 CA          5.6940   11.3830   21.6115 C.3       2 GLC5        0.0000 
     39 CA          6.6610   10.1240   23.1020 C.3       6 GLL5        0.0000 
     40 CA          4.7270   12.6420   20.1210 C.3       4 GLP5        0.0000 
     41 CA          8.0895   11.4015   21.9685 C.3       2 GLC5        0.0000 
     42 CA          9.5180   12.6790   20.8350 C.3       4 GLP5        0.0000 
     43 CA         -2.3908    8.6992   26.8093 C.3       2 GLC5        0.0000 
     44 CA         -0.8870    9.8050   26.9720 C.3       6 GLL5        0.0000 
     45 CA          0.2858   10.6242   28.3882 C.3       2 GLC5        0.0000 
     46 CA          1.7050   11.6470   29.2110 C.3       4 GLP5        0.0000 
     47 CA         -0.4515   10.1345   22.7837 C.3       2 GLC5        0.0000 
     48 CA          0.1540   10.8130   24.6870 C.3       6 GLL5        0.0000 
     49 CA         -0.3730    9.4290   20.7620 C.3       4 GLP5        0.0000 
     50 CA          0.2850   12.2140   26.0737 C.3       2 GLC5        0.0000 
     51 CA          1.1000   13.5880   27.3420 C.3       4 GLP5        0.0000 
     52 CA          4.8130   11.8978   25.8005 C.3       2 GLC5        0.0000 
     53 CA          4.2970   11.9660   23.6690 C.3       6 GLL5        0.0000 
     54 CA          3.2572   13.0660   26.1160 C.3       2 GLC5        0.0000 
     55 CA          3.6870   13.1050   24.1830 C.3       6 GLL5        0.0000 
     56 CA          5.3845   12.6845   26.1898 C.3       2 GLC5        0.0000 
     57 CA          4.4420   14.1610   24.6830 C.3       6 GLL5        0.0000 
     58 CA          5.8468   11.8145   25.8522 C.3       2 GLC5        0.0000 
     59 CA          6.4350   12.8690   24.3330 C.3       6 GLL5        0.0000 
     60 CA          4.7258   12.3566   21.9331 C.3       2 GLC5        0.0000 
     61 CA          5.6840   11.8690   23.7260 C.3       6 GLL5        0.0000 
@<TRIPOS>BOND
@<TRIPOS>SUBSTRUCTURE
     1 ALC1       26 GROUP        1 X    ALC  0     ROOT ALC X 1
     2 GLC5        1 GROUP        1 X    GLC  0     **** GLC X 6
     3 ALP1       28 GROUP        1 Y    ALP  0     ROOT ALP Y 8
     4 GLP5        3 GROUP        1 Y    GLP  0     **** GLP Y 13
     5 ALL1       27 GROUP        1 Z    ALL  0     ROOT ALL Z 15
     6 GLL5        2 GROUP        1 Z    GLL  0     **** GLL Z 20
@<TRIPOS>SET

