#    Name: 2h55_DZ8_1_ligand
#    Modification time : Tue Mar 25 15:32:06 2014

@<TRIPOS>MOLECULE
2h55_DZ8_1_ligand
   50    53     1     0     0
SMALL
NO_CHARGES


@<TRIPOS>ATOM
      1 C96         0.6040    5.5400   27.0940 C.3       1 DZ81001     0.0000 
      2 C94         2.0980    5.2110   27.0560 C.3       1 DZ81001     0.0000 
      3 C95         2.5400    4.5540   28.3650 C.3       1 DZ81001     0.0000 
      4 N94         2.8740    6.4410   26.8420 N.4       1 DZ81001     0.0000 
      5 C93         2.6170    6.9800   25.4980 C.3       1 DZ81001     0.0000 
      6 C92         3.6810    8.0250   25.1510 C.3       1 DZ81001     0.0000 
      7 C91         3.2900    9.4140   25.6620 C.3       1 DZ81001     0.0000 
      8 N9          2.0880    9.8740   24.9500 N.pl3     1 DZ81001     0.0000 
      9 C4          0.9600   10.1400   25.5980 C.ar      1 DZ81001     0.0000 
     10 N3          0.4060    9.5950   26.6890 N.ar      1 DZ81001     0.0000 
     11 C2         -0.8870    9.8050   26.9720 C.ar      1 DZ81001     0.0000 
     12 F2         -1.3800    9.3980   28.1590 F         1 DZ81001     0.0000 
     13 N1         -1.6850   10.4450   26.1060 N.ar      1 DZ81001     0.0000 
     14 C6         -1.2140   10.8670   24.9240 C.ar      1 DZ81001     0.0000 
     15 N6         -2.0150   11.5500   24.1100 N.pl3     1 DZ81001     0.0000 
     16 C5          0.1540   10.8130   24.6870 C.ar      1 DZ81001     0.0000 
     17 N7          0.9130   11.0860   23.6280 N.2       1 DZ81001     0.0000 
     18 C8          2.1540   10.6860   23.8980 C.2       1 DZ81001     0.0000 
     19 C81         3.3890   10.9170   23.0220 C.3       1 DZ81001     0.0000 
     20 C1'         4.2970   11.9660   23.6690 C.ar      1 DZ81001     0.0000 
     21 C6'         3.6870   13.1050   24.1830 C.ar      1 DZ81001     0.0000 
     22 C5'         4.4420   14.1610   24.6830 C.ar      1 DZ81001     0.0000 
     23 O3'         4.0900   15.4120   25.0860 O.3       1 DZ81001     0.0000 
     24 C7'         5.2410   15.9050   25.7870 C.3       1 DZ81001     0.0000 
     25 O1'         6.3490   15.2330   25.1700 O.3       1 DZ81001     0.0000 
     26 C4'         5.8280   14.0570   24.7260 C.ar      1 DZ81001     0.0000 
     27 C3'         6.4350   12.8690   24.3330 C.ar      1 DZ81001     0.0000 
     28 C2'         5.6840   11.8690   23.7260 C.ar      1 DZ81001     0.0000 
     29 I           6.6610   10.1240   23.1020 I         1 DZ81001     0.0000 
     30 H           2.2753    4.5171   26.2502 H         1 DZ81001     0.0000 
     31 H           1.6384    7.4578   25.4529 H         1 DZ81001     0.0000 
     32 H           2.6555    6.1887   24.7495 H         1 DZ81001     0.0000 
     33 H           3.8053    8.0635   24.0680 H         1 DZ81001     0.0000 
     34 H           4.6307    7.7320   25.6006 H         1 DZ81001     0.0000 
     35 H           4.1249   10.0914   25.4902 H         1 DZ81001     0.0000 
     36 H           3.1040    9.3469   26.7326 H         1 DZ81001     0.0000 
     37 H          -2.9319   11.7462   24.4576 H         1 DZ81001     0.0000 
     38 H          -1.6278   11.8055   23.2241 H         1 DZ81001     0.0000 
     39 H           3.0753   11.2670   22.0453 H         1 DZ81001     0.0000 
     40 H           3.9338    9.9858   22.9178 H         1 DZ81001     0.0000 
     41 H           2.6531   13.1685   24.1939 H         1 DZ81001     0.0000 
     42 H           5.1823   15.6581   26.8408 H         1 DZ81001     0.0000 
     43 H           5.3306   16.9787   25.6686 H         1 DZ81001     0.0000 
     44 H           7.4424   12.7302   24.4920 H         1 DZ81001     0.0000 
     45 H           0.3813    6.1702   27.8378 H         1 DZ81001     0.0000 
     46 H           0.2964    5.9687   26.2445 H         1 DZ81001     0.0000 
     47 H           0.0465    4.7206   27.2273 H         1 DZ81001     0.0000 
     48 H           3.5146    4.3302   28.3576 H         1 DZ81001     0.0000 
     49 H           2.3822    5.1507   29.1518 H         1 DZ81001     0.0000 
     50 H           2.0451    3.7026   28.5389 H         1 DZ81001     0.0000 
@<TRIPOS>BOND
     1    2    1 1    
     2   45    1 1    
     3   46    1 1    
     4   47    1 1    
     5    3    2 1    
     6    4    2 1    
     7   30    2 1    
     8   48    3 1    
     9   49    3 1    
    10   50    3 1    
    11    5    4 1    
    12    6    5 1    
    13   31    5 1    
    14   32    5 1    
    15    7    6 1    
    16   33    6 1    
    17   34    6 1    
    18    8    7 1    
    19   35    7 1    
    20   36    7 1    
    21    9    8 1    
    22   18    8 1    
    23   10    9 ar   
    24   16    9 ar   
    25   11   10 ar   
    26   12   11 1    
    27   13   11 ar   
    28   14   13 ar   
    29   15   14 1    
    30   16   14 ar   
    31   37   15 1    
    32   38   15 1    
    33   17   16 1    
    34   18   17 2    
    35   19   18 1    
    36   20   19 1    
    37   39   19 1    
    38   40   19 1    
    39   21   20 ar   
    40   28   20 ar   
    41   22   21 ar   
    42   41   21 1    
    43   23   22 1    
    44   26   22 ar   
    45   24   23 1    
    46   25   24 1    
    47   42   24 1    
    48   43   24 1    
    49   26   25 1    
    50   27   26 ar   
    51   28   27 ar   
    52   44   27 1    
    53   29   28 1    
@<TRIPOS>SUBSTRUCTURE
     1 DZ81001     1 GROUP   
@<TRIPOS>SET

