#    Name: 3ogx_H1S_1_INTS_M
#    Modification time : Tue Mar 25 04:36:26 2014

@<TRIPOS>MOLECULE
3ogx_H1S_1_INTS_M
   50     0     9     0     0
SMALL
NO_CHARGES


@<TRIPOS>ATOM
      1 CA        -17.2780  -18.8295  -20.3010 C.3       3 GLC5        0.0000 
      2 CA        -17.4570  -20.6270  -21.6150 C.3       9 GLL5        0.0000 
      3 CA        -17.0990  -17.0320  -18.9870 C.3       6 GLP5        0.0000 
      4 CA        -17.7520  -22.7890  -21.6960 C.3       3 GLC5        0.0000 
      5 CA        -18.0470  -24.9510  -21.7770 C.3       6 GLP5        0.0000 
      6 CA        -14.1515  -18.5535  -23.6890 C.3       3 GLC5        0.0000 
      7 CA        -15.9740  -19.4750  -24.3940 C.3       9 GLL5        0.0000 
      8 CA        -12.3290  -17.6320  -22.9840 C.3       6 GLP5        0.0000 
      9 N         -22.0960  -17.8490  -22.9835 N.am      1 SEC2        0.0000 
     10 N         -20.8040  -18.0850  -24.1210 N.am      7 SEL2        0.0000 
     11 N         -23.3880  -17.6130  -21.8460 N.am      4 SEP2        0.0000 
     12 N         -20.2505  -20.0415  -19.1370 N.am      1 SEC2        0.0000 
     13 N         -20.4730  -20.0110  -20.5090 N.am      7 SEL2        0.0000 
     14 N         -20.0280  -20.0720  -17.7650 N.am      4 SEP2        0.0000 
     15 CA        -14.2755  -22.1920  -25.6585 C.3       3 GLC5        0.0000 
     16 CA        -13.6940  -20.1360  -25.0140 C.3       9 GLL5        0.0000 
     17 CA        -14.8570  -24.2480  -26.3030 C.3       6 GLP5        0.0000 
     18 NZ        -22.7220  -16.7750  -23.1185 N.4       2 LYC4        0.0000 
     19 NZ        -22.0560  -15.9370  -24.3910 N.4       8 LYL4        0.0000 
     20 NZ        -23.3880  -17.6130  -21.8460 N.4       5 LYP4        0.0000 
     21 N         -22.7220  -16.7750  -23.1185 N.am      1 SEC2        0.0000 
     22 N         -22.0560  -15.9370  -24.3910 N.am      7 SEL2        0.0000 
     23 N         -13.1310  -17.4710  -26.9905 N.am      1 SEC2        0.0000 
     24 N         -14.0100  -17.2740  -25.7380 N.am      7 SEL2        0.0000 
     25 N         -12.2520  -17.6680  -28.2430 N.am      4 SEP2        0.0000 
     26 N         -18.3130  -22.2200  -16.6415 N.am      1 SEC2        0.0000 
     27 N         -17.1750  -21.7200  -17.4140 N.am      7 SEL2        0.0000 
     28 N         -19.4510  -22.7200  -15.8690 N.am      4 SEP2        0.0000 
     29 N         -18.6015  -20.8960  -17.5895 N.am      1 SEC2        0.0000 
     30 N         -14.6030  -23.1175  -19.6295 N.am      1 SEC2        0.0000 
     31 N         -16.0820  -22.5800  -19.5020 N.am      7 SEL2        0.0000 
     32 N         -13.1240  -23.6550  -19.7570 N.am      4 SEP2        0.0000 
     33 NZ        -17.7020  -22.0020  -28.1635 N.4       2 LYC4        0.0000 
     34 NZ        -15.9940  -21.0940  -28.0190 N.4       8 LYL4        0.0000 
     35 NZ        -19.4100  -22.9100  -28.3080 N.4       5 LYP4        0.0000 
     36 N         -15.8465  -22.0960  -27.1780 N.am      1 SEC2        0.0000 
     37 N         -15.9940  -21.0940  -28.0190 N.am      7 SEL2        0.0000 
     38 N         -15.6990  -23.0980  -26.3370 N.am      4 SEP2        0.0000 
     39 NZ        -18.7755  -21.3970  -28.2125 N.4       2 LYC4        0.0000 
     40 NZ        -18.1410  -19.8840  -28.1170 N.4       8 LYL4        0.0000 
     41 N         -12.5000  -20.2095  -22.9940 N.am      1 SEC2        0.0000 
     42 N         -12.3930  -21.6170  -23.6590 N.am      7 SEL2        0.0000 
     43 N         -12.6070  -18.8020  -22.3290 N.am      4 SEP2        0.0000 
     44 CA        -19.1908  -22.8890  -22.0317 C.3       3 GLC5        0.0000 
     45 CA        -18.5960  -21.4990  -21.0630 C.3       9 GLL5        0.0000 
     46 CA        -19.0740  -24.5080  -22.8230 C.3       6 GLP5        0.0000 
     47 CA        -13.3280  -19.3117  -27.9708 C.3       3 GLC5        0.0000 
     48 CA        -13.9510  -19.6610  -26.2340 C.3       9 GLL5        0.0000 
     49 CA        -12.3110  -19.6100  -29.6660 C.3       6 GLP5        0.0000 
     50 CA        -13.1743  -18.6034  -24.3144 C.3       3 GLC5        0.0000 
@<TRIPOS>BOND
@<TRIPOS>SUBSTRUCTURE
     1 SEC2        9 GROUP        1 X    SEC  0     ROOT SEC X 2
     2 LYC4       18 GROUP        1 X    LYC  0     **** LYC X 4
     3 GLC5        1 GROUP        1 X    GLC  0     **** GLC X 6
     4 SEP2       11 GROUP        1 Y    SEP  0     ROOT SEP Y 9
     5 LYP4       20 GROUP        1 Y    LYP  0     **** LYP Y 11
     6 GLP5        3 GROUP        1 Y    GLP  0     **** GLP Y 13
     7 SEL2       10 GROUP        1 Z    SEL  0     ROOT SEL Z 16
     8 LYL4       19 GROUP        1 Z    LYL  0     **** LYL Z 18
     9 GLL5        2 GROUP        1 Z    GLL  0     **** GLL Z 20
@<TRIPOS>SET

