#    Name: 3ogx_H1S_1_ligand
#    Modification time : Tue Mar 25 04:36:27 2014

@<TRIPOS>MOLECULE
3ogx_H1S_1_ligand
   50    51     1     0     0
SMALL
NO_CHARGES


@<TRIPOS>ATOM
      1 C1        -17.7750  -20.0250  -22.9800 C.3       1 H1S173      0.0000 
      2 C2        -19.1990  -19.4920  -23.0300 C.3       1 H1S173      0.0000 
      3 O3        -16.8150  -19.0170  -23.3170 O.3       1 H1S173      0.0000 
      4 C4        -17.4570  -20.6270  -21.6150 C.3       1 H1S173      0.0000 
      5 O5        -20.0680  -20.6030  -22.7900 O.3       1 H1S173      0.0000 
      6 C6        -19.5660  -18.8170  -24.3600 C.3       1 H1S173      0.0000 
      7 C7        -15.9740  -19.4750  -24.3940 C.3       1 H1S173      0.0000 
      8 C8        -18.5960  -21.4990  -21.0630 C.3       1 H1S173      0.0000 
      9 O9        -16.3080  -21.4820  -21.7930 O.3       1 H1S173      0.0000 
     10 C10       -20.0190  -21.0410  -21.4180 C.3       1 H1S173      0.0000 
     11 O11       -20.8040  -18.0850  -24.1210 O.3       1 H1S173      0.0000 
     12 C12       -16.0610  -18.5080  -25.5760 C.3       1 H1S173      0.0000 
     13 O13       -14.6150  -19.6840  -23.9610 O.3       1 H1S173      0.0000 
     14 N14       -18.4660  -21.7140  -19.6280 N.pl3     1 H1S173      0.0000 
     15 O15       -20.4730  -20.0110  -20.5090 O.3       1 H1S173      0.0000 
     16 S16       -21.4060  -17.0490  -25.1460 S.o2      1 H1S173      0.0000 
     17 C17       -14.7390  -18.3660  -26.3170 C.3       1 H1S173      0.0000 
     18 O18       -17.0770  -18.9430  -26.4960 O.3       1 H1S173      0.0000 
     19 C19       -13.6940  -20.1360  -25.0140 C.2       1 H1S173      0.0000 
     20 S20       -17.0310  -21.5910  -18.8920 S.o2      1 H1S173      0.0000 
     21 O21       -22.4170  -17.6950  -26.0570 O.co2     1 H1S173      0.0000 
     22 O22       -22.0560  -15.9370  -24.3910 O.co2     1 H1S173      0.0000 
     23 O23       -20.3090  -16.4150  -25.9420 O.co2     1 H1S173      0.0000 
     24 C24       -13.9510  -19.6610  -26.2340 C.2       1 H1S173      0.0000 
     25 O25       -14.0100  -17.2740  -25.7380 O.3       1 H1S173      0.0000 
     26 S26       -16.7150  -19.8270  -27.7220 S.o2      1 H1S173      0.0000 
     27 C27       -12.5300  -21.0270  -24.7610 C.2       1 H1S173      0.0000 
     28 O28       -16.4900  -20.2310  -19.1290 O.co2     1 H1S173      0.0000 
     29 O29       -17.1750  -21.7200  -17.4140 O.co2     1 H1S173      0.0000 
     30 O30       -16.0820  -22.5800  -19.5020 O.co2     1 H1S173      0.0000 
     31 O31       -16.0710  -18.7640  -28.5440 O.co2     1 H1S173      0.0000 
     32 O32       -15.9940  -21.0940  -28.0190 O.co2     1 H1S173      0.0000 
     33 O33       -18.1410  -19.8840  -28.1170 O.co2     1 H1S173      0.0000 
     34 O34       -12.3930  -21.6170  -23.6590 O.co2     1 H1S173      0.0000 
     35 O35       -11.6640  -21.1930  -25.6510 O.co2     1 H1S173      0.0000 
     36 H         -17.7132  -20.8532  -23.7115 H         1 H1S173      0.0000 
     37 H         -19.3115  -18.7601  -22.2328 H         1 H1S173      0.0000 
     38 H         -17.2420  -19.8482  -20.9230 H         1 H1S173      0.0000 
     39 H         -19.6982  -19.5847  -25.1048 H         1 H1S173      0.0000 
     40 H         -18.7623  -18.1546  -24.6372 H         1 H1S173      0.0000 
     41 H         -16.3833  -20.4430  -24.7666 H         1 H1S173      0.0000 
     42 H         -18.4728  -22.5143  -21.5566 H         1 H1S173      0.0000 
     43 H         -20.6619  -21.9330  -21.3025 H         1 H1S173      0.0000 
     44 H         -16.3258  -17.5220  -25.1784 H         1 H1S173      0.0000 
     45 H         -19.2263  -21.9415  -19.0357 H         1 H1S173      0.0000 
     46 H         -14.9654  -18.1669  -27.3573 H         1 H1S173      0.0000 
     47 H         -13.6774  -20.0711  -27.1022 H         1 H1S173      0.0000 
     48 H         -16.4705  -22.2626  -21.1896 H         1 H1S173      0.0000 
     49 H         -19.6662  -19.4469  -20.3335 H         1 H1S173      0.0000 
     50 H         -13.7909  -17.5728  -24.8092 H         1 H1S173      0.0000 
@<TRIPOS>BOND
     1    2    1 1    
     2    3    1 1    
     3    4    1 1    
     4   36    1 1    
     5    5    2 1    
     6    6    2 1    
     7   37    2 1    
     8    7    3 1    
     9    8    4 1    
    10    9    4 1    
    11   38    4 1    
    12   10    5 1    
    13   11    6 1    
    14   39    6 1    
    15   40    6 1    
    16   12    7 1    
    17   13    7 1    
    18   41    7 1    
    19   10    8 1    
    20   14    8 1    
    21   42    8 1    
    22   48    9 1    
    23   15   10 1    
    24   43   10 1    
    25   16   11 1    
    26   17   12 1    
    27   18   12 1    
    28   44   12 1    
    29   19   13 1    
    30   20   14 1    
    31   45   14 1    
    32   49   15 1    
    33   21   16 ar   
    34   22   16 ar   
    35   23   16 ar   
    36   24   17 1    
    37   25   17 1    
    38   46   17 1    
    39   26   18 1    
    40   24   19 2    
    41   27   19 1    
    42   28   20 ar   
    43   29   20 ar   
    44   30   20 ar   
    45   47   24 1    
    46   50   25 1    
    47   31   26 ar   
    48   32   26 ar   
    49   33   26 ar   
    50   34   27 ar   
    51   35   27 ar   
@<TRIPOS>SUBSTRUCTURE
     1 H1S173      1 GROUP   
@<TRIPOS>SET

