#    Name: 3upi_0C2_2_INTS_M
#    Modification time : Mon Mar 24 23:13:52 2014

@<TRIPOS>MOLECULE
3upi_0C2_2_INTS_M
   67     0     9     0     0
SMALL
NO_CHARGES


@<TRIPOS>ATOM
      1 CA         20.6775   -0.4140    4.7500 C.3       3 GLC5        0.0000 
      2 CA         20.7370    0.5000    3.2480 C.3       9 GLL5        0.0000 
      3 CA         20.6180   -1.3280    6.2520 C.3       6 GLP5        0.0000 
      4 CA         27.1425   -1.1845   -3.7170 C.3       3 GLC5        0.0000 
      5 CA         25.7810   -0.9620   -2.2200 C.3       9 GLL5        0.0000 
      6 CA         28.5040   -1.4070   -5.2140 C.3       6 GLP5        0.0000 
      7 CA         27.1465   -1.4535   -1.1610 C.3       3 GLC5        0.0000 
      8 CA         28.5120   -1.9450   -0.1020 C.3       6 GLP5        0.0000 
      9 CA         26.6800   -1.2110    0.1595 C.3       3 GLC5        0.0000 
     10 CA         24.8480   -0.4770    0.4210 C.3       9 GLL5        0.0000 
     11 CA         26.9005   -3.8460    1.4985 C.3       3 GLC5        0.0000 
     12 CA         25.8600   -4.3050    2.9920 C.3       9 GLL5        0.0000 
     13 CA         27.9410   -3.3870    0.0050 C.3       6 GLP5        0.0000 
     14 CA         24.5920   -5.1210    1.9405 C.3       3 GLC5        0.0000 
     15 CA         23.3240   -5.9370    0.8890 C.3       6 GLP5        0.0000 
     16 CA         28.4670   -4.3155    5.9500 C.3       3 GLC5        0.0000 
     17 CA         26.7230   -4.2200    5.3370 C.3       9 GLL5        0.0000 
     18 CA         30.2110   -4.4110    6.5630 C.3       6 GLP5        0.0000 
     19 CA         25.9495   -3.5350    7.1710 C.3       3 GLC5        0.0000 
     20 CA         25.1760   -2.8500    9.0050 C.3       6 GLP5        0.0000 
     21 CA         21.1220    6.5735    1.3075 C.3       3 GLC5        0.0000 
     22 CA         20.7580    4.5870    1.8570 C.3       9 GLL5        0.0000 
     23 CA         21.4860    8.5600    0.7580 C.3       6 GLP5        0.0000 
     24 CA         23.3115    3.5805    4.9970 C.3       3 GLC5        0.0000 
     25 CA         22.6660    1.8660    4.2320 C.3       9 GLL5        0.0000 
     26 CA         23.9570    5.2950    5.7620 C.3       6 GLP5        0.0000 
     27 CA         24.7030    2.2805    4.0725 C.3       3 GLC5        0.0000 
     28 CA         26.7400    2.6950    3.9130 C.3       6 GLP5        0.0000 
     29 O          26.8575    1.2495   -2.3025 O.2       1 ALC1        0.0000 
     30 O          26.1790    0.1730   -1.5640 O.2       7 ALL1        0.0000 
     31 O          27.5360    2.3260   -3.0410 O.2       4 ALP1        0.0000 
     32 N          26.7160    2.8275    0.6515 N.am      2 SEC2        0.0000 
     33 N          26.1670    1.5320    0.2880 N.am      8 SEL2        0.0000 
     34 N          27.2650    4.1230    1.0150 N.am      5 SEP2        0.0000 
     35 CA         18.2980   -2.2685    2.2575 C.3       3 GLC5        0.0000 
     36 CA         19.0100   -0.7810    2.3360 C.3       9 GLL5        0.0000 
     37 CA         17.5860   -3.7560    2.1790 C.3       6 GLP5        0.0000 
     38 CA         21.7835    4.8140    5.7290 C.3       3 GLC5        0.0000 
     39 CA         20.6280    3.5390    5.2130 C.3       9 GLL5        0.0000 
     40 CA         22.9390    6.0890    6.2450 C.3       6 GLP5        0.0000 
     41 CA         24.6167   -2.1603    7.2065 C.3       3 GLC5        0.0000 
     42 CA         23.7960   -0.8350    5.2930 C.3       9 GLL5        0.0000 
     43 CA         17.9685    1.8810    5.8752 C.3       3 GLC5        0.0000 
     44 CA         18.4340    1.1590    3.5820 C.3       9 GLL5        0.0000 
     45 CA         17.2880    2.0500    7.7970 C.3       6 GLP5        0.0000 
     46 CA         26.4035   -0.8037    2.4225 C.3       3 GLC5        0.0000 
     47 CA         24.4570   -1.0040    2.9090 C.3       9 GLL5        0.0000 
     48 CA         28.3860   -1.0150    2.5120 C.3       6 GLP5        0.0000 
     49 CA         26.6480   -1.7795    3.1692 C.3       3 GLC5        0.0000 
     50 CA         24.9440   -2.2770    3.1870 C.3       9 GLL5        0.0000 
     51 CA         21.3402    0.9328    5.7125 C.3       3 GLC5        0.0000 
     52 CA         20.7500    0.1320    7.3130 C.3       6 GLP5        0.0000 
     53 CA         22.2934   -1.1079    5.4748 C.3       3 GLC5        0.0000 
     54 CA         23.8800   -0.3050    3.9870 C.3       9 GLL5        0.0000 
     55 CA         20.9250    3.2408    6.6297 C.3       3 GLC5        0.0000 
     56 CA         20.2340    2.4720    4.5240 C.3       9 GLL5        0.0000 
     57 CA         21.4190    3.4760    8.3910 C.3       6 GLP5        0.0000 
     58 CA         18.8595    2.5278    6.3327 C.3       3 GLC5        0.0000 
     59 CA         26.3360   -2.5515   -0.4715 C.3       3 GLC5        0.0000 
     60 CA         24.4920   -1.5870   -0.2760 C.3       9 GLL5        0.0000 
     61 CA         25.7320   -5.2675    6.3397 C.3       3 GLC5        0.0000 
     62 CA         25.4830   -4.1600    4.4700 C.3       9 GLL5        0.0000 
     63 CA         25.3610   -6.3450    7.7760 C.3       6 GLP5        0.0000 
     64 CA         19.0697   -0.8825    4.3776 C.3       3 GLC5        0.0000 
     65 CA         19.1800   -1.7360    5.9290 C.3       6 GLP5        0.0000 
     66 CA         20.4193    1.5429    6.0659 C.3       3 GLC5        0.0000 
     67 CA         18.8640    2.2650    4.3250 C.3       9 GLL5        0.0000 
@<TRIPOS>BOND
@<TRIPOS>SUBSTRUCTURE
     1 ALC1       29 GROUP        1 X    ALC  0     ROOT ALC X 1
     2 SEC2       32 GROUP        1 X    SEC  0     **** SEC X 2
     3 GLC5        1 GROUP        1 X    GLC  0     **** GLC X 6
     4 ALP1       31 GROUP        1 Y    ALP  0     ROOT ALP Y 8
     5 SEP2       34 GROUP        1 Y    SEP  0     **** SEP Y 9
     6 GLP5        3 GROUP        1 Y    GLP  0     **** GLP Y 13
     7 ALL1       30 GROUP        1 Z    ALL  0     ROOT ALL Z 15
     8 SEL2       33 GROUP        1 Z    SEL  0     **** SEL Z 16
     9 GLL5        2 GROUP        1 Z    GLL  0     **** GLL Z 20
@<TRIPOS>SET

