#    Name: 3upi_0C2_2_ligand
#    Modification time : Mon Mar 24 23:13:53 2014

@<TRIPOS>MOLECULE
3upi_0C2_2_ligand
   57    61     1     0     0
SMALL
NO_CHARGES


@<TRIPOS>ATOM
      1 C1         24.3190   -2.1060    5.5230 C.ar      1 0C2586      0.0000 
      2 C2         23.7960   -0.8350    5.2930 C.ar      1 0C2586      0.0000 
      3 C3         18.4340    1.1590    3.5820 C.ar      1 0C2586      0.0000 
      4 C4         18.8640    2.2650    4.3250 C.ar      1 0C2586      0.0000 
      5 C5         20.7370    0.5000    3.2480 C.ar      1 0C2586      0.0000 
      6 C6         24.4570   -1.0040    2.9090 C.ar      1 0C2586      0.0000 
      7 C7         24.3850   -0.1810    1.7570 C.2       1 0C2586      0.0000 
      8 C8         24.8760   -2.8110    4.4660 C.ar      1 0C2586      0.0000 
      9 C9         21.1950    1.6010    3.9920 C.ar      1 0C2586      0.0000 
     10 C10        23.8800   -0.3050    3.9870 C.ar      1 0C2586      0.0000 
     11 C11        24.9440   -2.2770    3.1870 C.ar      1 0C2586      0.0000 
     12 C12        19.3840    0.2870    3.0510 C.ar      1 0C2586      0.0000 
     13 C13        20.2340    2.4720    4.5240 C.ar      1 0C2586      0.0000 
     14 C14        23.7340    0.9930    2.1360 C.2       1 0C2586      0.0000 
     15 C15        24.9700   -1.8450   -1.6200 C.2       1 0C2586      0.0000 
     16 C16        24.4920   -1.5870   -0.2760 C.2       1 0C2586      0.0000 
     17 C17        25.7810   -0.9620   -2.2200 C.2       1 0C2586      0.0000 
     18 C18        24.8480   -0.4770    0.4210 C.2       1 0C2586      0.0000 
     19 C19        25.7880    0.5020   -0.2690 C.2       1 0C2586      0.0000 
     20 C20        23.3740    2.1220    1.3060 C.2       1 0C2586      0.0000 
     21 C21        25.8600   -4.3050    2.9920 C.3       1 0C2586      0.0000 
     22 C22        25.4830   -4.1600    4.4700 C.3       1 0C2586      0.0000 
     23 C23        26.7230   -4.2200    5.3370 C.3       1 0C2586      0.0000 
     24 C24        20.7580    4.5870    1.8570 C.3       1 0C2586      0.0000 
     25 C25        22.6660    1.8660    4.2320 C.3       1 0C2586      0.0000 
     26 N1         23.4380    0.8890    3.4830 N.pl3     1 0C2586      0.0000 
     27 N2         26.1790    0.1730   -1.5640 N.am      1 0C2586      0.0000 
     28 N3         23.0020    3.2510    2.0840 N.am      1 0C2586      0.0000 
     29 O1         26.1670    1.5320    0.2880 O.2       1 0C2586      0.0000 
     30 O2         23.1990    2.0570    0.0970 O.2       1 0C2586      0.0000 
     31 O3         23.0300    5.8030    2.2840 O.2       1 0C2586      0.0000 
     32 O4         22.6050    4.7100    0.0260 O.2       1 0C2586      0.0000 
     33 O5         25.5250   -3.1120    2.2620 O.3       1 0C2586      0.0000 
     34 F1         19.0100   -0.7810    2.3360 F         1 0C2586      0.0000 
     35 F2         20.6280    3.5390    5.2130 F         1 0C2586      0.0000 
     36 S1         22.4810    4.7360    1.4720 S.o2      1 0C2586      0.0000 
     37 H          24.2912   -2.5121    6.4616 H         1 0C2586      0.0000 
     38 H          23.3660   -0.2996    6.0360 H         1 0C2586      0.0000 
     39 H          17.4385    0.9953    3.4324 H         1 0C2586      0.0000 
     40 H          18.1825    2.9164    4.7192 H         1 0C2586      0.0000 
     41 H          21.4286   -0.1548    2.8460 H         1 0C2586      0.0000 
     42 H          24.6607   -2.7147   -2.0693 H         1 0C2586      0.0000 
     43 H          23.8553   -2.3006    0.1356 H         1 0C2586      0.0000 
     44 H          26.1186   -1.1284   -3.1931 H         1 0C2586      0.0000 
     45 H          25.3292   -5.1814    2.5960 H         1 0C2586      0.0000 
     46 H          26.9362   -4.5191    2.9410 H         1 0C2586      0.0000 
     47 H          24.7826   -4.8869    4.7137 H         1 0C2586      0.0000 
     48 H          22.8641    1.7865    5.3000 H         1 0C2586      0.0000 
     49 H          22.8947    2.8796    3.9057 H         1 0C2586      0.0000 
     50 H          26.8242    0.8478   -2.0655 H         1 0C2586      0.0000 
     51 H          23.0163    3.2670    3.1076 H         1 0C2586      0.0000 
     52 H          27.1330   -5.1321    5.3361 H         1 0C2586      0.0000 
     53 H          27.4265   -3.5821    5.0236 H         1 0C2586      0.0000 
     54 H          26.5219   -3.9900    6.2892 H         1 0C2586      0.0000 
     55 H          20.5898    4.6566    2.8403 H         1 0C2586      0.0000 
     56 H          20.2156    5.3018    1.4155 H         1 0C2586      0.0000 
     57 H          20.3851    3.7089    1.5573 H         1 0C2586      0.0000 
@<TRIPOS>BOND
     1    2    1 ar   
     2    8    1 ar   
     3   37    1 1    
     4   10    2 ar   
     5   38    2 1    
     6    4    3 ar   
     7   12    3 ar   
     8   39    3 1    
     9   13    4 ar   
    10   40    4 1    
    11    9    5 ar   
    12   12    5 ar   
    13   41    5 1    
    14    7    6 1    
    15   10    6 ar   
    16   11    6 ar   
    17   14    7 2    
    18   18    7 1    
    19   11    8 ar   
    20   22    8 1    
    21   13    9 ar   
    22   25    9 1    
    23   26   10 1    
    24   33   11 1    
    25   34   12 1    
    26   35   13 1    
    27   20   14 1    
    28   26   14 1    
    29   16   15 1    
    30   17   15 2    
    31   42   15 1    
    32   18   16 2    
    33   43   16 1    
    34   27   17 1    
    35   44   17 1    
    36   19   18 1    
    37   27   19 am   
    38   29   19 2    
    39   28   20 am   
    40   30   20 2    
    41   22   21 1    
    42   33   21 1    
    43   45   21 1    
    44   46   21 1    
    45   23   22 1    
    46   47   22 1    
    47   52   23 1    
    48   53   23 1    
    49   54   23 1    
    50   36   24 1    
    51   55   24 1    
    52   56   24 1    
    53   57   24 1    
    54   26   25 1    
    55   48   25 1    
    56   49   25 1    
    57   50   27 1    
    58   36   28 1    
    59   51   28 1    
    60   36   31 2    
    61   36   32 2    
@<TRIPOS>SUBSTRUCTURE
     1 0C2586      1 GROUP   
@<TRIPOS>SET

