#    Name: 1tvo_FRZ_1_INTS_M
#    Modification time : Tue Mar 25 05:42:28 2014

@<TRIPOS>MOLECULE
1tvo_FRZ_1_INTS_M
   52     0     9     0     0
SMALL
NO_CHARGES


@<TRIPOS>ATOM
      1 N          10.1910   -4.7105   18.9435 N.am      2 SEC2        0.0000 
      2 N           9.3480   -4.5910   17.4250 N.am      8 SEL2        0.0000 
      3 N          11.0340   -4.8300   20.4620 N.am      5 SEP2        0.0000 
      4 CA          5.8600   -3.7845   13.7255 C.3       3 GLC5        0.0000 
      5 CA          6.1390   -4.8200   15.4290 C.3       9 GLL5        0.0000 
      6 CA          5.5810   -2.7490   12.0220 C.3       6 GLP5        0.0000 
      7 CA          8.2730   -5.3555   19.7590 C.3       3 GLC5        0.0000 
      8 CA          7.2430   -4.1580   18.5460 C.3       9 GLL5        0.0000 
      9 CA          9.3030   -6.5530   20.9720 C.3       6 GLP5        0.0000 
     10 CA          8.9010   -4.2240   20.4440 C.3       3 GLC5        0.0000 
     11 CA          7.8090   -3.1670   19.4580 C.3       9 GLL5        0.0000 
     12 CA          9.9930   -5.2810   21.4300 C.3       6 GLP5        0.0000 
     13 CA          4.4340   -5.9470   19.2040 C.3       3 GLC5        0.0000 
     14 CA          5.1220   -4.0260   19.9930 C.3       9 GLL5        0.0000 
     15 CA          3.7460   -7.8680   18.4150 C.3       6 GLP5        0.0000 
     16 CA          3.1985   -3.8405   19.3430 C.3       3 GLC5        0.0000 
     17 CA          1.2750   -3.6550   18.6930 C.3       6 GLP5        0.0000 
     18 CA          5.4310   -2.1835   14.5315 C.3       3 GLC5        0.0000 
     19 CA          5.2240   -3.6860   15.6090 C.3       9 GLL5        0.0000 
     20 CA          5.6380   -0.6810   13.4540 C.3       6 GLP5        0.0000 
     21 CA          4.2910   -2.6300   13.9640 C.3       3 GLC5        0.0000 
     22 CA          3.7830   -3.7150   15.4050 C.3       9 GLL5        0.0000 
     23 CA          4.7990   -1.5450   12.5230 C.3       6 GLP5        0.0000 
     24 CA          4.3395   -3.8290   13.4985 C.3       3 GLC5        0.0000 
     25 CA          3.0980   -4.9090   14.9750 C.3       9 GLL5        0.0000 
     26 N           0.2840   -2.5075   14.9045 N.am      2 SEC2        0.0000 
     27 N           1.4710   -3.2920   15.3700 N.am      8 SEL2        0.0000 
     28 N          -0.9030   -1.7230   14.4390 N.am      5 SEP2        0.0000 
     29 O           1.6915   -0.6845   16.6355 O.2       1 ALC1        0.0000 
     30 O           2.9010   -1.4330   16.1170 O.2       7 ALL1        0.0000 
     31 O           0.4820    0.0640   17.1540 O.2       4 ALP1        0.0000 
     32 CA          9.2636   -3.7254   13.7774 C.3       3 GLC5        0.0000 
     33 CA          9.0180   -5.5610   13.8530 C.3       9 GLL5        0.0000 
     34 CA          8.8940   -1.8500   13.5410 C.3       6 GLP5        0.0000 
     35 CA         12.1270   -4.2440   14.1925 C.3       3 GLC5        0.0000 
     36 CA         10.4020   -5.8570   13.4960 C.3       9 GLL5        0.0000 
     37 CA         13.3880   -2.8140   14.0810 C.3       6 GLP5        0.0000 
     38 CA          7.8570   -3.3390   14.6182 C.3       3 GLC5        0.0000 
     39 CA          7.5010   -4.8360   15.9620 C.3       9 GLL5        0.0000 
     40 CA          6.3552   -6.4078   18.6958 C.3       3 GLC5        0.0000 
     41 CA          6.1440   -8.4470   18.6750 C.3       6 GLP5        0.0000 
     42 CA          6.7188   -4.4748   21.3765 C.3       3 GLC5        0.0000 
     43 CA          5.6990   -3.0090   20.8540 C.3       9 GLL5        0.0000 
     44 CA          7.0560   -6.1440   22.0370 C.3       6 GLP5        0.0000 
     45 CA          7.0307   -2.2047   22.4980 C.3       3 GLC5        0.0000 
     46 CA          7.6800   -1.6040   24.2800 C.3       6 GLP5        0.0000 
     47 CA          4.0187   -4.1957   21.6728 C.3       3 GLC5        0.0000 
     48 CA          2.6270   -4.8740   22.9220 C.3       6 GLP5        0.0000 
     49 CA          6.2810   -5.2233   20.7385 C.3       3 GLC5        0.0000 
     50 CA          5.3699   -1.5119   20.1122 C.3       3 GLC5        0.0000 
     51 CA          4.9880    0.3920   19.8700 C.3       6 GLP5        0.0000 
     52 CA          2.3577   -3.9835   16.9415 C.3       3 GLC5        0.0000 
@<TRIPOS>BOND
@<TRIPOS>SUBSTRUCTURE
     1 ALC1       29 GROUP        1 X    ALC  0     ROOT ALC X 1
     2 SEC2        1 GROUP        1 X    SEC  0     **** SEC X 2
     3 GLC5        4 GROUP        1 X    GLC  0     **** GLC X 6
     4 ALP1       31 GROUP        1 Y    ALP  0     ROOT ALP Y 8
     5 SEP2        3 GROUP        1 Y    SEP  0     **** SEP Y 9
     6 GLP5        6 GROUP        1 Y    GLP  0     **** GLP Y 13
     7 ALL1       30 GROUP        1 Z    ALL  0     ROOT ALL Z 15
     8 SEL2        2 GROUP        1 Z    SEL  0     **** SEL Z 16
     9 GLL5        5 GROUP        1 Z    GLL  0     **** GLL Z 20
@<TRIPOS>SET

