#    Name: 1tvo_FRZ_1_ligand
#    Modification time : Tue Mar 25 05:42:28 2014

@<TRIPOS>MOLECULE
1tvo_FRZ_1_ligand
   37    41     1     0     0
SMALL
NO_CHARGES


@<TRIPOS>ATOM
      1 C1         11.5040   -5.7240   14.4460 C.2       1 FRZ1001     0.0000 
      2 C2         11.1560   -5.2580   15.7780 C.2       1 FRZ1001     0.0000 
      3 N3          9.8050   -4.9890   16.0940 N.pl3     1 FRZ1001     0.0000 
      4 C4          8.7110   -5.1280   15.2100 C.2       1 FRZ1001     0.0000 
      5 C5          9.0180   -5.5610   13.8530 C.2       1 FRZ1001     0.0000 
      6 C6         10.4020   -5.8570   13.4960 C.2       1 FRZ1001     0.0000 
      7 N7          9.3480   -4.5910   17.4250 N.2       1 FRZ1001     0.0000 
      8 C8          7.9410   -4.5200   17.3180 C.2       1 FRZ1001     0.0000 
      9 C9          7.5010   -4.8360   15.9620 C.2       1 FRZ1001     0.0000 
     10 C10         6.1390   -4.8200   15.4290 C.ar      1 FRZ1001     0.0000 
     11 C11         7.2430   -4.1580   18.5460 C.ar      1 FRZ1001     0.0000 
     12 C12         7.8090   -3.1670   19.4580 C.ar      1 FRZ1001     0.0000 
     13 C13         7.0640   -2.6020   20.5780 C.ar      1 FRZ1001     0.0000 
     14 C14         5.6990   -3.0090   20.8540 C.ar      1 FRZ1001     0.0000 
     15 C15         5.1220   -4.0260   19.9930 C.ar      1 FRZ1001     0.0000 
     16 C16         5.8900   -4.5790   18.8870 C.ar      1 FRZ1001     0.0000 
     17 C22         5.2240   -3.6860   15.6090 C.ar      1 FRZ1001     0.0000 
     18 C23         3.7830   -3.7150   15.4050 C.ar      1 FRZ1001     0.0000 
     19 C24         3.0980   -4.9090   14.9750 C.ar      1 FRZ1001     0.0000 
     20 N25         3.9300   -6.0350   14.7410 N.ar      1 FRZ1001     0.0000 
     21 N26         5.5090   -6.0060   14.9660 N.ar      1 FRZ1001     0.0000 
     22 C27         2.7430   -2.7440   15.6320 C.2       1 FRZ1001     0.0000 
     23 N28         1.4710   -3.2920   15.3700 N.2       1 FRZ1001     0.0000 
     24 N29         1.7120   -4.6510   14.9570 N.pl3     1 FRZ1001     0.0000 
     25 N30         2.9010   -1.4330   16.1170 N.pl3     1 FRZ1001     0.0000 
     26 H          12.4266   -5.9383   14.1952 H         1 FRZ1001     0.0000 
     27 H          11.8900   -5.1325   16.4628 H         1 FRZ1001     0.0000 
     28 H           8.2903   -5.6546   13.1738 H         1 FRZ1001     0.0000 
     29 H          10.6091   -6.1699   12.5435 H         1 FRZ1001     0.0000 
     30 H           8.7750   -2.8544   19.3031 H         1 FRZ1001     0.0000 
     31 H           7.5120   -1.9117   21.1731 H         1 FRZ1001     0.0000 
     32 H           5.1831   -2.6112   21.5966 H         1 FRZ1001     0.0000 
     33 H           4.1808   -4.3532   20.1615 H         1 FRZ1001     0.0000 
     34 H           5.4495   -5.3152   18.3077 H         1 FRZ1001     0.0000 
     35 H           5.6504   -2.7781   15.9109 H         1 FRZ1001     0.0000 
     36 H           1.0346   -5.2613   14.7150 H         1 FRZ1001     0.0000 
     37 H           1.9870   -1.1545   16.4121 H         1 FRZ1001     0.0000 
@<TRIPOS>BOND
     1    2    1 2    
     2    6    1 1    
     3   26    1 1    
     4    3    2 1    
     5   27    2 1    
     6    4    3 1    
     7    7    3 1    
     8    5    4 1    
     9    9    4 2    
    10    6    5 2    
    11   28    5 1    
    12   29    6 1    
    13    8    7 2    
    14    9    8 1    
    15   11    8 1    
    16   10    9 1    
    17   17   10 ar   
    18   21   10 ar   
    19   12   11 ar   
    20   16   11 ar   
    21   13   12 ar   
    22   30   12 1    
    23   14   13 ar   
    24   31   13 1    
    25   15   14 ar   
    26   32   14 1    
    27   16   15 ar   
    28   33   15 1    
    29   34   16 1    
    30   18   17 ar   
    31   35   17 1    
    32   19   18 ar   
    33   22   18 1    
    34   20   19 ar   
    35   24   19 1    
    36   21   20 ar   
    37   23   22 2    
    38   25   22 1    
    39   24   23 1    
    40   36   24 1    
    41   37   25 1    
@<TRIPOS>SUBSTRUCTURE
     1 FRZ1001     1 GROUP   
@<TRIPOS>SET

