#    Name: 3AKC_2_CAVITY_N1_ALL.mol2
#    Modification time : Tue Mar 11 08:45:02 2014

@<TRIPOS>MOLECULE
3AKC_2_CAVITY_N1_ALL.mol2
   61     0     6     0     0
SMALL
NO_CHARGES


@<TRIPOS>ATOM
      1 CA          3.1960   31.9826   31.5902 C.3       5 GLY6        0.0000 
      2 CA         -2.2646   33.8303   24.3606 C.3       5 GLY6        0.0000 
      3 O          -1.2143   34.1350   23.3339 O.2       2 ALA2        0.0000 
      4 OG         -2.4076   32.4450   23.8033 O.2       1 SER1        0.0000 
      5 O          -1.3573   32.7497   22.7766 O.2       2 ALA2        0.0000 
      6 CA         -3.3260   34.3184   23.4196 C.3       5 GLY6        0.0000 
      7 O          -2.2757   34.6230   22.3930 O.2       2 ALA2        0.0000 
      8 O           2.1347   32.4706   30.6492 O.2       2 ALA2        0.0000 
      9 N           3.1850   32.7753   29.6226 N.2       2 ALA2        0.0000 
     10 N           4.2353   33.0799   28.5959 N.2       2 ALA2        0.0000 
     11 O           3.0421   31.3900   29.0653 O.2       2 ALA2        0.0000 
     12 O           4.0924   31.6947   28.0386 O.2       2 ALA2        0.0000 
     13 N           2.2666   34.6486   29.2389 N.2       2 ALA2        0.0000 
     14 O           1.0734   32.9587   29.7083 O.2       2 ALA2        0.0000 
     15 N           2.1237   33.2634   28.6816 N.2       2 ALA2        0.0000 
     16 O           3.1740   33.5680   27.6549 O.2       2 ALA2        0.0000 
     17 CA         -0.1199   31.2688   30.1777 C.3       5 GLY6        0.0000 
     18 CA          0.9304   31.5734   29.1510 C.3       5 GLY6        0.0000 
     19 O           1.9807   31.8781   28.1243 O.2       2 ALA2        0.0000 
     20 O           3.0310   32.1827   27.0976 O.2       2 ALA2        0.0000 
     21 N           0.2979   36.2173   29.8820 N.2       2 ALA2        0.0000 
     22 CA          0.1550   34.8320   29.3247 C.3       5 GLY6        0.0000 
     23 O           1.2053   35.1367   28.2980 O.2       2 ALA2        0.0000 
     24 CA          0.0120   33.4468   28.7674 C.3       5 GLY6        0.0000 
     25 OD1         1.0623   33.7514   27.7407 O.3       3 ASP3        0.0000 
     26 CA         -1.1812   31.7568   29.2367 C.3       5 GLY6        0.0000 
     27 CA         -0.1309   32.0615   28.2101 C.3       5 GLY6        0.0000 
     28 O           0.9194   32.3661   27.1834 O.2       2 ALA2        0.0000 
     29 CA          1.9697   32.6708   26.1567 C.3       5 GLY6        0.0000 
     30 DU         -0.2739   30.6762   27.6528 H         6 CUB7        0.0000 
     31 O           0.7764   30.9809   26.6261 O.2       2 ALA2        0.0000 
     32 O           1.8267   31.2855   25.5994 O.2       2 ALA2        0.0000 
     33 O           0.6335   29.5956   26.0688 O.2       2 ALA2        0.0000 
     34 O           0.4905   28.2103   25.5115 O.2       2 ALA2        0.0000 
     35 CA         -0.7634   36.7054   28.9410 C.3       5 GLY6        0.0000 
     36 CA          0.2869   37.0100   27.9144 C.3       5 GLY6        0.0000 
     37 CA         -0.9064   35.3201   28.3837 C.3       5 GLY6        0.0000 
     38 O           0.1439   35.6247   27.3571 O.2       2 ALA2        0.0000 
     39 CA         -1.0493   33.9348   27.8264 C.3       5 GLY6        0.0000 
     40 O           0.0010   34.2395   26.7998 O.2       2 ALA2        0.0000 
     41 CA         -2.2426   32.2449   28.2958 C.3       5 GLY6        0.0000 
     42 OG         -1.1923   32.5495   27.2691 O.2       1 SER1        0.0000 
     43 DU         -0.1420   32.8542   26.2425 H         6 CUB7        0.0000 
     44 CA          0.9083   33.1589   25.2158 C.3       5 GLY6        0.0000 
     45 OG         -2.3855   30.8596   27.7385 O.2       1 SER1        0.0000 
     46 OG         -1.3352   31.1643   26.7118 O.2       1 SER1        0.0000 
     47 DU         -0.2849   31.4689   25.6852 H         6 CUB7        0.0000 
     48 CA          0.7654   31.7736   24.6585 C.3       5 GLY6        0.0000 
     49 OG         -1.4781   29.7790   26.1545 O.2       1 SER1        0.0000 
     50 NZ         -0.4279   30.0837   25.1279 N.2       4 LYS4        0.0000 
     51 CA          0.6224   30.3883   24.1012 C.3       5 GLY6        0.0000 
     52 CA         -2.1106   34.4229   26.8855 C.3       5 GLY6        0.0000 
     53 OG         -2.2536   33.0376   26.3282 O.2       1 SER1        0.0000 
     54 CA         -1.2033   33.3423   25.3015 C.3       5 GLY6        0.0000 
     55 N          -0.1530   33.6469   24.2748 N.2       2 ALA2        0.0000 
     56 OG         -1.3462   31.9570   24.7442 O.2       1 SER1        0.0000 
     57 CA         -0.2959   32.2616   23.7175 C.3       5 GLY6        0.0000 
     58 CA          0.7544   32.5663   22.6909 C.3       5 GLY6        0.0000 
     59 OG         -2.5395   30.2671   25.2136 O.2       1 SER1        0.0000 
     60 NZ         -1.4892   30.5717   24.1869 N.2       4 LYS4        0.0000 
     61 NZ         -0.4389   30.8764   23.1602 N.2       4 LYS4        0.0000 
@<TRIPOS>BOND
@<TRIPOS>SUBSTRUCTURE
     1 SER1        4 GROUP   
     2 ALA2        3 GROUP   
     3 ASP3       25 GROUP   
     4 LYS4       50 GROUP   
     5 GLY6        1 GROUP   
     6 CUB7       30 GROUP   
@<TRIPOS>SET

