#    Name: 3akc_ADP_2_INTS_M
#    Modification time : Tue Mar 25 12:01:16 2014

@<TRIPOS>MOLECULE
3akc_ADP_2_INTS_M
   64     0    12     0     0
SMALL
NO_CHARGES


@<TRIPOS>ATOM
      1 NZ         -3.9070   37.6730   20.3685 N.4       3 LYC4        0.0000 
      2 NZ         -3.2060   36.8070   21.3430 N.4      11 LYL4        0.0000 
      3 NZ         -4.6080   38.5390   19.3940 N.4       7 LYP4        0.0000 
      4 N          -2.4080   36.9865   22.5580 N.am      2 SEC2        0.0000 
      5 N          -3.2060   36.8070   21.3430 N.am     10 SEL2        0.0000 
      6 N          -1.6100   37.1660   23.7730 N.am      6 SEP2        0.0000 
      7 N          -3.7975   37.1440   22.7290 N.am      2 SEC2        0.0000 
      8 N          -4.3890   37.4810   24.1150 N.am      6 SEP2        0.0000 
      9 N          -3.9070   37.6730   20.3685 N.am      2 SEC2        0.0000 
     10 N          -4.6080   38.5390   19.3940 N.am      6 SEP2        0.0000 
     11 NZ         -2.6845   33.5645   19.7665 N.4       3 LYC4        0.0000 
     12 NZ         -3.3670   34.6880   20.0210 N.4      11 LYL4        0.0000 
     13 NZ         -1.3780   31.9340   18.4360 N.4       7 LYP4        0.0000 
     14 N          -2.0945   35.3095   19.6395 N.am      2 SEC2        0.0000 
     15 N          -3.3670   34.6880   20.0210 N.am     10 SEL2        0.0000 
     16 N          -0.8220   35.9310   19.2580 N.am      6 SEP2        0.0000 
     17 N          -2.6845   33.5645   19.7665 N.am      2 SEC2        0.0000 
     18 N          -2.0020   32.4410   19.5120 N.am      6 SEP2        0.0000 
     19 NZ         -4.9135   37.0370   20.3965 N.4       3 LYC4        0.0000 
     20 NZ         -5.2190   35.5350   21.3990 N.4      11 LYL4        0.0000 
     21 N          -6.0510   35.6420   22.6330 N.am      2 SEC2        0.0000 
     22 N          -5.2190   35.5350   21.3990 N.am     10 SEL2        0.0000 
     23 N          -6.8830   35.7490   23.8670 N.am      6 SEP2        0.0000 
     24 N          -6.5200   34.8120   21.5995 N.am      2 SEC2        0.0000 
     25 N          -7.8210   34.0890   21.8000 N.am      6 SEP2        0.0000 
     26 N          -5.4615   33.6030   25.2160 N.am      2 SEC2        0.0000 
     27 N          -4.4060   33.3730   24.4170 N.am     10 SEL2        0.0000 
     28 N          -6.5170   33.8330   26.0150 N.am      6 SEP2        0.0000 
     29 N          -4.5275   32.5715   25.4560 N.am      2 SEC2        0.0000 
     30 N          -4.6490   31.7700   26.4950 N.am      6 SEP2        0.0000 
     31 N          -6.2710   33.4560   21.9700 N.am      2 SEC2        0.0000 
     32 N          -4.7210   32.8230   22.1400 N.am     10 SEL2        0.0000 
     33 N          -2.4190   35.9475   23.1690 N.am      2 SEC2        0.0000 
     34 N          -3.2280   34.7290   22.5650 N.am     10 SEL2        0.0000 
     35 CA         -0.7760   34.0270   22.0940 C.3       4 GLC5        0.0000 
     36 CA         -1.4110   32.6810   23.7480 C.3      12 GLL5        0.0000 
     37 CA         -0.1410   35.3730   20.4400 C.3       8 GLP5        0.0000 
     38 CA         -1.8415   34.6375   24.3420 C.3       4 GLC5        0.0000 
     39 CA         -2.2720   36.5940   24.9360 C.3       8 GLP5        0.0000 
     40 CA          1.4140   31.8615   23.4820 C.3       4 GLC5        0.0000 
     41 CA         -0.5860   31.5680   24.0910 C.3      12 GLL5        0.0000 
     42 CA          3.4140   32.1550   22.8730 C.3       8 GLP5        0.0000 
     43 O          -1.3980   28.8610   23.5795 O.2       1 ALC1        0.0000 
     44 O          -0.9290   29.4570   24.6000 O.2       9 ALL1        0.0000 
     45 O          -1.8670   28.2650   22.5590 O.2       5 ALP1        0.0000 
     46 CA          1.8950   32.7655   25.1775 C.3       4 GLC5        0.0000 
     47 CA          0.5890   31.3550   26.0670 C.3      12 GLL5        0.0000 
     48 CA          3.2010   34.1760   24.2880 C.3       8 GLP5        0.0000 
     49 O           2.8435   35.9330   30.2780 O.2       1 ALC1        0.0000 
     50 O           1.7160   36.0860   29.7170 O.2       9 ALL1        0.0000 
     51 O           3.9710   35.7800   30.8390 O.2       5 ALP1        0.0000 
     52 CA         -1.7380   35.8950   26.4155 C.3       4 GLC5        0.0000 
     53 CA         -1.2040   35.1960   27.8950 C.3      12 GLL5        0.0000 
     54 CA         -3.0190   34.0035   27.6595 C.3       4 GLC5        0.0000 
     55 CA         -4.8340   32.8110   27.4240 C.3       8 GLP5        0.0000 
     56 CA         -2.7040   36.3770   28.5075 C.3       4 GLC5        0.0000 
     57 CA         -4.2040   37.5580   29.1200 C.3       8 GLP5        0.0000 
     58 CA         -2.3910   34.7150   29.3025 C.3       4 GLC5        0.0000 
     59 CA         -3.5780   34.2340   30.7100 C.3       8 GLP5        0.0000 
     60 CA          1.7330   33.8410   25.9415 C.3       4 GLC5        0.0000 
     61 CA          0.2650   33.5060   27.5950 C.3      12 GLL5        0.0000 
     62 CA          0.0163   34.5337   30.3483 C.3       4 GLC5        0.0000 
     63 CA          1.1630   34.1560   28.3900 C.3      12 GLL5        0.0000 
     64 CA         -0.9660   34.3130   32.0360 C.3       8 GLP5        0.0000 
@<TRIPOS>BOND
@<TRIPOS>SUBSTRUCTURE
     1 ALC1       43 GROUP        1 X    ALC  0     ROOT ALC X 1
     2 SEC2        4 GROUP        1 X    SEC  0     **** SEC X 2
     3 LYC4        1 GROUP        1 X    LYC  0     **** LYC X 4
     4 GLC5       35 GROUP        1 X    GLC  0     **** GLC X 6
     5 ALP1       45 GROUP        1 Y    ALP  0     ROOT ALP Y 8
     6 SEP2        6 GROUP        1 Y    SEP  0     **** SEP Y 9
     7 LYP4        3 GROUP        1 Y    LYP  0     **** LYP Y 11
     8 GLP5       37 GROUP        1 Y    GLP  0     **** GLP Y 13
     9 ALL1       44 GROUP        1 Z    ALL  0     ROOT ALL Z 15
    10 SEL2        5 GROUP        1 Z    SEL  0     **** SEL Z 16
    11 LYL4        2 GROUP        1 Z    LYL  0     **** LYL Z 18
    12 GLL5       36 GROUP        1 Z    GLL  0     **** GLL Z 20
@<TRIPOS>SET

