#    Name: 3akc_ADP_2_ligand
#    Modification time : Tue Mar 25 12:01:16 2014

@<TRIPOS>MOLECULE
3akc_ADP_2_ligand
   39    41     1     0     0
SMALL
NO_CHARGES


@<TRIPOS>ATOM
      1 PB         -3.8000   35.4550   21.3350 P.3       1 ADP210      0.0000 
      2 O1B        -3.2060   36.8070   21.3430 O.co2     1 ADP210      0.0000 
      3 O2B        -3.3670   34.6880   20.0210 O.co2     1 ADP210      0.0000 
      4 O3B        -5.2190   35.5350   21.3990 O.co2     1 ADP210      0.0000 
      5 PA         -3.7570   33.3090   23.0310 P.3       1 ADP210      0.0000 
      6 O1A        -4.4060   33.3730   24.4170 O.co2     1 ADP210      0.0000 
      7 O2A        -4.7210   32.8230   22.1400 O.co2     1 ADP210      0.0000 
      8 O3A        -3.2280   34.7290   22.5650 O.3       1 ADP210      0.0000 
      9 O5'        -2.6140   32.3630   23.0160 O.3       1 ADP210      0.0000 
     10 C5'        -1.4110   32.6810   23.7480 C.3       1 ADP210      0.0000 
     11 C4'        -0.5860   31.5680   24.0910 C.3       1 ADP210      0.0000 
     12 O4'         0.5910   31.9800   24.8410 O.3       1 ADP210      0.0000 
     13 C3'        -1.3160   30.6920   24.9690 C.3       1 ADP210      0.0000 
     14 O3'        -0.9290   29.4570   24.6000 O.3       1 ADP210      0.0000 
     15 C2'        -0.8270   31.0100   26.3230 C.3       1 ADP210      0.0000 
     16 O2'        -0.9950   30.0230   27.1890 O.3       1 ADP210      0.0000 
     17 C1'         0.5890   31.3550   26.0670 C.3       1 ADP210      0.0000 
     18 N9          0.8750   32.3900   27.2390 N.pl3     1 ADP210      0.0000 
     19 C8          2.0930   32.3630   27.7620 C.2       1 ADP210      0.0000 
     20 N7          2.2650   33.4350   28.4890 N.2       1 ADP210      0.0000 
     21 C5          1.1630   34.1560   28.3900 C.ar      1 ADP210      0.0000 
     22 C6          0.8340   35.3530   28.9310 C.ar      1 ADP210      0.0000 
     23 N6          1.7160   36.0860   29.7170 N.pl3     1 ADP210      0.0000 
     24 N1         -0.3590   35.8810   28.6890 N.ar      1 ADP210      0.0000 
     25 C2         -1.2040   35.1960   27.8950 C.ar      1 ADP210      0.0000 
     26 N3         -0.9350   34.0270   27.3390 N.ar      1 ADP210      0.0000 
     27 C4          0.2650   33.5060   27.5950 C.ar      1 ADP210      0.0000 
     28 H          -1.6895   33.2496   24.6836 H         1 ADP210      0.0000 
     29 H          -0.8087   33.4320   23.1568 H         1 ADP210      0.0000 
     30 H          -0.2807   31.0217   23.2163 H         1 ADP210      0.0000 
     31 H          -2.3438   30.8785   24.8939 H         1 ADP210      0.0000 
     32 H          -1.3217   31.9529   26.6107 H         1 ADP210      0.0000 
     33 H           1.1910   30.5415   26.1930 H         1 ADP210      0.0000 
     34 H           2.7507   31.6484   27.6194 H         1 ADP210      0.0000 
     35 H           1.3739   36.9587   30.0654 H         1 ADP210      0.0000 
     36 H           2.6164   35.6773   29.8661 H         1 ADP210      0.0000 
     37 H          -2.1683   35.6420   27.7047 H         1 ADP210      0.0000 
     38 H          -1.7191   29.0694   24.1253 H         1 ADP210      0.0000 
     39 H          -0.9440   29.1874   26.6420 H         1 ADP210      0.0000 
@<TRIPOS>BOND
     1    2    1 ar   
     2    3    1 ar   
     3    4    1 ar   
     4    8    1 1    
     5    6    5 ar   
     6    7    5 ar   
     7    8    5 1    
     8    9    5 1    
     9   10    9 1    
    10   11   10 1    
    11   28   10 1    
    12   29   10 1    
    13   12   11 1    
    14   13   11 1    
    15   30   11 1    
    16   17   12 1    
    17   14   13 1    
    18   15   13 1    
    19   31   13 1    
    20   38   14 1    
    21   16   15 1    
    22   17   15 1    
    23   32   15 1    
    24   39   16 1    
    25   18   17 1    
    26   33   17 1    
    27   19   18 1    
    28   27   18 1    
    29   20   19 2    
    30   34   19 1    
    31   21   20 1    
    32   22   21 ar   
    33   27   21 ar   
    34   23   22 1    
    35   24   22 ar   
    36   35   23 1    
    37   36   23 1    
    38   25   24 ar   
    39   26   25 ar   
    40   37   25 1    
    41   27   26 ar   
@<TRIPOS>SUBSTRUCTURE
     1 ADP210      1 GROUP   
@<TRIPOS>SET

