#    Name: 4iac_ACP_1_INTS_M
#    Modification time : Tue Mar 25 02:47:37 2014

@<TRIPOS>MOLECULE
4iac_ACP_1_INTS_M
   90     0    15     0     0
SMALL
NO_CHARGES


@<TRIPOS>ATOM
      1 N           1.4245   10.7675  -17.3865 N.am      2 SEC2        0.0000 
      2 N           0.6090   10.5070  -16.1540 N.am     12 SEL2        0.0000 
      3 N           2.2400   11.0280  -18.6190 N.am      7 SEP2        0.0000 
      4 NZ         -1.2870   10.3370  -18.5360 N.4       3 LYC4        0.0000 
      5 NZ         -1.5630   10.5960  -17.2030 N.4      13 LYL4        0.0000 
      6 NZ         -1.0110   10.0780  -19.8690 N.4       8 LYP4        0.0000 
      7 Zn         -2.6475   10.5010  -17.0710 Zn        4 ZIC7        0.0000 
      8 Zn         -1.5630   10.5960  -17.2030 Zn       14 ZIL7        0.0000 
      9 Zn         -3.7320   10.4060  -16.9390 Zn        9 ZIP7        0.0000 
     10 N          -1.2870   10.3370  -18.5360 N.am      2 SEC2        0.0000 
     11 N          -1.5630   10.5960  -17.2030 N.am     12 SEL2        0.0000 
     12 N          -1.0110   10.0780  -19.8690 N.am      7 SEP2        0.0000 
     13 Zn         -1.5670   13.2495  -15.8415 Zn        4 ZIC7        0.0000 
     14 Zn         -0.7100   12.5220  -15.8960 Zn       14 ZIL7        0.0000 
     15 Zn         -2.4240   13.9770  -15.7870 Zn        9 ZIP7        0.0000 
     16 N           0.2935   13.0040  -16.6370 N.am      2 SEC2        0.0000 
     17 N          -0.7100   12.5220  -15.8960 N.am     12 SEL2        0.0000 
     18 N           1.2970   13.4860  -17.3780 N.am      7 SEP2        0.0000 
     19 NZ         -3.9240   13.3830  -13.1800 N.4       3 LYC4        0.0000 
     20 NZ         -2.8260   12.6880  -14.0480 N.4      13 LYL4        0.0000 
     21 NZ         -5.0220   14.0780  -12.3120 N.4       8 LYP4        0.0000 
     22 Zn         -2.6250   13.3325  -14.9175 Zn        4 ZIC7        0.0000 
     23 Zn         -2.8260   12.6880  -14.0480 Zn       14 ZIL7        0.0000 
     24 N          -3.9240   13.3830  -13.1800 N.am      2 SEC2        0.0000 
     25 N          -2.8260   12.6880  -14.0480 N.am     12 SEL2        0.0000 
     26 N          -5.0220   14.0780  -12.3120 N.am      7 SEP2        0.0000 
     27 CA         -0.3760   10.0290  -12.6970 C.3       5 GLC5        0.0000 
     28 CA         -1.5570   10.3150  -14.5190 C.3      15 GLL5        0.0000 
     29 CA          0.8050    9.7430  -10.8750 C.3      10 GLP5        0.0000 
     30 NZ         -5.5285   12.8455  -12.8395 N.4       3 LYC4        0.0000 
     31 NZ         -6.0350   11.6130  -13.3670 N.4      13 LYL4        0.0000 
     32 N          -5.5285   12.8455  -12.8395 N.am      2 SEC2        0.0000 
     33 N          -6.0350   11.6130  -13.3670 N.am     12 SEL2        0.0000 
     34 Zn         -4.2830   10.2880  -16.0045 Zn        4 ZIC7        0.0000 
     35 Zn         -4.8340   10.1700  -15.0700 Zn       14 ZIL7        0.0000 
     36 N          -4.3140    5.7415  -15.5935 N.am      2 SEC2        0.0000 
     37 N          -5.6000    6.4900  -15.7990 N.am     12 SEL2        0.0000 
     38 N          -3.0280    4.9930  -15.3880 N.am      7 SEP2        0.0000 
     39 O          -6.0640    6.5955  -17.1115 O.2       1 ALC1        0.0000 
     40 O          -5.6000    6.4900  -15.7990 O.2      11 ALL1        0.0000 
     41 O          -6.5280    6.7010  -18.4240 O.2       6 ALP1        0.0000 
     42 CA         -7.5260    4.6015  -15.9820 C.3       5 GLC5        0.0000 
     43 CA         -7.5210    5.8260  -14.3470 C.3      15 GLL5        0.0000 
     44 CA         -7.5310    3.3770  -17.6170 C.3      10 GLP5        0.0000 
     45 CA         -9.1930    5.6110  -15.5485 C.3       5 GLC5        0.0000 
     46 CA        -10.8650    5.3960  -16.7500 C.3      10 GLP5        0.0000 
     47 O          -6.2690    4.0650  -15.4455 O.2       1 ALC1        0.0000 
     48 O          -7.0580    4.4710  -14.4830 O.2      11 ALL1        0.0000 
     49 O          -5.4800    3.6590  -16.4080 O.2       6 ALP1        0.0000 
     50 CA         -7.9960    4.8285  -11.2435 C.3       5 GLC5        0.0000 
     51 CA         -7.8610    6.1160  -12.9070 C.3      15 GLL5        0.0000 
     52 CA         -8.1310    3.5410   -9.5800 C.3      10 GLP5        0.0000 
     53 CA         -8.0315    6.9905  -10.9770 C.3       5 GLC5        0.0000 
     54 CA         -8.2020    7.8650   -9.0470 C.3      10 GLP5        0.0000 
     55 N         -10.2210   10.1500  -13.5420 N.am      2 SEC2        0.0000 
     56 N         -10.0820    9.0530  -12.5350 N.am     12 SEL2        0.0000 
     57 N         -10.3600   11.2470  -14.5490 N.am      7 SEP2        0.0000 
     58 CA        -10.6900    9.8920  -11.3860 C.3       5 GLC5        0.0000 
     59 CA        -10.9730    8.0420  -12.4170 C.3      15 GLL5        0.0000 
     60 CA        -10.4070   11.7420  -10.3550 C.3      10 GLP5        0.0000 
     61 CA        -14.1525    7.5525  -13.4235 C.3       5 GLC5        0.0000 
     62 CA        -12.4360    7.8990  -12.2020 C.3      15 GLL5        0.0000 
     63 CA        -15.8690    7.2060  -14.6450 C.3      10 GLP5        0.0000 
     64 O         -14.5320    8.9625  -11.5685 O.2       1 ALC1        0.0000 
     65 O         -13.2150    8.9990  -12.0680 O.2      11 ALL1        0.0000 
     66 O         -15.8490    8.9260  -11.0690 O.2       6 ALP1        0.0000 
     67 N         -14.3965    6.1145  -12.2270 N.am      2 SEC2        0.0000 
     68 N         -12.9730    6.6390  -12.1420 N.am     12 SEL2        0.0000 
     69 N         -15.8200    5.5900  -12.3120 N.am      7 SEP2        0.0000 
     70 CA        -11.3505    4.8340  -10.6365 C.3       5 GLC5        0.0000 
     71 CA        -12.2170    5.5160  -12.2730 C.3      15 GLL5        0.0000 
     72 CA        -10.4840    4.1520   -9.0000 C.3      10 GLP5        0.0000 
     73 CA        -12.1950    6.6945  -10.5425 C.3       5 GLC5        0.0000 
     74 CA        -12.1730    7.8730   -8.8120 C.3      10 GLP5        0.0000 
     75 CA        -14.1725    5.2295  -12.9290 C.3       5 GLC5        0.0000 
     76 CA        -16.1280    4.9430  -13.5850 C.3      10 GLP5        0.0000 
     77 CA        -12.2020    6.3225  -13.9180 C.3       5 GLC5        0.0000 
     78 CA        -12.1870    7.1290  -15.5630 C.3      10 GLP5        0.0000 
     79 CA        -10.3495    5.4630  -10.7750 C.3       5 GLC5        0.0000 
     80 CA        -10.2150    6.7740  -12.5500 C.3      15 GLL5        0.0000 
     81 CA         -4.4618    5.9332  -11.8815 C.3       5 GLC5        0.0000 
     82 CA         -5.6430    6.7680  -13.3290 C.3      15 GLL5        0.0000 
     83 CA         -3.7110    4.4920  -10.5840 C.3      10 GLP5        0.0000 
     84 CA         -5.7127    8.3097  -11.4490 C.3       5 GLC5        0.0000 
     85 CA         -6.2130    9.2450   -9.7190 C.3      10 GLP5        0.0000 
     86 CA         -8.8815    4.1455  -13.6435 C.3       5 GLC5        0.0000 
     87 CA        -10.0720    2.3200  -13.6600 C.3      10 GLP5        0.0000 
     88 CA         -9.3980    7.6365  -10.7652 C.3       5 GLC5        0.0000 
     89 CA        -11.5664    7.6226  -10.6209 C.3       5 GLC5        0.0000 
     90 CA        -11.5734    7.2506  -13.9964 C.3       5 GLC5        0.0000 
@<TRIPOS>BOND
@<TRIPOS>SUBSTRUCTURE
     1 ALC1       39 GROUP        1 X    ALC  0     ROOT ALC X 1
     2 SEC2        1 GROUP        1 X    SEC  0     **** SEC X 2
     3 LYC4        4 GROUP        1 X    LYC  0     **** LYC X 4
     4 ZIC7        7 GROUP        1 X    ZIC  0     **** ZIC X 5
     5 GLC5       27 GROUP        1 X    GLC  0     **** GLC X 6
     6 ALP1       41 GROUP        1 Y    ALP  0     ROOT ALP Y 8
     7 SEP2        3 GROUP        1 Y    SEP  0     **** SEP Y 9
     8 LYP4        6 GROUP        1 Y    LYP  0     **** LYP Y 11
     9 ZIP7        9 GROUP        1 Y    ZIP  0     **** ZIP Y 12
    10 GLP5       29 GROUP        1 Y    GLP  0     **** GLP Y 13
    11 ALL1       40 GROUP        1 Z    ALL  0     ROOT ALL Z 15
    12 SEL2        2 GROUP        1 Z    SEL  0     **** SEL Z 16
    13 LYL4        5 GROUP        1 Z    LYL  0     **** LYL Z 18
    14 ZIL7        8 GROUP        1 Z    ZIL  0     **** ZIL Z 19
    15 GLL5       28 GROUP        1 Z    GLL  0     **** GLL Z 20
@<TRIPOS>SET

