#    Name: 4iac_ACP_1_ligand
#    Modification time : Tue Mar 25 02:47:37 2014

@<TRIPOS>MOLECULE
4iac_ACP_1_ligand
   45    47     1     0     0
SMALL
NO_CHARGES


@<TRIPOS>ATOM
      1 PG         -0.7890   11.0490  -16.0130 P.3       1 ACP403      0.0000 
      2 O1G         0.6090   10.5070  -16.1540 O.co2     1 ACP403      0.0000 
      3 O2G        -1.5630   10.5960  -17.2030 O.co2     1 ACP403      0.0000 
      4 O3G        -0.7100   12.5220  -15.8960 O.co2     1 ACP403      0.0000 
      5 PB         -2.3300   11.4980  -13.3430 P.3       1 ACP403      0.0000 
      6 O1B        -2.8260   12.6880  -14.0480 O.co2     1 ACP403      0.0000 
      7 O2B        -1.4600   11.6750  -12.1390 O.co2     1 ACP403      0.0000 
      8 C3B        -1.5570   10.3150  -14.5190 C.3       1 ACP403      0.0000 
      9 PA         -5.0760   10.5030  -13.6580 P.3       1 ACP403      0.0000 
     10 O1A        -6.0350   11.6130  -13.3670 O.co2     1 ACP403      0.0000 
     11 O2A        -4.8340   10.1700  -15.0700 O.co2     1 ACP403      0.0000 
     12 O3A        -3.6740   10.7350  -12.8650 O.3       1 ACP403      0.0000 
     13 O5'        -5.5950    9.1600  -12.9440 O.3       1 ACP403      0.0000 
     14 C5'        -4.7820    7.9810  -13.0290 C.3       1 ACP403      0.0000 
     15 C4'        -5.6430    6.7680  -13.3290 C.3       1 ACP403      0.0000 
     16 O4'        -6.6670    6.6370  -12.3220 O.3       1 ACP403      0.0000 
     17 C3'        -6.4200    6.8080  -14.6630 C.3       1 ACP403      0.0000 
     18 O3'        -5.6000    6.4900  -15.7990 O.3       1 ACP403      0.0000 
     19 C2'        -7.5210    5.8260  -14.3470 C.3       1 ACP403      0.0000 
     20 O2'        -7.0580    4.4710  -14.4830 O.3       1 ACP403      0.0000 
     21 C1'        -7.8610    6.1160  -12.9070 C.3       1 ACP403      0.0000 
     22 N9         -8.9530    7.1210  -12.7320 N.pl3     1 ACP403      0.0000 
     23 C8         -8.8700    8.4810  -12.7240 C.2       1 ACP403      0.0000 
     24 N7        -10.0820    9.0530  -12.5350 N.2       1 ACP403      0.0000 
     25 C5        -10.9730    8.0420  -12.4170 C.ar      1 ACP403      0.0000 
     26 C6        -12.4360    7.8990  -12.2020 C.ar      1 ACP403      0.0000 
     27 N6        -13.2150    8.9990  -12.0680 N.pl3     1 ACP403      0.0000 
     28 N1        -12.9730    6.6390  -12.1420 N.ar      1 ACP403      0.0000 
     29 C2        -12.2170    5.5160  -12.2730 C.ar      1 ACP403      0.0000 
     30 N3        -10.8760    5.5690  -12.4700 N.ar      1 ACP403      0.0000 
     31 C4        -10.2150    6.7740  -12.5500 C.ar      1 ACP403      0.0000 
     32 H          -0.7872    9.8336  -13.9919 H         1 ACP403      0.0000 
     33 H          -2.3273    9.6862  -14.8559 H         1 ACP403      0.0000 
     34 H          -4.2471    7.7945  -12.0877 H         1 ACP403      0.0000 
     35 H          -4.0296    8.0697  -13.8246 H         1 ACP403      0.0000 
     36 H          -5.0331    5.8746  -13.3321 H         1 ACP403      0.0000 
     37 H          -6.8669    7.7903  -14.7104 H         1 ACP403      0.0000 
     38 H          -8.3621    6.0442  -14.9481 H         1 ACP403      0.0000 
     39 H          -8.1317    5.1926  -12.4228 H         1 ACP403      0.0000 
     40 H          -8.0314    8.9802  -12.8414 H         1 ACP403      0.0000 
     41 H         -12.7452    9.8801  -12.1219 H         1 ACP403      0.0000 
     42 H         -14.1909    8.8325  -11.9270 H         1 ACP403      0.0000 
     43 H         -12.6893    4.5759  -12.2195 H         1 ACP403      0.0000 
     44 H          -6.1867    6.6467  -16.5935 H         1 ACP403      0.0000 
     45 H          -6.4583    4.4816  -15.2832 H         1 ACP403      0.0000 
@<TRIPOS>BOND
     1    2    1 ar   
     2    3    1 ar   
     3    4    1 ar   
     4    8    1 1    
     5    6    5 ar   
     6    7    5 ar   
     7    8    5 1    
     8   12    5 1    
     9   32    8 1    
    10   33    8 1    
    11   10    9 ar   
    12   11    9 ar   
    13   12    9 1    
    14   13    9 1    
    15   14   13 1    
    16   15   14 1    
    17   34   14 1    
    18   35   14 1    
    19   16   15 1    
    20   17   15 1    
    21   36   15 1    
    22   21   16 1    
    23   18   17 1    
    24   19   17 1    
    25   37   17 1    
    26   44   18 1    
    27   20   19 1    
    28   21   19 1    
    29   38   19 1    
    30   45   20 1    
    31   22   21 1    
    32   39   21 1    
    33   23   22 1    
    34   31   22 1    
    35   24   23 2    
    36   40   23 1    
    37   25   24 1    
    38   26   25 ar   
    39   31   25 ar   
    40   27   26 1    
    41   28   26 ar   
    42   41   27 1    
    43   42   27 1    
    44   29   28 ar   
    45   30   29 ar   
    46   43   29 1    
    47   31   30 ar   
@<TRIPOS>SUBSTRUCTURE
     1 ACP403      1 GROUP   
@<TRIPOS>SET

