#    Name: 4JFI_1_CAVITY_N1_ALL.mol2
#    Modification time : Tue Mar 11 07:57:52 2014

@<TRIPOS>MOLECULE
4JFI_1_CAVITY_N1_ALL.mol2
   72     0     6     0     0
SMALL
NO_CHARGES


@<TRIPOS>ATOM
      1 OG         29.4309   14.0595  -25.3345 O.2       1 SER1        0.0000 
      2 OG         29.4865   14.4442  -23.8857 O.2       1 SER1        0.0000 
      3 OG         28.9542   15.8046  -24.2266 O.2       1 SER1        0.0000 
      4 DU         28.0853   13.9428  -23.6988 H         6 CUB7        0.0000 
      5 CA         27.5530   15.3031  -24.0396 C.3       5 GLY6        0.0000 
      6 CA         26.6840   13.4413  -23.5118 C.3       5 GLY6        0.0000 
      7 DU         25.8150   11.5795  -22.9839 H         6 CUB7        0.0000 
      8 CA         25.2827   12.9399  -23.3248 C.3       5 GLY6        0.0000 
      9 OG         31.4757   13.9701  -22.2831 O.2       1 SER1        0.0000 
     10 OG         30.9434   15.3305  -22.6240 O.2       1 SER1        0.0000 
     11 OG         30.0745   13.4687  -22.0962 O.2       1 SER1        0.0000 
     12 OG         29.5422   14.8290  -22.4370 O.2       1 SER1        0.0000 
     13 CA         29.0099   16.1893  -22.7778 C.3       5 GLY6        0.0000 
     14 DU         28.6732   12.9672  -21.9092 H         6 CUB7        0.0000 
     15 DU         28.1409   14.3275  -22.2500 H         6 CUB7        0.0000 
     16 CA         27.6086   15.6879  -22.5909 C.3       5 GLY6        0.0000 
     17 DU         27.8042   11.1054  -21.3813 H         6 CUB7        0.0000 
     18 DU         27.2719   12.4658  -21.7222 H         6 CUB7        0.0000 
     19 CA         26.7396   13.8261  -22.0630 C.3       5 GLY6        0.0000 
     20 CA         26.2073   15.1864  -22.4039 C.3       5 GLY6        0.0000 
     21 NZ         25.8706   11.9643  -21.5352 N.2       3 LYS4        0.0000 
     22 CA         25.3383   13.3246  -21.8760 C.3       5 GLY6        0.0000 
     23 NZ         24.4694   11.4628  -21.3482 N.2       3 LYS4        0.0000 
     24 N          23.9371   12.8232  -21.6890 N.2       2 ALA2        0.0000 
     25 DU         31.1947   11.1328  -19.9657 H         6 CUB7        0.0000 
     26 OG         30.6624   12.4931  -20.3066 O.2       1 SER1        0.0000 
     27 OG         29.5978   15.2138  -20.9883 O.2       1 SER1        0.0000 
     28 DU         29.7934   10.6313  -19.7787 H         6 CUB7        0.0000 
     29 OG         29.2611   11.9917  -20.1196 O.2       1 SER1        0.0000 
     30 OG         28.7288   13.3520  -20.4604 O.2       1 SER1        0.0000 
     31 OG         28.1965   14.7123  -20.8013 O.2       1 SER1        0.0000 
     32 OG         27.8598   11.4902  -19.9326 O.2       1 SER1        0.0000 
     33 DU         27.3275   12.8505  -20.2734 H         6 CUB7        0.0000 
     34 CZ         26.7952   14.2108  -20.6143 C.ar      4 PHE5        0.0000 
     35 OG         26.9909    9.6284  -19.4048 O.2       1 SER1        0.0000 
     36 NZ         25.9263   12.3491  -20.0864 N.2       3 LYS4        0.0000 
     37 CA         25.3940   13.7094  -20.4273 C.3       5 GLY6        0.0000 
     38 N          33.1839   10.6587  -18.3631 N.2       2 ALA2        0.0000 
     39 OG         32.6516   12.0190  -18.7040 O.2       1 SER1        0.0000 
     40 CZ         31.7826   10.1572  -18.1761 C.ar      4 PHE5        0.0000 
     41 OG         31.2503   11.5176  -18.5170 O.2       1 SER1        0.0000 
     42 CZ         30.3813    9.6558  -17.9891 C.ar      4 PHE5        0.0000 
     43 DU         29.8490   11.0161  -18.3300 H         6 CUB7        0.0000 
     44 OG         29.3167   12.3764  -18.6708 O.2       1 SER1        0.0000 
     45 OG         28.7844   13.7367  -19.0117 O.2       1 SER1        0.0000 
     46 CZ         28.2521   15.0971  -19.3525 C.ar      4 PHE5        0.0000 
     47 OG         28.4478   10.5146  -18.1430 O.2       1 SER1        0.0000 
     48 OG         27.9155   11.8750  -18.4838 O.2       1 SER1        0.0000 
     49 CZ         27.3832   13.2353  -18.8247 C.ar      4 PHE5        0.0000 
     50 NZ         25.9819   12.7338  -18.6377 N.2       3 LYS4        0.0000 
     51 CA         33.2395   11.0435  -16.9144 C.3       5 GLY6        0.0000 
     52 CA         32.7072   12.4038  -17.2552 C.3       5 GLY6        0.0000 
     53 CA         31.8382   10.5420  -16.7274 C.3       5 GLY6        0.0000 
     54 OG         31.3059   11.9023  -17.0682 O.2       1 SER1        0.0000 
     55 OG         30.7736   13.2627  -17.4091 O.2       1 SER1        0.0000 
     56 CZ         30.4370   10.0405  -16.5404 C.ar      4 PHE5        0.0000 
     57 DU         29.9047   11.4009  -16.8812 H         6 CUB7        0.0000 
     58 OG         29.3724   12.7612  -17.2221 O.2       1 SER1        0.0000 
     59 OG         28.8401   14.1215  -17.5629 O.2       1 SER1        0.0000 
     60 CZ         29.0357    9.5391  -16.3534 C.ar      4 PHE5        0.0000 
     61 OG         28.5034   10.8994  -16.6943 O.2       1 SER1        0.0000 
     62 OG         27.9711   12.2597  -17.0351 O.2       1 SER1        0.0000 
     63 CZ         27.4388   13.6201  -17.3759 C.ar      4 PHE5        0.0000 
     64 CA         32.7628   12.7886  -15.8065 C.3       5 GLY6        0.0000 
     65 CA         32.2305   14.1489  -16.1473 C.3       5 GLY6        0.0000 
     66 CA         31.3616   12.2871  -15.6195 C.3       5 GLY6        0.0000 
     67 OG         30.8293   13.6474  -15.9603 O.2       1 SER1        0.0000 
     68 CZ         30.4926   10.4253  -15.0917 C.ar      4 PHE5        0.0000 
     69 CZ         29.9603   11.7856  -15.4325 C.ar      4 PHE5        0.0000 
     70 CZ         29.4280   13.1460  -15.7733 C.ar      4 PHE5        0.0000 
     71 CZ         28.5590   11.2842  -15.2455 C.ar      4 PHE5        0.0000 
     72 CZ         28.0267   12.6445  -15.5864 C.ar      4 PHE5        0.0000 
@<TRIPOS>BOND
@<TRIPOS>SUBSTRUCTURE
     1 SER1        1 GROUP   
     2 ALA2       24 GROUP   
     3 LYS4       21 GROUP   
     4 PHE5       34 GROUP   
     5 GLY6        5 GROUP   
     6 CUB7        4 GROUP   
@<TRIPOS>SET

