#    Name: 4jfi_1KT_1_INTS_M
#    Modification time : Tue Mar 25 05:50:53 2014

@<TRIPOS>MOLECULE
4jfi_1KT_1_INTS_M
   54     0     6     0     0
SMALL
NO_CHARGES


@<TRIPOS>ATOM
      1 N          34.2330   13.5335  -16.3030 N.am      1 SEC2        0.0000 
      2 N          33.0840   13.0470  -16.9900 N.am      5 SEL2        0.0000 
      3 N          35.3820   14.0200  -15.6160 N.am      3 SEP2        0.0000 
      4 CA         34.3120   11.2540  -17.2400 C.3       2 GLC5        0.0000 
      5 CA         32.9930   10.9040  -18.7870 C.3       6 GLL5        0.0000 
      6 CA         35.6310   11.6040  -15.6930 C.3       4 GLP5        0.0000 
      7 CA         28.5860    7.8825  -18.3565 C.3       2 GLC5        0.0000 
      8 CA         27.2110    8.7150  -19.6970 C.3       6 GLL5        0.0000 
      9 CA         29.9610    7.0500  -17.0160 C.3       4 GLP5        0.0000 
     10 CA         28.9845   10.9125  -14.0115 C.3       2 GLC5        0.0000 
     11 CA         29.2470   10.8670  -16.1040 C.3       6 GLL5        0.0000 
     12 CA         28.7220   10.9580  -11.9190 C.3       4 GLP5        0.0000 
     13 CA         30.7065    9.4515  -15.0950 C.3       2 GLC5        0.0000 
     14 CA         30.3620   11.2500  -15.1880 C.3       6 GLL5        0.0000 
     15 CA         31.0510    7.6530  -15.0020 C.3       4 GLP5        0.0000 
     16 CA         32.2115   10.5760  -14.9315 C.3       2 GLC5        0.0000 
     17 CA         34.0610    9.9020  -14.6750 C.3       4 GLP5        0.0000 
     18 CA         30.7305   11.2240  -13.4030 C.3       2 GLC5        0.0000 
     19 CA         31.0990   11.1980  -11.6180 C.3       4 GLP5        0.0000 
     20 CA         32.7255   11.9995  -14.8665 C.3       2 GLC5        0.0000 
     21 CA         30.6830   12.7360  -15.2690 C.3       6 GLL5        0.0000 
     22 CA         34.7680   11.2630  -14.4640 C.3       4 GLP5        0.0000 
     23 CA         30.2090   12.9180  -13.6740 C.3       2 GLC5        0.0000 
     24 CA         29.7350   13.1000  -12.0790 C.3       4 GLP5        0.0000 
     25 CA         29.4230   14.5345  -14.9925 C.3       2 GLC5        0.0000 
     26 CA         28.1630   16.3330  -14.7160 C.3       4 GLP5        0.0000 
     27 N          26.3315   11.5750  -17.5075 N.am      1 SEC2        0.0000 
     28 N          26.6450   13.0260  -18.0230 N.am      5 SEL2        0.0000 
     29 N          26.0180   10.1240  -16.9920 N.am      3 SEP2        0.0000 
     30 CA         24.8225   12.7245  -19.7690 C.3       2 GLC5        0.0000 
     31 CA         26.4380   12.6320  -20.8260 C.3       6 GLL5        0.0000 
     32 CA         23.2070   12.8170  -18.7120 C.3       4 GLP5        0.0000 
     33 CA         25.0850   13.8390  -22.9690 C.3       2 GLC5        0.0000 
     34 CA         26.3970   12.5900  -22.2240 C.3       6 GLL5        0.0000 
     35 CA         23.7730   15.0880  -23.7140 C.3       4 GLP5        0.0000 
     36 CA         23.6750   12.2445  -20.4460 C.3       2 GLC5        0.0000 
     37 CA         24.1430   11.6720  -22.1800 C.3       6 GLL5        0.0000 
     38 CA         23.4405   12.9620  -23.3080 C.3       2 GLC5        0.0000 
     39 CA         22.7380   14.2520  -24.4360 C.3       4 GLP5        0.0000 
     40 CA         26.0825   14.4555  -23.8015 C.3       2 GLC5        0.0000 
     41 CA         27.4830   13.0840  -22.9650 C.3       6 GLL5        0.0000 
     42 CA         24.6820   15.8270  -24.6380 C.3       4 GLP5        0.0000 
     43 CA         31.8850   15.4520  -21.5965 C.3       2 GLC5        0.0000 
     44 CA         30.7460   14.5130  -22.5550 C.3       6 GLL5        0.0000 
     45 CA         33.0240   16.3910  -20.6380 C.3       4 GLP5        0.0000 
     46 CA         31.1620   16.0620  -23.5285 C.3       2 GLC5        0.0000 
     47 CA         31.5780   17.6110  -24.5020 C.3       4 GLP5        0.0000 
     48 CA         32.1178   14.5280  -15.3635 C.3       2 GLC5        0.0000 
     49 CA         30.8540   13.1660  -16.7030 C.3       6 GLL5        0.0000 
     50 CA         33.4670   16.1050  -14.7410 C.3       4 GLP5        0.0000 
     51 CA         27.5322   10.7960  -16.2340 C.3       2 GLC5        0.0000 
     52 CA         25.7140   10.4620  -15.6640 C.3       4 GLP5        0.0000 
     53 CA         30.3818    9.2570  -16.6870 C.3       2 GLC5        0.0000 
     54 CA         31.1190    7.5500  -16.3790 C.3       4 GLP5        0.0000 
@<TRIPOS>BOND
@<TRIPOS>SUBSTRUCTURE
     1 SEC2        1 GROUP        1 X    SEC  0     ROOT SEC X 2
     2 GLC5        4 GROUP        1 X    GLC  0     **** GLC X 6
     3 SEP2        3 GROUP        1 Y    SEP  0     ROOT SEP Y 9
     4 GLP5        6 GROUP        1 Y    GLP  0     **** GLP Y 13
     5 SEL2        2 GROUP        1 Z    SEL  0     ROOT SEL Z 16
     6 GLL5        5 GROUP        1 Z    GLL  0     **** GLL Z 20
@<TRIPOS>SET

