#    Name: 4jfi_1KT_1_ligand
#    Modification time : Tue Mar 25 05:50:54 2014

@<TRIPOS>MOLECULE
4jfi_1KT_1_ligand
   70    74     1     0     0
SMALL
NO_CHARGES


@<TRIPOS>ATOM
      1 O3         33.0840   13.0470  -16.9900 O.2       1 1KT201      0.0000 
      2 C11        32.0100   12.5710  -17.2590 C.2       1 1KT201      0.0000 
      3 C12        30.8540   13.1660  -16.7030 C.3       1 1KT201      0.0000 
      4 N10        31.8830   11.4380  -17.9970 N.am      1 1KT201      0.0000 
      5 C9         32.9930   10.9040  -18.7870 C.3       1 1KT201      0.0000 
      6 C8         32.6740   11.5930  -20.1930 C.3       1 1KT201      0.0000 
      7 C7         31.3540   11.0640  -20.6970 C.ar      1 1KT201      0.0000 
      8 C6         31.1020   10.9140  -22.0410 C.ar      1 1KT201      0.0000 
      9 C5         29.8900   10.3820  -22.4720 C.ar      1 1KT201      0.0000 
     10 O2         29.6080   10.2390  -23.8220 O.3       1 1KT201      0.0000 
     11 C27        30.5780   10.8570  -24.6730 C.3       1 1KT201      0.0000 
     12 C4         28.9590    9.8650  -21.5870 C.ar      1 1KT201      0.0000 
     13 C3         29.2280    9.9710  -20.2340 C.ar      1 1KT201      0.0000 
     14 O1         28.4510    9.4330  -19.2870 O.3       1 1KT201      0.0000 
     15 C26        27.2110    8.7150  -19.6970 C.3       1 1KT201      0.0000 
     16 C2         30.4090   10.6070  -19.7590 C.ar      1 1KT201      0.0000 
     17 C1         30.6300   10.7290  -18.2680 C.3       1 1KT201      0.0000 
     18 C16        29.4540   11.3930  -17.5040 C.3       1 1KT201      0.0000 
     19 C15        29.2470   10.8670  -16.1040 C.3       1 1KT201      0.0000 
     20 C14        30.3620   11.2500  -15.1880 C.3       1 1KT201      0.0000 
     21 C13        30.6830   12.7360  -15.2690 C.3       1 1KT201      0.0000 
     22 N17        29.6570   12.8580  -17.4740 N.am      1 1KT201      0.0000 
     23 C18        28.8370   13.7640  -18.0640 C.2       1 1KT201      0.0000 
     24 O4         29.1160   15.0100  -18.0200 O.2       1 1KT201      0.0000 
     25 C19        27.5860   13.2880  -18.7420 C.2       1 1KT201      0.0000 
     26 O5         26.6450   13.0260  -18.0230 O.2       1 1KT201      0.0000 
     27 C20        27.5690   13.1990  -20.2020 C.ar      1 1KT201      0.0000 
     28 C21        28.6880   13.6840  -20.9280 C.ar      1 1KT201      0.0000 
     29 C25        26.4380   12.6320  -20.8260 C.ar      1 1KT201      0.0000 
     30 C24        26.3970   12.5900  -22.2240 C.ar      1 1KT201      0.0000 
     31 O8         25.3040   12.0790  -22.8960 O.3       1 1KT201      0.0000 
     32 C30        24.1430   11.6720  -22.1800 C.3       1 1KT201      0.0000 
     33 C23        27.4830   13.0840  -22.9650 C.ar      1 1KT201      0.0000 
     34 O7         27.4770   13.0680  -24.3690 O.3       1 1KT201      0.0000 
     35 C29        26.9690   11.9060  -25.0510 C.3       1 1KT201      0.0000 
     36 C22        28.6040   13.5960  -22.3340 C.ar      1 1KT201      0.0000 
     37 O6         29.5990   13.9730  -23.1600 O.3       1 1KT201      0.0000 
     38 C28        30.7460   14.5130  -22.5550 C.3       1 1KT201      0.0000 
     39 H          30.9789   14.2681  -16.6838 H         1 1KT201      0.0000 
     40 H          32.9275    9.8700  -18.9280 H         1 1KT201      0.0000 
     41 H          33.9228   11.2631  -18.4712 H         1 1KT201      0.0000 
     42 H          33.4728   11.3395  -20.8647 H         1 1KT201      0.0000 
     43 H          32.6272   12.6534  -20.0289 H         1 1KT201      0.0000 
     44 H          31.8095   11.1948  -22.7382 H         1 1KT201      0.0000 
     45 H          28.1082    9.4233  -21.9201 H         1 1KT201      0.0000 
     46 H          30.7262    9.6993  -17.8601 H         1 1KT201      0.0000 
     47 H          28.5406   11.1908  -18.0880 H         1 1KT201      0.0000 
     48 H          29.1597    9.7709  -16.1427 H         1 1KT201      0.0000 
     49 H          28.2956   11.2568  -15.7122 H         1 1KT201      0.0000 
     50 H          31.2661   10.6801  -15.4416 H         1 1KT201      0.0000 
     51 H          30.0952   11.0033  -14.1514 H         1 1KT201      0.0000 
     52 H          29.8709   13.3016  -14.8099 H         1 1KT201      0.0000 
     53 H          31.6014   12.9330  -14.7140 H         1 1KT201      0.0000 
     54 H          29.4830   14.0630  -20.4691 H         1 1KT201      0.0000 
     55 H          25.6751   12.2648  -20.2696 H         1 1KT201      0.0000 
     56 H          31.4912   10.4737  -24.5349 H         1 1KT201      0.0000 
     57 H          30.3533   10.7378  -25.6401 H         1 1KT201      0.0000 
     58 H          30.6449   11.8408  -24.5067 H         1 1KT201      0.0000 
     59 H          27.4120    7.9365  -20.2916 H         1 1KT201      0.0000 
     60 H          26.7096    8.3596  -18.9082 H         1 1KT201      0.0000 
     61 H          26.5844    9.3122  -20.1978 H         1 1KT201      0.0000 
     62 H          24.3464   10.9433  -21.5261 H         1 1KT201      0.0000 
     63 H          23.7424   12.4276  -21.6617 H         1 1KT201      0.0000 
     64 H          23.4314   11.3265  -22.7918 H         1 1KT201      0.0000 
     65 H          27.0106   12.0108  -26.0446 H         1 1KT201      0.0000 
     66 H          27.4891   11.0834  -24.8210 H         1 1KT201      0.0000 
     67 H          26.0143   11.7247  -24.8151 H         1 1KT201      0.0000 
     68 H          31.1767   13.8629  -21.9289 H         1 1KT201      0.0000 
     69 H          31.4364   14.7701  -23.2312 H         1 1KT201      0.0000 
     70 H          30.5347   15.3343  -22.0250 H         1 1KT201      0.0000 
@<TRIPOS>BOND
     1    2    1 2    
     2    3    2 1    
     3    4    2 am   
     4   21    3 1    
     5   22    3 1    
     6   39    3 1    
     7    5    4 1    
     8   17    4 1    
     9    6    5 1    
    10   40    5 1    
    11   41    5 1    
    12    7    6 1    
    13   42    6 1    
    14   43    6 1    
    15    8    7 ar   
    16   16    7 ar   
    17    9    8 ar   
    18   44    8 1    
    19   10    9 1    
    20   12    9 ar   
    21   11   10 1    
    22   56   11 1    
    23   57   11 1    
    24   58   11 1    
    25   13   12 ar   
    26   45   12 1    
    27   14   13 1    
    28   16   13 ar   
    29   15   14 1    
    30   59   15 1    
    31   60   15 1    
    32   61   15 1    
    33   17   16 1    
    34   18   17 1    
    35   46   17 1    
    36   19   18 1    
    37   22   18 1    
    38   47   18 1    
    39   20   19 1    
    40   48   19 1    
    41   49   19 1    
    42   21   20 1    
    43   50   20 1    
    44   51   20 1    
    45   52   21 1    
    46   53   21 1    
    47   23   22 am   
    48   24   23 2    
    49   25   23 1    
    50   26   25 2    
    51   27   25 1    
    52   28   27 ar   
    53   29   27 ar   
    54   36   28 ar   
    55   54   28 1    
    56   30   29 ar   
    57   55   29 1    
    58   31   30 1    
    59   33   30 ar   
    60   32   31 1    
    61   62   32 1    
    62   63   32 1    
    63   64   32 1    
    64   34   33 1    
    65   36   33 ar   
    66   35   34 1    
    67   65   35 1    
    68   66   35 1    
    69   67   35 1    
    70   37   36 1    
    71   38   37 1    
    72   68   38 1    
    73   69   38 1    
    74   70   38 1    
@<TRIPOS>SUBSTRUCTURE
     1 1KT201      1 GROUP   
@<TRIPOS>SET

