#    Name: 1uy6_PU3_1_INTS_M
#    Modification time : Tue Mar 25 07:17:11 2014

@<TRIPOS>MOLECULE
1uy6_PU3_1_INTS_M
   62     0     6     0     0
SMALL
NO_CHARGES


@<TRIPOS>ATOM
      1 CA          8.1375   10.2490   25.2675 C.3       2 GLC5        0.0000 
      2 CA          8.2560   10.1870   23.0600 C.3       6 GLL5        0.0000 
      3 CA          8.0190   10.3110   27.4750 C.3       4 GLP5        0.0000 
      4 CA          9.9890    9.5725   23.1225 C.3       2 GLC5        0.0000 
      5 CA         11.7220    8.9580   23.1850 C.3       4 GLP5        0.0000 
      6 CA          9.0800   11.5845   21.9610 C.3       2 GLC5        0.0000 
      7 CA          9.9040   12.9820   20.8620 C.3       4 GLP5        0.0000 
      8 CA          7.4205   11.1020   25.7450 C.3       2 GLC5        0.0000 
      9 CA          6.8220   11.8930   24.0150 C.3       6 GLL5        0.0000 
     10 CA          6.8910   15.4895   23.3300 C.3       2 GLC5        0.0000 
     11 CA          8.0410   15.0020   24.8170 C.3       6 GLL5        0.0000 
     12 CA          5.7410   15.9770   21.8430 C.3       4 GLP5        0.0000 
     13 CA          9.0135   14.6000   23.1615 C.3       2 GLC5        0.0000 
     14 CA          9.9860   14.1980   21.5060 C.3       4 GLP5        0.0000 
     15 CA          7.9605   16.7520   24.6775 C.3       2 GLC5        0.0000 
     16 CA          7.8800   18.5020   24.5380 C.3       4 GLP5        0.0000 
     17 CA          3.2800   14.0120   26.8920 C.3       2 GLC5        0.0000 
     18 CA          4.1560   15.5370   25.9070 C.3       6 GLL5        0.0000 
     19 CA          2.4040   12.4870   27.8770 C.3       4 GLP5        0.0000 
     20 CA          4.3015   15.6615   27.7025 C.3       2 GLC5        0.0000 
     21 CA          4.4470   15.7860   29.4980 C.3       4 GLP5        0.0000 
     22 CA          4.3040   16.0045   23.9850 C.3       2 GLC5        0.0000 
     23 CA          4.4520   16.4720   22.0630 C.3       4 GLP5        0.0000 
     24 CA          3.1010   16.9340   25.1535 C.3       2 GLC5        0.0000 
     25 CA          2.0460   18.3310   24.4000 C.3       4 GLP5        0.0000 
     26 CA          5.1395   17.3560   26.0160 C.3       2 GLC5        0.0000 
     27 CA          6.1230   19.1750   26.1250 C.3       4 GLP5        0.0000 
     28 CA         -0.1810   10.1690   22.8530 C.3       2 GLC5        0.0000 
     29 CA          0.0520   10.9000   24.7540 C.3       6 GLL5        0.0000 
     30 CA         -0.4140    9.4380   20.9520 C.3       4 GLP5        0.0000 
     31 CA         -2.5570    9.4745   25.6155 C.3       2 GLC5        0.0000 
     32 CA         -1.3510   11.0400   25.1150 C.3       6 GLL5        0.0000 
     33 CA         -3.7630    7.9090   26.1160 C.3       4 GLP5        0.0000 
     34 CA         -2.3070   12.6360   25.9780 C.3       2 GLC5        0.0000 
     35 CA         -3.2630   14.2320   26.8410 C.3       4 GLP5        0.0000 
     36 O          -3.6500   11.9240   24.3705 O.2       1 ALC1        0.0000 
     37 O          -2.1950   11.7260   24.3210 O.2       5 ALL1        0.0000 
     38 O          -5.1050   12.1220   24.4200 O.2       3 ALP1        0.0000 
     39 CA          1.6310   11.2880   26.7680 C.3       2 GLC5        0.0000 
     40 CA          0.8580   10.0890   25.6590 C.3       6 GLL5        0.0000 
     41 CA         -2.3600    8.8510   26.6010 C.3       2 GLC5        0.0000 
     42 CA         -0.9570    9.7930   27.0860 C.3       6 GLL5        0.0000 
     43 CA         -1.7625    8.4255   28.5265 C.3       2 GLC5        0.0000 
     44 CA         -2.5680    7.0580   29.9670 C.3       4 GLP5        0.0000 
     45 CA          0.3715   10.7175   28.1950 C.3       2 GLC5        0.0000 
     46 CA          1.7000   11.6420   29.3040 C.3       4 GLP5        0.0000 
     47 CA          2.7930   10.8960   26.7935 C.3       2 GLC5        0.0000 
     48 CA          3.1820    9.3050   25.7100 C.3       6 GLL5        0.0000 
     49 CA          5.5737   12.0843   22.0307 C.3       2 GLC5        0.0000 
     50 CA          5.6590   11.2860   23.4960 C.3       6 GLL5        0.0000 
     51 CA          4.9070   12.5790   20.3060 C.3       4 GLP5        0.0000 
     52 CA          3.5760   12.8538   26.3635 C.3       2 GLC5        0.0000 
     53 CA          5.3100   13.5540   25.1120 C.3       6 GLL5        0.0000 
     54 CA          4.3269   12.1254   21.9829 C.3       2 GLC5        0.0000 
     55 CA          3.2090   11.0270   23.1370 C.3       6 GLL5        0.0000 
     56 CA          0.1373   12.1875   26.1822 C.3       2 GLC5        0.0000 
     57 CA          0.9240   13.4050   27.4300 C.3       4 GLP5        0.0000 
     58 CA          4.8396    8.2914   26.4556 C.3       2 GLC5        0.0000 
     59 CA          6.1340    8.6920   27.8920 C.3       4 GLP5        0.0000 
     60 CA          5.5124   11.9859   26.1797 C.3       2 GLC5        0.0000 
     61 CA          4.1860   12.8870   24.5880 C.3       6 GLL5        0.0000 
     62 CA          5.7320   11.2150   27.8150 C.3       4 GLP5        0.0000 
@<TRIPOS>BOND
@<TRIPOS>SUBSTRUCTURE
     1 ALC1       36 GROUP        1 X    ALC  0     ROOT ALC X 1
     2 GLC5        1 GROUP        1 X    GLC  0     **** GLC X 6
     3 ALP1       38 GROUP        1 Y    ALP  0     ROOT ALP Y 8
     4 GLP5        3 GROUP        1 Y    GLP  0     **** GLP Y 13
     5 ALL1       37 GROUP        1 Z    ALL  0     ROOT ALL Z 15
     6 GLL5        2 GROUP        1 Z    GLL  0     **** GLL Z 20
@<TRIPOS>SET

