#    Name: 1uy6_PU3_1_ligand
#    Modification time : Tue Mar 25 07:17:11 2014

@<TRIPOS>MOLECULE
1uy6_PU3_1_ligand
   52    54     1     0     0
SMALL
NO_CHARGES


@<TRIPOS>ATOM
      1 C19         8.2560   10.1870   23.0600 C.3       1 PU31224     0.0000 
      2 O3          8.0950   11.3890   23.8530 O.3       1 PU31224     0.0000 
      3 C5          6.8220   11.8930   24.0150 C.ar      1 PU31224     0.0000 
      4 C6          5.6590   11.2860   23.4960 C.ar      1 PU31224     0.0000 
      5 C4          6.6540   13.0700   24.8410 C.ar      1 PU31224     0.0000 
      6 O1          7.7140   13.7150   25.3760 O.3       1 PU31224     0.0000 
      7 C7          8.0410   15.0020   24.8170 C.3       1 PU31224     0.0000 
      8 C3          5.3100   13.5540   25.1120 C.ar      1 PU31224     0.0000 
      9 O2          5.2900   14.7170   25.8570 O.3       1 PU31224     0.0000 
     10 C8          4.1560   15.5370   25.9070 C.3       1 PU31224     0.0000 
     11 C2          4.1860   12.8870   24.5880 C.ar      1 PU31224     0.0000 
     12 C1          4.3830   11.7460   23.7770 C.ar      1 PU31224     0.0000 
     13 C9          3.2090   11.0270   23.1370 C.3       1 PU31224     0.0000 
     14 C10         1.9940   10.7670   23.9920 C.2       1 PU31224     0.0000 
     15 N1          0.8030   11.3050   23.7050 N.2       1 PU31224     0.0000 
     16 C11         0.0520   10.9000   24.7540 C.ar      1 PU31224     0.0000 
     17 C13        -1.3510   11.0400   25.1150 C.ar      1 PU31224     0.0000 
     18 N5         -2.1950   11.7260   24.3210 N.pl3     1 PU31224     0.0000 
     19 C12         0.8580   10.0890   25.6590 C.ar      1 PU31224     0.0000 
     20 N4          0.3420    9.5640   26.7850 N.ar      1 PU31224     0.0000 
     21 C14        -0.9570    9.7930   27.0860 C.ar      1 PU31224     0.0000 
     22 N3         -1.7780   10.5150   26.2810 N.ar      1 PU31224     0.0000 
     23 N2          2.0680   10.0630   25.1400 N.pl3     1 PU31224     0.0000 
     24 C15         3.1820    9.3050   25.7100 C.3       1 PU31224     0.0000 
     25 C16         2.9290    7.8460   25.3350 C.3       1 PU31224     0.0000 
     26 C17         4.0350    7.2060   24.5160 C.3       1 PU31224     0.0000 
     27 C18         4.0540    5.7230   24.9060 C.3       1 PU31224     0.0000 
     28 H           5.7765   10.4538   22.8736 H         1 PU31224     0.0000 
     29 H           3.2484   13.2182   24.7879 H         1 PU31224     0.0000 
     30 H           3.5759   10.0488   22.7260 H         1 PU31224     0.0000 
     31 H           2.8928   11.6065   22.2290 H         1 PU31224     0.0000 
     32 H          -1.7998   12.1102   23.4866 H         1 PU31224     0.0000 
     33 H          -3.1418   11.7901   24.6365 H         1 PU31224     0.0000 
     34 H          -1.3505    9.3946   27.9835 H         1 PU31224     0.0000 
     35 H           3.2019    9.3864   26.7827 H         1 PU31224     0.0000 
     36 H           4.1217    9.6119   25.2850 H         1 PU31224     0.0000 
     37 H           1.9797    7.7844   24.7712 H         1 PU31224     0.0000 
     38 H           2.7817    7.2620   26.2624 H         1 PU31224     0.0000 
     39 H           4.9771    7.6499   24.7630 H         1 PU31224     0.0000 
     40 H           3.8161    7.2955   23.4721 H         1 PU31224     0.0000 
     41 H           9.2134    9.9036   23.0053 H         1 PU31224     0.0000 
     42 H           7.7441    9.4180   23.4430 H         1 PU31224     0.0000 
     43 H           7.9342   10.3151   22.1219 H         1 PU31224     0.0000 
     44 H           8.8336   15.4123   25.2680 H         1 PU31224     0.0000 
     45 H           8.2579   14.9395   23.8428 H         1 PU31224     0.0000 
     46 H           7.2843   15.6495   24.9079 H         1 PU31224     0.0000 
     47 H           4.3015   16.3369   26.4893 H         1 PU31224     0.0000 
     48 H           3.9027   15.8761   25.0010 H         1 PU31224     0.0000 
     49 H           3.3616   15.0504   26.2705 H         1 PU31224     0.0000 
     50 H           4.7622    5.2182   24.4124 H         1 PU31224     0.0000 
     51 H           4.2314    5.5979   25.8822 H         1 PU31224     0.0000 
     52 H           3.1822    5.2754   24.7068 H         1 PU31224     0.0000 
@<TRIPOS>BOND
     1    2    1 1    
     2   41    1 1    
     3   42    1 1    
     4   43    1 1    
     5    3    2 1    
     6    4    3 ar   
     7    5    3 ar   
     8   12    4 ar   
     9   28    4 1    
    10    6    5 1    
    11    8    5 ar   
    12    7    6 1    
    13   44    7 1    
    14   45    7 1    
    15   46    7 1    
    16    9    8 1    
    17   11    8 ar   
    18   10    9 1    
    19   47   10 1    
    20   48   10 1    
    21   49   10 1    
    22   12   11 ar   
    23   29   11 1    
    24   13   12 1    
    25   14   13 1    
    26   30   13 1    
    27   31   13 1    
    28   15   14 2    
    29   23   14 1    
    30   16   15 1    
    31   17   16 ar   
    32   19   16 ar   
    33   18   17 1    
    34   22   17 ar   
    35   32   18 1    
    36   33   18 1    
    37   20   19 ar   
    38   23   19 1    
    39   21   20 ar   
    40   22   21 ar   
    41   34   21 1    
    42   24   23 1    
    43   25   24 1    
    44   35   24 1    
    45   36   24 1    
    46   26   25 1    
    47   37   25 1    
    48   38   25 1    
    49   27   26 1    
    50   39   26 1    
    51   40   26 1    
    52   50   27 1    
    53   51   27 1    
    54   52   27 1    
@<TRIPOS>SUBSTRUCTURE
     1 PU31224     1 GROUP   
@<TRIPOS>SET

