#    Name: 4mle_VO1_1_INTS_M
#    Modification time : Tue Mar 25 12:15:16 2014

@<TRIPOS>MOLECULE
4mle_VO1_1_INTS_M
   52     0     9     0     0
SMALL
NO_CHARGES


@<TRIPOS>ATOM
      1 N          37.8855   15.5125   58.5515 N.am      2 SEC2        0.0000 
      2 N          37.8750   16.7350   59.4420 N.am      8 SEL2        0.0000 
      3 N          37.8960   14.2900   57.6610 N.am      5 SEP2        0.0000 
      4 CA         33.8865   17.5545   59.8660 C.3       3 GLC5        0.0000 
      5 CA         35.9490   17.6400   60.3660 C.3       9 GLL5        0.0000 
      6 CA         31.8240   17.4690   59.3660 C.3       6 GLP5        0.0000 
      7 CA         36.8500   15.1425   61.2765 C.3       3 GLC5        0.0000 
      8 CA         36.8230   17.1170   61.7590 C.3       9 GLL5        0.0000 
      9 CA         36.8770   13.1680   60.7940 C.3       6 GLP5        0.0000 
     10 CA         37.3505   18.7920   62.2200 C.3       3 GLC5        0.0000 
     11 CA         37.8780   20.4670   62.6810 C.3       6 GLP5        0.0000 
     12 CA         37.7730   16.3725   56.8250 C.3       3 GLC5        0.0000 
     13 CA         36.2580   17.6520   57.8270 C.3       9 GLL5        0.0000 
     14 CA         39.2880   15.0930   55.8230 C.3       6 GLP5        0.0000 
     15 O          39.9265   15.0750   59.9680 O.2       1 ALC1        0.0000 
     16 O          39.2190   15.9460   61.2060 O.2       7 ALL1        0.0000 
     17 O          40.6340   14.2040   58.7300 O.2       4 ALP1        0.0000 
     18 CA         38.2590   14.4315   61.6480 C.3       3 GLC5        0.0000 
     19 CA         39.6410   15.6950   62.5020 C.3       9 GLL5        0.0000 
     20 CA         39.1285   18.0160   64.2050 C.3       3 GLC5        0.0000 
     21 CA         39.2500   15.9220   64.7800 C.3       9 GLL5        0.0000 
     22 CA         39.0070   20.1100   63.6300 C.3       6 GLP5        0.0000 
     23 CA         42.9470   15.5145   61.1255 C.3       3 GLC5        0.0000 
     24 CA         42.8590   13.9820   62.0850 C.3       9 GLL5        0.0000 
     25 CA         43.0350   17.0470   60.1660 C.3       6 GLP5        0.0000 
     26 CA         44.3685   13.3125   63.5755 C.3       3 GLC5        0.0000 
     27 CA         45.8780   12.6430   65.0660 C.3       6 GLP5        0.0000 
     28 CA         43.4390    7.7345   61.9760 C.3       3 GLC5        0.0000 
     29 CA         42.6390    9.6740   62.2920 C.3       9 GLL5        0.0000 
     30 CA         44.2390    5.7950   61.6600 C.3       6 GLP5        0.0000 
     31 CA         41.8095    8.4825   60.9720 C.3       3 GLC5        0.0000 
     32 CA         40.9800    7.2910   59.6520 C.3       6 GLP5        0.0000 
     33 CA         39.7135    9.3530   62.5770 C.3       3 GLC5        0.0000 
     34 CA         41.4850   10.4430   62.4760 C.3       9 GLL5        0.0000 
     35 CA         37.9420    8.2630   62.6780 C.3       6 GLP5        0.0000 
     36 CA         37.3455   19.0028   60.5218 C.3       3 GLC5        0.0000 
     37 CA         36.6650   17.3570   59.2230 C.3       9 GLL5        0.0000 
     38 CA         38.3840   20.5070   61.2490 C.3       6 GLP5        0.0000 
     39 CA         34.9730   16.9652   62.1083 C.3       3 GLC5        0.0000 
     40 CA         33.5600   16.5520   63.1540 C.3       6 GLP5        0.0000 
     41 CA         36.0068   15.6411   58.7294 C.3       3 GLC5        0.0000 
     42 CA         35.7310   13.7070   58.6480 C.3       6 GLP5        0.0000 
     43 CA         41.5831   16.5221   62.2593 C.3       3 GLC5        0.0000 
     44 CA         41.2320   14.7770   64.0470 C.3       9 GLL5        0.0000 
     45 CA         42.4320   17.9810   61.1850 C.3       6 GLP5        0.0000 
     46 CA         39.9832   11.7702   63.4510 C.3       3 GLC5        0.0000 
     47 CA         41.5520   11.8400   62.4080 C.3       9 GLL5        0.0000 
     48 CA         38.4480   12.3990   64.4600 C.3       6 GLP5        0.0000 
     49 CA         41.0427   10.5152   60.5445 C.3       3 GLC5        0.0000 
     50 CA         40.5670    9.8890   58.6470 C.3       6 GLP5        0.0000 
     51 CA         39.3676   13.8614   64.2965 C.3       3 GLC5        0.0000 
     52 CA         40.8320   15.0040   62.7380 C.3       9 GLL5        0.0000 
@<TRIPOS>BOND
@<TRIPOS>SUBSTRUCTURE
     1 ALC1       15 GROUP        1 X    ALC  0     ROOT ALC X 1
     2 SEC2        1 GROUP        1 X    SEC  0     **** SEC X 2
     3 GLC5        4 GROUP        1 X    GLC  0     **** GLC X 6
     4 ALP1       17 GROUP        1 Y    ALP  0     ROOT ALP Y 8
     5 SEP2        3 GROUP        1 Y    SEP  0     **** SEP Y 9
     6 GLP5        6 GROUP        1 Y    GLP  0     **** GLP Y 13
     7 ALL1       16 GROUP        1 Z    ALL  0     ROOT ALL Z 15
     8 SEL2        2 GROUP        1 Z    SEL  0     **** SEL Z 16
     9 GLL5        5 GROUP        1 Z    GLL  0     **** GLL Z 20
@<TRIPOS>SET

