#    Name: 4mle_VO1_1_ligand
#    Modification time : Tue Mar 25 12:15:16 2014

@<TRIPOS>MOLECULE
4mle_VO1_1_ligand
   36    38     1     0     0
SMALL
NO_CHARGES


@<TRIPOS>ATOM
      1 C1         38.0920   16.5420   60.7690 C.2       1 VO1502      0.0000 
      2 N2         37.8750   16.7350   59.4420 N.2       1 VO1502      0.0000 
      3 C3         36.6650   17.3570   59.2230 C.2       1 VO1502      0.0000 
      4 C4         35.9490   17.6400   60.3660 C.2       1 VO1502      0.0000 
      5 S5         36.8230   17.1170   61.7590 S.3       1 VO1502      0.0000 
      6 C6         36.2580   17.6520   57.8270 C.3       1 VO1502      0.0000 
      7 N7         39.2190   15.9460   61.2060 N.pl3     1 VO1502      0.0000 
      8 C8         39.6410   15.6950   62.5020 C.ar      1 VO1502      0.0000 
      9 N9         38.8580   16.1430   63.5060 N.ar      1 VO1502      0.0000 
     10 C10        39.2500   15.9220   64.7800 C.ar      1 VO1502      0.0000 
     11 C11        40.4300   15.2470   65.0850 C.ar      1 VO1502      0.0000 
     12 C12        41.2320   14.7770   64.0470 C.ar      1 VO1502      0.0000 
     13 C13        40.8320   15.0040   62.7380 C.ar      1 VO1502      0.0000 
     14 O14        41.5980   14.5520   61.6900 O.3       1 VO1502      0.0000 
     15 C15        42.8590   13.9820   62.0850 C.3       1 VO1502      0.0000 
     16 C16        42.7760   12.4720   62.1520 C.ar      1 VO1502      0.0000 
     17 C17        43.9350   11.6950   61.9660 C.ar      1 VO1502      0.0000 
     18 C18        43.8650   10.2980   62.0350 C.ar      1 VO1502      0.0000 
     19 C19        42.6390    9.6740   62.2920 C.ar      1 VO1502      0.0000 
     20 C20        41.4850   10.4430   62.4760 C.ar      1 VO1502      0.0000 
     21 C21        41.5520   11.8400   62.4080 C.ar      1 VO1502      0.0000 
     22 H          35.1436   18.0283   60.5525 H         1 VO1502      0.0000 
     23 H          39.9195   15.6014   60.4251 H         1 VO1502      0.0000 
     24 H          38.6595   16.2624   65.5776 H         1 VO1502      0.0000 
     25 H          40.7041   15.0984   66.0580 H         1 VO1502      0.0000 
     26 H          42.0969   14.2755   64.2486 H         1 VO1502      0.0000 
     27 H          43.1697   14.3526   63.0747 H         1 VO1502      0.0000 
     28 H          43.6563   14.2504   61.3739 H         1 VO1502      0.0000 
     29 H          44.8314   12.1562   61.7796 H         1 VO1502      0.0000 
     30 H          44.7092    9.7348   61.8977 H         1 VO1502      0.0000 
     31 H          42.5867    8.6505   62.3455 H         1 VO1502      0.0000 
     32 H          40.5865    9.9826   62.6614 H         1 VO1502      0.0000 
     33 H          40.7050   12.4011   62.5456 H         1 VO1502      0.0000 
     34 H          36.9122   18.2536   57.3687 H         1 VO1502      0.0000 
     35 H          36.1893   16.8200   57.2765 H         1 VO1502      0.0000 
     36 H          35.3668   18.1039   57.7876 H         1 VO1502      0.0000 
@<TRIPOS>BOND
     1    2    1 2    
     2    5    1 1    
     3    7    1 1    
     4    3    2 1    
     5    4    3 2    
     6    6    3 1    
     7    5    4 1    
     8   22    4 1    
     9   34    6 1    
    10   35    6 1    
    11   36    6 1    
    12    8    7 1    
    13   23    7 1    
    14    9    8 ar   
    15   13    8 ar   
    16   10    9 ar   
    17   11   10 ar   
    18   24   10 1    
    19   12   11 ar   
    20   25   11 1    
    21   13   12 ar   
    22   26   12 1    
    23   14   13 1    
    24   15   14 1    
    25   16   15 1    
    26   27   15 1    
    27   28   15 1    
    28   17   16 ar   
    29   21   16 ar   
    30   18   17 ar   
    31   29   17 1    
    32   19   18 ar   
    33   30   18 1    
    34   20   19 ar   
    35   31   19 1    
    36   21   20 ar   
    37   32   20 1    
    38   33   21 1    
@<TRIPOS>SUBSTRUCTURE
     1 VO1502      1 GROUP   
@<TRIPOS>SET

