#    Name: 4eue_NAI_1_INTS_M
#    Modification time : Mon Mar 24 18:40:23 2014

@<TRIPOS>MOLECULE
4eue_NAI_1_INTS_M
   89     0     9     0     0
SMALL
NO_CHARGES


@<TRIPOS>ATOM
      1 N          35.9060   18.5915   22.5560 N.am      2 SEC2        0.0000 
      2 N          36.7940   18.9660   23.6580 N.am      8 SEL2        0.0000 
      3 N          35.0180   18.2170   21.4540 N.am      5 SEP2        0.0000 
      4 CA         40.7980   17.2965   21.5825 C.3       3 GLC5        0.0000 
      5 CA         39.0410   17.7610   20.8060 C.3       9 GLL5        0.0000 
      6 CA         42.5550   16.8320   22.3590 C.3       6 GLP5        0.0000 
      7 N          41.3235   17.4500   19.2500 N.am      2 SEC2        0.0000 
      8 N          39.8370   17.4840   18.5290 N.am      8 SEL2        0.0000 
      9 N          42.8100   17.4160   19.9710 N.am      5 SEP2        0.0000 
     10 N          35.6830   19.3740   17.4165 N.am      2 SEC2        0.0000 
     11 N          36.8270   18.3560   17.9730 N.am      8 SEL2        0.0000 
     12 N          34.5390   20.3920   16.8600 N.am      5 SEP2        0.0000 
     13 O          35.6310   17.9915   17.7425 O.2       1 ALC1        0.0000 
     14 O          36.8270   18.3560   17.9730 O.2       7 ALL1        0.0000 
     15 O          34.4350   17.6270   17.5120 O.2       4 ALP1        0.0000 
     16 N          37.0325   15.2755   15.5665 N.am      2 SEC2        0.0000 
     17 N          37.0240   15.8090   17.0800 N.am      8 SEL2        0.0000 
     18 N          37.0410   14.7420   14.0530 N.am      5 SEP2        0.0000 
     19 O          35.7815   15.4385   17.5710 O.2       1 ALC1        0.0000 
     20 O          37.0240   15.8090   17.0800 O.2       7 ALL1        0.0000 
     21 O          34.5390   15.0680   18.0620 O.2       4 ALP1        0.0000 
     22 CA         39.1265   18.4935   16.8375 C.3       3 GLC5        0.0000 
     23 CA         39.1960   16.7220   17.4860 C.3       9 GLL5        0.0000 
     24 CA         39.0570   20.2650   16.1890 C.3       6 GLP5        0.0000 
     25 CA         42.7530   13.6350   16.9730 C.3       3 GLC5        0.0000 
     26 CA         41.1580   14.3470   15.5970 C.3       9 GLL5        0.0000 
     27 CA         44.3480   12.9230   18.3490 C.3       6 GLP5        0.0000 
     28 CA         41.3875   13.3115   12.2860 C.3       3 GLC5        0.0000 
     29 CA         41.5620   13.9730   14.3760 C.3       9 GLL5        0.0000 
     30 CA         41.2130   12.6500   10.1960 C.3       6 GLP5        0.0000 
     31 O          42.9590   12.5265   12.9300 O.2       1 ALC1        0.0000 
     32 O          42.3660   12.9120   14.3040 O.2       7 ALL1        0.0000 
     33 O          43.5520   12.1410   11.5560 O.2       4 ALP1        0.0000 
     34 N          41.7530   14.7025   11.9140 N.am      2 SEC2        0.0000 
     35 N          41.1720   14.6180   13.2640 N.am      8 SEL2        0.0000 
     36 N          42.3340   14.7870   10.5640 N.am      5 SEP2        0.0000 
     37 CA         38.5350   16.3805   13.3770 C.3       3 GLC5        0.0000 
     38 CA         40.3220   15.7210   13.3700 C.3       9 GLL5        0.0000 
     39 CA         36.7480   17.0400   13.3840 C.3       6 GLP5        0.0000 
     40 CA         39.2270   14.1185   13.7060 C.3       3 GLC5        0.0000 
     41 CA         38.1320   12.5160   14.0420 C.3       6 GLP5        0.0000 
     42 CA         41.6725   16.3825   12.3155 C.3       3 GLC5        0.0000 
     43 CA         43.0230   17.0440   11.2610 C.3       6 GLP5        0.0000 
     44 CA         42.1445   16.3050   14.2540 C.3       3 GLC5        0.0000 
     45 CA         43.9670   16.8890   15.1380 C.3       6 GLP5        0.0000 
     46 N          39.3130   19.7760   26.5695 N.am      2 SEC2        0.0000 
     47 N          40.0350   20.4160   25.6840 N.am      8 SEL2        0.0000 
     48 N          38.5910   19.1360   27.4550 N.am      5 SEP2        0.0000 
     49 N          38.1230   22.5490   23.4560 N.am      2 SEC2        0.0000 
     50 N          38.8690   21.3660   23.6210 N.am      8 SEL2        0.0000 
     51 N          37.3770   23.7320   23.2910 N.am      5 SEP2        0.0000 
     52 CA         43.7495   23.7940   22.5695 C.3       3 GLC5        0.0000 
     53 CA         42.9040   21.8860   22.6100 C.3       9 GLL5        0.0000 
     54 CA         44.5950   25.7020   22.5290 C.3       6 GLP5        0.0000 
     55 CA         43.2545   18.8170   22.6195 C.3       3 GLC5        0.0000 
     56 CA         43.9540   20.8020   22.8800 C.3       9 GLL5        0.0000 
     57 CA         45.4475   19.2595   22.6825 C.3       3 GLC5        0.0000 
     58 CA         46.9410   17.7170   22.4850 C.3       6 GLP5        0.0000 
     59 N          46.5020   21.2525   22.7325 N.am      2 SEC2        0.0000 
     60 N          45.1430   21.1270   22.1450 N.am      8 SEL2        0.0000 
     61 N          47.8610   21.3780   23.3200 N.am      5 SEP2        0.0000 
     62 O          44.9275   19.8765   21.0615 O.2       1 ALC1        0.0000 
     63 O          45.1430   21.1270   22.1450 O.2       7 ALL1        0.0000 
     64 O          44.7120   18.6260   19.9780 O.2       4 ALP1        0.0000 
     65 N          46.6935   20.9305   24.0150 N.am      2 SEC2        0.0000 
     66 N          45.5260   20.4830   24.7100 N.am      8 SEL2        0.0000 
     67 CA         42.1805   23.6075   25.0065 C.3       3 GLC5        0.0000 
     68 CA         44.0360   22.4180   24.5590 C.3       9 GLL5        0.0000 
     69 CA         40.3250   24.7970   25.4540 C.3       6 GLP5        0.0000 
     70 CA         44.3155   24.0600   23.5440 C.3       3 GLC5        0.0000 
     71 N          40.9085   22.9360   31.3365 N.am      2 SEC2        0.0000 
     72 N          41.8140   22.2310   30.2610 N.am      8 SEL2        0.0000 
     73 N          40.0030   23.6410   32.4120 N.am      5 SEP2        0.0000 
     74 CA         44.5865   24.8060   24.5025 C.3       3 GLC5        0.0000 
     75 CA         44.5780   23.9100   26.4760 C.3       9 GLL5        0.0000 
     76 CA         46.4655   24.4605   25.7575 C.3       3 GLC5        0.0000 
     77 CA         48.3530   25.0110   25.0390 C.3       6 GLP5        0.0000 
     78 CA         38.5918   19.0110   17.6440 C.3       3 GLC5        0.0000 
     79 CA         38.7850   18.0730   19.3300 C.3       9 GLL5        0.0000 
     80 CA         39.4915   13.6515   14.7011 C.3       3 GLC5        0.0000 
     81 CA         42.4090   15.8380   15.2491 C.3       3 GLC5        0.0000 
     82 CA         42.3728   22.1990   20.4862 C.3       3 GLC5        0.0000 
     83 CA         41.5330   21.2320   22.4030 C.3       9 GLL5        0.0000 
     84 CA         42.5270   22.8390   18.4660 C.3       6 GLP5        0.0000 
     85 CA         45.8730   23.7475   28.3181 C.3       3 GLC5        0.0000 
     86 CA         44.3780   24.3510   27.7840 C.3       9 GLL5        0.0000 
     87 CA         47.5090   23.5160   29.3050 C.3       6 GLP5        0.0000 
     88 CA         43.8370   25.9505   27.2356 C.3       3 GLC5        0.0000 
     89 CA         43.4370   27.9220   27.1400 C.3       6 GLP5        0.0000 
@<TRIPOS>BOND
@<TRIPOS>SUBSTRUCTURE
     1 ALC1       13 GROUP        1 X    ALC  0     ROOT ALC X 1
     2 SEC2        1 GROUP        1 X    SEC  0     **** SEC X 2
     3 GLC5        4 GROUP        1 X    GLC  0     **** GLC X 6
     4 ALP1       15 GROUP        1 Y    ALP  0     ROOT ALP Y 8
     5 SEP2        3 GROUP        1 Y    SEP  0     **** SEP Y 9
     6 GLP5        6 GROUP        1 Y    GLP  0     **** GLP Y 13
     7 ALL1       14 GROUP        1 Z    ALL  0     ROOT ALL Z 15
     8 SEL2        2 GROUP        1 Z    SEL  0     **** SEL Z 16
     9 GLL5        5 GROUP        1 Z    GLL  0     **** GLL Z 20
@<TRIPOS>SET

