#    Name: 4eue_NAI_1_ligand
#    Modification time : Mon Mar 24 18:40:24 2014

@<TRIPOS>MOLECULE
4eue_NAI_1_ligand
   71    75     1     0     0
SMALL
NO_CHARGES


@<TRIPOS>ATOM
      1 PA         38.0010   18.2760   23.1780 P.3       1 NAI1001     0.0000 
      2 O1A        36.7940   18.9660   23.6580 O.co2     1 NAI1001     0.0000 
      3 O2A        38.0940   16.8040   23.3230 O.co2     1 NAI1001     0.0000 
      4 O5B        38.2220   18.6090   21.6210 O.3       1 NAI1001     0.0000 
      5 C5B        39.0410   17.7610   20.8060 C.3       1 NAI1001     0.0000 
      6 C4B        38.7850   18.0730   19.3300 C.3       1 NAI1001     0.0000 
      7 O4B        39.8370   17.4840   18.5290 O.3       1 NAI1001     0.0000 
      8 C3B        37.4680   17.4410   18.8680 C.3       1 NAI1001     0.0000 
      9 O3B        36.8270   18.3560   17.9730 O.3       1 NAI1001     0.0000 
     10 C2B        37.9360   16.2020   18.1230 C.3       1 NAI1001     0.0000 
     11 O2B        37.0240   15.8090   17.0800 O.3       1 NAI1001     0.0000 
     12 C1B        39.1960   16.7220   17.4860 C.3       1 NAI1001     0.0000 
     13 N9A        40.0610   15.6150   17.0170 N.pl3     1 NAI1001     0.0000 
     14 C8A        40.7390   14.5940   17.8160 C.2       1 NAI1001     0.0000 
     15 N7A        41.4250   13.8150   16.7940 N.2       1 NAI1001     0.0000 
     16 C5A        41.1580   14.3470   15.5970 C.ar      1 NAI1001     0.0000 
     17 C6A        41.5620   13.9730   14.3760 C.ar      1 NAI1001     0.0000 
     18 N6A        42.3660   12.9120   14.3040 N.pl3     1 NAI1001     0.0000 
     19 N1A        41.1720   14.6180   13.2640 N.ar      1 NAI1001     0.0000 
     20 C2A        40.3220   15.7210   13.3700 C.ar      1 NAI1001     0.0000 
     21 N3A        39.9230   16.1060   14.6540 N.ar      1 NAI1001     0.0000 
     22 C4A        40.3420   15.4140   15.7340 C.ar      1 NAI1001     0.0000 
     23 O3         39.3480   18.8560   23.8650 O.3       1 NAI1001     0.0000 
     24 PN         39.7770   20.3740   24.2270 P.3       1 NAI1001     0.0000 
     25 O1N        40.0350   20.4160   25.6840 O.co2     1 NAI1001     0.0000 
     26 O2N        38.8690   21.3660   23.6210 O.co2     1 NAI1001     0.0000 
     27 O5D        41.2150   20.3790   23.5100 O.3       1 NAI1001     0.0000 
     28 C5D        41.5330   21.2320   22.4030 C.3       1 NAI1001     0.0000 
     29 C4D        42.9040   21.8860   22.6100 C.3       1 NAI1001     0.0000 
     30 O4D        42.8550   22.7210   23.7920 O.3       1 NAI1001     0.0000 
     31 C3D        43.9540   20.8020   22.8800 C.3       1 NAI1001     0.0000 
     32 O3D        45.1430   21.1270   22.1450 O.3       1 NAI1001     0.0000 
     33 C2D        44.1940   20.9170   24.3760 C.3       1 NAI1001     0.0000 
     34 O2D        45.5260   20.4830   24.7100 O.3       1 NAI1001     0.0000 
     35 C1D        44.0360   22.4180   24.5590 C.3       1 NAI1001     0.0000 
     36 N1N        43.8020   22.8530   25.9650 N.pl3     1 NAI1001     0.0000 
     37 C2N        42.8150   22.2510   26.7820 C.2       1 NAI1001     0.0000 
     38 C3N        42.6270   22.6970   28.0960 C.2       1 NAI1001     0.0000 
     39 C7N        41.6520   22.1150   28.9160 C.2       1 NAI1001     0.0000 
     40 O7N        41.8140   22.2310   30.2610 O.2       1 NAI1001     0.0000 
     41 N7N        40.6040   21.5260   28.3220 N.am      1 NAI1001     0.0000 
     42 C4N        43.4140   23.7450   28.5890 C.3       1 NAI1001     0.0000 
     43 C5N        44.3780   24.3510   27.7840 C.2       1 NAI1001     0.0000 
     44 C6N        44.5780   23.9100   26.4760 C.2       1 NAI1001     0.0000 
     45 H          38.8158   16.7030   20.9684 H         1 NAI1001     0.0000 
     46 H          40.1059   17.9173   21.0013 H         1 NAI1001     0.0000 
     47 H          38.7326   19.1223   19.1898 H         1 NAI1001     0.0000 
     48 H          36.9109   17.1723   19.6968 H         1 NAI1001     0.0000 
     49 H          38.1789   15.4546   18.8013 H         1 NAI1001     0.0000 
     50 H          38.9214   17.3634   16.6736 H         1 NAI1001     0.0000 
     51 H          40.7317   14.4827   18.6884 H         1 NAI1001     0.0000 
     52 H          42.6314   12.5010   15.1762 H         1 NAI1001     0.0000 
     53 H          42.6314   12.6226   13.3843 H         1 NAI1001     0.0000 
     54 H          40.0076   16.2210   12.5532 H         1 NAI1001     0.0000 
     55 H          40.7950   22.0359   22.2859 H         1 NAI1001     0.0000 
     56 H          41.5698   20.6737   21.4588 H         1 NAI1001     0.0000 
     57 H          43.1767   22.4300   21.7524 H         1 NAI1001     0.0000 
     58 H          43.5447   19.8725   22.6555 H         1 NAI1001     0.0000 
     59 H          43.4271   20.4277   24.8811 H         1 NAI1001     0.0000 
     60 H          44.8779   22.9096   24.1348 H         1 NAI1001     0.0000 
     61 H          42.2431   21.4913   26.4065 H         1 NAI1001     0.0000 
     62 H          39.9399   21.0919   28.9308 H         1 NAI1001     0.0000 
     63 H          40.5803   21.5735   27.3234 H         1 NAI1001     0.0000 
     64 H          43.9171   23.3962   29.5753 H         1 NAI1001     0.0000 
     65 H          42.7114   24.5664   29.0124 H         1 NAI1001     0.0000 
     66 H          44.9433   25.1255   28.1558 H         1 NAI1001     0.0000 
     67 H          45.2875   24.3513   25.8835 H         1 NAI1001     0.0000 
     68 H          36.1321   17.8129   17.5017 H         1 NAI1001     0.0000 
     69 H          36.1753   15.5737   17.5536 H         1 NAI1001     0.0000 
     70 H          45.1676   20.4718   21.3899 H         1 NAI1001     0.0000 
     71 H          45.5126   20.3458   25.7004 H         1 NAI1001     0.0000 
@<TRIPOS>BOND
     1    2    1 ar   
     2    3    1 ar   
     3    4    1 1    
     4   23    1 1    
     5    5    4 1    
     6    6    5 1    
     7   45    5 1    
     8   46    5 1    
     9    7    6 1    
    10    8    6 1    
    11   47    6 1    
    12   12    7 1    
    13    9    8 1    
    14   10    8 1    
    15   48    8 1    
    16   68    9 1    
    17   11   10 1    
    18   12   10 1    
    19   49   10 1    
    20   69   11 1    
    21   13   12 1    
    22   50   12 1    
    23   14   13 1    
    24   22   13 1    
    25   15   14 2    
    26   51   14 1    
    27   16   15 1    
    28   17   16 ar   
    29   22   16 ar   
    30   18   17 1    
    31   19   17 ar   
    32   52   18 1    
    33   53   18 1    
    34   20   19 ar   
    35   21   20 ar   
    36   54   20 1    
    37   22   21 ar   
    38   24   23 1    
    39   25   24 ar   
    40   26   24 ar   
    41   27   24 1    
    42   28   27 1    
    43   29   28 1    
    44   55   28 1    
    45   56   28 1    
    46   30   29 1    
    47   31   29 1    
    48   57   29 1    
    49   35   30 1    
    50   32   31 1    
    51   33   31 1    
    52   58   31 1    
    53   70   32 1    
    54   34   33 1    
    55   35   33 1    
    56   59   33 1    
    57   71   34 1    
    58   36   35 1    
    59   60   35 1    
    60   37   36 1    
    61   44   36 1    
    62   38   37 2    
    63   61   37 1    
    64   39   38 1    
    65   42   38 1    
    66   40   39 2    
    67   41   39 am   
    68   62   41 1    
    69   63   41 1    
    70   43   42 1    
    71   64   42 1    
    72   65   42 1    
    73   44   43 2    
    74   66   43 1    
    75   67   44 1    
@<TRIPOS>SUBSTRUCTURE
     1 NAI1001     1 GROUP   
@<TRIPOS>SET

