#    Name: 2hvc_LGD_1_INTS_M
#    Modification time : Tue Mar 25 17:05:43 2014

@<TRIPOS>MOLECULE
2hvc_LGD_1_INTS_M
   96     0     9     0     0
SMALL
NO_CHARGES


@<TRIPOS>ATOM
      1 O           1.1220   25.0000    5.2125 O.2       1 ALC1        0.0000 
      2 O           1.9340   25.8520    4.6770 O.2       7 ALL1        0.0000 
      3 O           0.3100   24.1480    5.7480 O.2       4 ALP1        0.0000 
      4 CA          5.7810   25.8270    4.5600 C.3       3 GLC5        0.0000 
      5 CA          4.2310   26.7400    4.9300 C.3       9 GLL5        0.0000 
      6 CA          7.3310   24.9140    4.1900 C.3       6 GLP5        0.0000 
      7 CA          4.1130   26.8960    3.0645 C.3       3 GLC5        0.0000 
      8 CA          3.9950   27.0520    1.1990 C.3       6 GLP5        0.0000 
      9 CA          3.5860   30.7745    7.4950 C.3       3 GLC5        0.0000 
     10 CA          4.4960   29.9010    6.3800 C.3       9 GLL5        0.0000 
     11 CA          2.6760   31.6480    8.6100 C.3       6 GLP5        0.0000 
     12 CA          7.0085   28.4015    6.4645 C.3       3 GLC5        0.0000 
     13 CA          6.0420   28.8460    5.2560 C.3       9 GLL5        0.0000 
     14 CA          7.9750   27.9570    7.6730 C.3       6 GLP5        0.0000 
     15 CA          7.0930   28.3030    3.8100 C.3       3 GLC5        0.0000 
     16 CA          8.1440   27.7600    2.3640 C.3       6 GLP5        0.0000 
     17 CA          2.1555   30.6425    6.7825 C.3       3 GLC5        0.0000 
     18 CA          1.6350   29.6370    4.9550 C.3       9 GLL5        0.0000 
     19 CA         -1.0770   29.1210    2.6950 C.3       3 GLC5        0.0000 
     20 CA         -0.6400   28.6270    4.7170 C.3       9 GLL5        0.0000 
     21 CA         -1.5140   29.6150    0.6730 C.3       6 GLP5        0.0000 
     22 CA         -0.4980   25.4875    3.6860 C.3       3 GLC5        0.0000 
     23 CA         -0.0610   27.3060    4.6500 C.3       9 GLL5        0.0000 
     24 CA         -0.9350   23.6690    2.7220 C.3       6 GLP5        0.0000 
     25 CA          0.8100   25.6075    3.2840 C.3       3 GLC5        0.0000 
     26 CA          1.3690   27.1430    4.7380 C.3       9 GLL5        0.0000 
     27 CA          0.2510   24.0720    1.8300 C.3       6 GLP5        0.0000 
     28 CA         -3.4660   30.4100    4.0815 C.3       3 GLC5        0.0000 
     29 CA         -1.8550   31.5670    4.9150 C.3       9 GLL5        0.0000 
     30 CA         -5.0770   29.2530    3.2480 C.3       6 GLP5        0.0000 
     31 CA         -1.1140   33.4700    5.8285 C.3       3 GLC5        0.0000 
     32 CA         -0.3730   35.3730    6.7420 C.3       6 GLP5        0.0000 
     33 CA          0.8875   32.5460    6.7920 C.3       3 GLC5        0.0000 
     34 CA          0.5070   32.4560    4.7940 C.3       9 GLL5        0.0000 
     35 CA          1.2680   32.6360    8.7900 C.3       6 GLP5        0.0000 
     36 CA         -4.3585   30.4825    4.5975 C.3       3 GLC5        0.0000 
     37 CA         -3.6400   31.7120    5.9470 C.3       9 GLL5        0.0000 
     38 CA         -4.8650   33.1360    5.6985 C.3       3 GLC5        0.0000 
     39 CA         -6.0900   34.5600    5.4500 C.3       6 GLP5        0.0000 
     40 CA         -4.8570   30.4925    6.9950 C.3       3 GLC5        0.0000 
     41 CA         -6.0740   29.2730    8.0430 C.3       6 GLP5        0.0000 
     42 CA         -3.7965   29.7105    4.9495 C.3       3 GLC5        0.0000 
     43 CA         -2.5160   30.1680    6.6510 C.3       9 GLL5        0.0000 
     44 CA         -2.7920   28.1645    6.4460 C.3       3 GLC5        0.0000 
     45 CA         -3.0680   26.1610    6.2410 C.3       6 GLP5        0.0000 
     46 CA         -1.5255   28.9840    7.6585 C.3       3 GLC5        0.0000 
     47 CA         -0.5350   27.8000    8.6660 C.3       6 GLP5        0.0000 
     48 CA         -3.2800   29.2740    8.1685 C.3       3 GLC5        0.0000 
     49 CA         -4.0440   28.3800    9.6860 C.3       6 GLP5        0.0000 
     50 CA         -1.0125   30.4935    8.3260 C.3       3 GLC5        0.0000 
     51 CA         -1.9250   32.0570    7.2650 C.3       9 GLL5        0.0000 
     52 CA         -0.1000   28.9300    9.3870 C.3       6 GLP5        0.0000 
     53 CA         -0.3285   32.3465    8.0275 C.3       3 GLC5        0.0000 
     54 CA         -1.1490   33.7150    7.0035 C.3       3 GLC5        0.0000 
     55 CA         -2.8235   33.1280    8.6000 C.3       3 GLC5        0.0000 
     56 CA         -3.7220   34.1990    9.9350 C.3       6 GLP5        0.0000 
     57 CA         -0.8055   33.5270    1.3680 C.3       3 GLC5        0.0000 
     58 CA          0.1470   32.8420    2.5910 C.3       9 GLL5        0.0000 
     59 CA         -1.7580   34.2120    0.1450 C.3       6 GLP5        0.0000 
     60 CA          0.2065   34.8550    2.2085 C.3       3 GLC5        0.0000 
     61 CA          0.2660   36.8680    1.8260 C.3       6 GLP5        0.0000 
     62 N           2.7325   23.4760    4.9860 N.am      2 SEC2        0.0000 
     63 N           3.7340   24.4790    4.7060 N.am      8 SEL2        0.0000 
     64 N           1.7310   22.4730    5.2660 N.am      5 SEP2        0.0000 
     65 N           4.4130   23.4220    4.3040 N.am      2 SEC2        0.0000 
     66 N           5.0920   22.3650    3.9020 N.am      5 SEP2        0.0000 
     67 CA          4.2220   28.1137    7.1393 C.3       3 GLC5        0.0000 
     68 CA          4.7600   29.3240    5.1990 C.3       9 GLL5        0.0000 
     69 CA          3.8160   26.6150    8.4890 C.3       6 GLP5        0.0000 
     70 CA          6.0945   30.0063    6.9352 C.3       3 GLC5        0.0000 
     71 CA          7.5610   30.4000    8.0810 C.3       6 GLP5        0.0000 
     72 CA          4.7157   28.9368    2.9930 C.3       3 GLC5        0.0000 
     73 CA          4.6510   30.2950    4.2880 C.3       9 GLL5        0.0000 
     74 CA          4.5360   28.3350    1.2530 C.3       6 GLP5        0.0000 
     75 CA          6.5675   30.4535    4.1384 C.3       3 GLC5        0.0000 
     76 CA          8.1090   31.2170    3.5190 C.3       6 GLP5        0.0000 
     77 CA          5.5465   31.3906    5.6977 C.3       3 GLC5        0.0000 
     78 CA          6.1000   33.0190    6.4900 C.3       6 GLP5        0.0000 
     79 CA          3.4664   27.2464    6.7116 C.3       3 GLC5        0.0000 
     80 CA          2.2600   28.3290    4.9030 C.3       9 GLL5        0.0000 
     81 CA         -1.7092   27.0637    5.4622 C.3       3 GLC5        0.0000 
     82 CA          0.6635   27.8178    2.6310 C.3       3 GLC5        0.0000 
     83 CA          0.6730   28.4110    0.5680 C.3       6 GLP5        0.0000 
     84 CA          1.6900   35.1512    3.0720 C.3       3 GLC5        0.0000 
     85 CA          0.4080   34.3030    4.1280 C.3       9 GLL5        0.0000 
     86 CA          0.8310   37.2530    3.0450 C.3       6 GLP5        0.0000 
     87 CA          0.7090   35.4785    3.4912 C.3       3 GLC5        0.0000 
     88 CA          0.7660   33.1050    3.7470 C.3       9 GLL5        0.0000 
     89 CA          2.9950   33.8185    4.2696 C.3       3 GLC5        0.0000 
     90 CA          1.9790   33.1860    3.4670 C.3       9 GLL5        0.0000 
     91 CA          4.7070   34.1920    4.8370 C.3       6 GLP5        0.0000 
     92 CA          0.6614   31.9239    1.5800 C.3       3 GLC5        0.0000 
     93 CA          0.5630   30.8540    0.0610 C.3       6 GLP5        0.0000 
     94 CA          1.8509   33.7524    1.8405 C.3       3 GLC5        0.0000 
     95 CA          2.9420   34.5110    0.5820 C.3       6 GLP5        0.0000 
     96 CA          0.1194   34.3076    5.4230 C.3       3 GLC5        0.0000 
@<TRIPOS>BOND
@<TRIPOS>SUBSTRUCTURE
     1 ALC1        1 GROUP        1 X    ALC  0     ROOT ALC X 1
     2 SEC2       62 GROUP        1 X    SEC  0     **** SEC X 2
     3 GLC5        4 GROUP        1 X    GLC  0     **** GLC X 6
     4 ALP1        3 GROUP        1 Y    ALP  0     ROOT ALP Y 8
     5 SEP2       64 GROUP        1 Y    SEP  0     **** SEP Y 9
     6 GLP5        6 GROUP        1 Y    GLP  0     **** GLP Y 13
     7 ALL1        2 GROUP        1 Z    ALL  0     ROOT ALL Z 15
     8 SEL2       63 GROUP        1 Z    SEL  0     **** SEL Z 16
     9 GLL5        5 GROUP        1 Z    GLL  0     **** GLL Z 20
@<TRIPOS>SET

