#    Name: 2hvc_LGD_1_ligand
#    Modification time : Tue Mar 25 17:05:43 2014

@<TRIPOS>MOLECULE
2hvc_LGD_1_ligand
   35    36     1     0     0
SMALL
NO_CHARGES


@<TRIPOS>ATOM
      1 N1          1.9340   25.8520    4.6770 N.am      1 LGD2226     0.0000 
      2 C2          3.3210   25.6260    4.7650 C.2       1 LGD2226     0.0000 
      3 C3          4.2310   26.7400    4.9300 C.2       1 LGD2226     0.0000 
      4 C4          3.7160   28.1130    5.0010 C.2       1 LGD2226     0.0000 
      5 F1          4.4960   29.9010    6.3800 F         1 LGD2226     0.0000 
      6 F2          6.0420   28.8460    5.2560 F         1 LGD2226     0.0000 
      7 F3          4.6510   30.2950    4.2880 F         1 LGD2226     0.0000 
      8 C5          2.2600   28.3290    4.9030 C.ar      1 LGD2226     0.0000 
      9 C6          1.6350   29.6370    4.9550 C.ar      1 LGD2226     0.0000 
     10 C7          0.1990   29.8400    4.8680 C.ar      1 LGD2226     0.0000 
     11 C8         -0.6400   28.6270    4.7170 C.ar      1 LGD2226     0.0000 
     12 C9         -0.0610   27.3060    4.6500 C.ar      1 LGD2226     0.0000 
     13 C10         1.3690   27.1430    4.7380 C.ar      1 LGD2226     0.0000 
     14 C11         4.7600   29.3240    5.1990 C.3       1 LGD2226     0.0000 
     15 C12        -1.8550   31.5670    4.9150 C.3       1 LGD2226     0.0000 
     16 N13        -0.3620   31.2670    4.9370 N.pl3     1 LGD2226     0.0000 
     17 C14         0.5070   32.4560    4.7940 C.3       1 LGD2226     0.0000 
     18 F4         -3.6400   31.7120    5.9470 F         1 LGD2226     0.0000 
     19 F5         -2.5160   30.1680    6.6510 F         1 LGD2226     0.0000 
     20 F6         -1.9250   32.0570    7.2650 F         1 LGD2226     0.0000 
     21 C15        -2.3970   31.3550    6.2240 C.3       1 LGD2226     0.0000 
     22 F7          0.4080   34.3030    4.1280 F         1 LGD2226     0.0000 
     23 F8          1.9790   33.1860    3.4670 F         1 LGD2226     0.0000 
     24 F9          0.1470   32.8420    2.5910 F         1 LGD2226     0.0000 
     25 C16         0.7660   33.1050    3.7470 C.3       1 LGD2226     0.0000 
     26 O21         3.7340   24.4790    4.7060 O.2       1 LGD2226     0.0000 
     27 H           1.2998   25.0350    4.5624 H         1 LGD2226     0.0000 
     28 H           5.2242   26.5814    4.9973 H         1 LGD2226     0.0000 
     29 H           2.2407   30.4667    5.0591 H         1 LGD2226     0.0000 
     30 H          -1.6487   28.7457    4.6606 H         1 LGD2226     0.0000 
     31 H          -0.6573   26.4980    4.5417 H         1 LGD2226     0.0000 
     32 H          -2.3207   30.9109    4.1742 H         1 LGD2226     0.0000 
     33 H          -1.9871   32.6017    4.5862 H         1 LGD2226     0.0000 
     34 H           1.5155   32.1296    5.3652 H         1 LGD2226     0.0000 
     35 H           0.1247   33.1832    5.6743 H         1 LGD2226     0.0000 
@<TRIPOS>BOND
     1    2    1 am   
     2   13    1 1    
     3   27    1 1    
     4    3    2 1    
     5   26    2 2    
     6    4    3 2    
     7   28    3 1    
     8    8    4 1    
     9   14    4 1    
    10   14    5 1    
    11   14    6 1    
    12   14    7 1    
    13    9    8 ar   
    14   13    8 ar   
    15   10    9 ar   
    16   29    9 1    
    17   11   10 ar   
    18   16   10 1    
    19   12   11 ar   
    20   30   11 1    
    21   13   12 ar   
    22   31   12 1    
    23   16   15 1    
    24   21   15 1    
    25   32   15 1    
    26   33   15 1    
    27   17   16 1    
    28   25   17 1    
    29   34   17 1    
    30   35   17 1    
    31   21   18 1    
    32   21   19 1    
    33   21   20 1    
    34   25   22 1    
    35   25   23 1    
    36   25   24 1    
@<TRIPOS>SUBSTRUCTURE
     1 LGD2226     1 GROUP   
@<TRIPOS>SET

