#    Name: 2hg1_N5O_2_INTS_M
#    Modification time : Tue Mar 25 16:20:41 2014

@<TRIPOS>MOLECULE
2hg1_N5O_2_INTS_M
   52     0     9     0     0
SMALL
NO_CHARGES


@<TRIPOS>ATOM
      1 O        -144.2975  -36.1145   82.9005 O.2       1 ALC1        0.0000 
      2 O        -143.4030  -37.2420   82.1080 O.2       7 ALL1        0.0000 
      3 O        -145.1920  -34.9870   83.6930 O.2       4 ALP1        0.0000 
      4 CA       -142.2315  -37.1235   80.0395 C.3       3 GLC5        0.0000 
      5 CA       -142.0910  -36.6850   81.9910 C.3       9 GLL5        0.0000 
      6 CA       -142.3720  -37.5620   78.0880 C.3       6 GLP5        0.0000 
      7 CA       -143.2415  -35.5230   80.9750 C.3       3 GLC5        0.0000 
      8 CA       -144.3920  -34.3610   79.9590 C.3       6 GLP5        0.0000 
      9 CA       -139.9725  -37.6980   84.7720 C.3       3 GLC5        0.0000 
     10 CA       -141.3970  -36.7100   83.3550 C.3       9 GLL5        0.0000 
     11 CA       -138.5480  -38.6860   86.1890 C.3       6 GLP5        0.0000 
     12 CA       -142.6210  -34.9430   82.7420 C.3       3 GLC5        0.0000 
     13 CA       -143.8450  -33.1760   82.1290 C.3       6 GLP5        0.0000 
     14 CA       -140.5635  -35.3105   84.5445 C.3       3 GLC5        0.0000 
     15 CA       -139.7300  -33.9110   85.7340 C.3       6 GLP5        0.0000 
     16 O        -141.2660  -39.2495   83.6310 O.2       1 ALC1        0.0000 
     17 O        -141.6600  -37.9930   84.0230 O.2       7 ALL1        0.0000 
     18 O        -140.8720  -40.5060   83.2390 O.2       4 ALP1        0.0000 
     19 CA       -142.0005  -40.8380   85.7920 C.3       3 GLC5        0.0000 
     20 CA       -142.6470  -39.0000   86.0550 C.3       9 GLL5        0.0000 
     21 CA       -141.3540  -42.6760   85.5290 C.3       6 GLP5        0.0000 
     22 CA       -140.5975  -38.8430   86.1220 C.3       3 GLC5        0.0000 
     23 N        -143.7840  -42.0915   87.3140 N.am      2 SEC2        0.0000 
     24 N        -144.3940  -40.7450   87.6980 N.am      8 SEL2        0.0000 
     25 N        -143.1740  -43.4380   86.9300 N.am      5 SEP2        0.0000 
     26 CA       -141.0050  -40.7205   88.9645 C.3       3 GLC5        0.0000 
     27 CA       -142.3340  -39.6310   88.2930 C.3       9 GLL5        0.0000 
     28 CA       -139.6760  -41.8100   89.6360 C.3       6 GLP5        0.0000 
     29 CA       -141.8440  -41.1535   86.9110 C.3       3 GLC5        0.0000 
     30 CA       -140.4410  -39.1585   87.2410 C.3       3 GLC5        0.0000 
     31 CA       -142.1880  -35.7120   90.8820 C.3       3 GLC5        0.0000 
     32 CA       -141.2590  -37.6310   91.1220 C.3       9 GLL5        0.0000 
     33 CA       -143.1170  -33.7930   90.6420 C.3       6 GLP5        0.0000 
     34 CA       -143.1890  -38.9175   93.9535 C.3       3 GLC5        0.0000 
     35 CA       -142.0550  -39.6950   92.7270 C.3       9 GLL5        0.0000 
     36 CA       -144.3230  -38.1400   95.1800 C.3       6 GLP5        0.0000 
     37 CA       -140.4790  -40.1100   91.6660 C.3       3 GLC5        0.0000 
     38 CA       -138.9030  -40.5250   90.6050 C.3       6 GLP5        0.0000 
     39 N        -141.2965  -39.0945   94.5930 N.am      2 SEC2        0.0000 
     40 N        -141.5410  -38.6350   93.3300 N.am      8 SEL2        0.0000 
     41 N        -141.0520  -39.5540   95.8560 N.am      5 SEP2        0.0000 
     42 CA       -142.7230  -37.8570   93.9030 C.3       3 GLC5        0.0000 
     43 CA       -141.1230  -37.5740   92.6260 C.3       9 GLL5        0.0000 
     44 CA       -139.5705  -38.1470   93.8825 C.3       3 GLC5        0.0000 
     45 CA       -138.0180  -38.7200   95.1390 C.3       6 GLP5        0.0000 
     46 O        -140.5910  -36.4140   94.6945 O.2       1 ALC1        0.0000 
     47 O        -140.6020  -36.5120   93.2360 O.2       7 ALL1        0.0000 
     48 O        -140.5800  -36.3160   96.1530 O.2       4 ALP1        0.0000 
     49 CA       -140.6620  -36.0203   81.6250 C.3       3 GLC5        0.0000 
     50 CA       -139.5800  -35.3430   80.5770 C.3       6 GLP5        0.0000 
     51 CA       -140.1159  -39.2084   91.1730 C.3       3 GLC5        0.0000 
     52 CA       -141.8100  -38.7880   90.5900 C.3       9 GLL5        0.0000 
@<TRIPOS>BOND
@<TRIPOS>SUBSTRUCTURE
     1 ALC1        1 GROUP        1 X    ALC  0     ROOT ALC X 1
     2 SEC2       23 GROUP        1 X    SEC  0     **** SEC X 2
     3 GLC5        4 GROUP        1 X    GLC  0     **** GLC X 6
     4 ALP1        3 GROUP        1 Y    ALP  0     ROOT ALP Y 8
     5 SEP2       25 GROUP        1 Y    SEP  0     **** SEP Y 9
     6 GLP5        6 GROUP        1 Y    GLP  0     **** GLP Y 13
     7 ALL1        2 GROUP        1 Z    ALL  0     ROOT ALL Z 15
     8 SEL2       24 GROUP        1 Z    SEL  0     **** SEL Z 16
     9 GLL5        5 GROUP        1 Z    GLL  0     **** GLL Z 20
@<TRIPOS>SET

