#    Name: 2hg1_N5O_2_ligand
#    Modification time : Tue Mar 25 16:20:41 2014

@<TRIPOS>MOLECULE
2hg1_N5O_2_ligand
   39    41     1     0     0
SMALL
NO_CHARGES


@<TRIPOS>ATOM
      1 O53      -143.4030  -37.2420   82.1080 O.3       1 N5O402      0.0000 
      2 C52      -142.0910  -36.6850   81.9910 C.3       1 N5O402      0.0000 
      3 C51      -141.3970  -36.7100   83.3550 C.3       1 N5O402      0.0000 
      4 N5'      -141.6600  -37.9930   84.0230 N.am      1 N5O402      0.0000 
      5 C5'      -142.0700  -37.8160   85.2770 C.2       1 N5O402      0.0000 
      6 O5'      -141.9720  -36.6020   85.8850 O.2       1 N5O402      0.0000 
      7 C4'      -142.6470  -39.0000   86.0550 C.3       1 N5O402      0.0000 
      8 O4'      -141.6820  -39.4460   87.0240 O.3       1 N5O402      0.0000 
      9 C3'      -143.8790  -38.5490   86.8400 C.3       1 N5O402      0.0000 
     10 O3'      -145.0560  -38.8200   86.0740 O.3       1 N5O402      0.0000 
     11 C2'      -143.8370  -39.4760   88.0530 C.3       1 N5O402      0.0000 
     12 O2'      -144.3940  -40.7450   87.6980 O.3       1 N5O402      0.0000 
     13 C1'      -142.3340  -39.6310   88.2930 C.3       1 N5O402      0.0000 
     14 N9       -141.8460  -38.6290   89.2690 N.pl3     1 N5O402      0.0000 
     15 C8       -141.3450  -37.4280   88.9860 C.2       1 N5O402      0.0000 
     16 N7       -140.9840  -36.8130   90.1100 N.2       1 N5O402      0.0000 
     17 C5       -141.2590  -37.6310   91.1220 C.ar      1 N5O402      0.0000 
     18 C4       -141.8100  -38.7880   90.5900 C.ar      1 N5O402      0.0000 
     19 N3       -142.1880  -39.7780   91.4130 N.ar      1 N5O402      0.0000 
     20 C2       -142.0550  -39.6950   92.7270 C.ar      1 N5O402      0.0000 
     21 N1       -141.5410  -38.6350   93.3300 N.ar      1 N5O402      0.0000 
     22 C6       -141.1230  -37.5740   92.6260 C.ar      1 N5O402      0.0000 
     23 N6       -140.6020  -36.5120   93.2360 N.pl3     1 N5O402      0.0000 
     24 H        -142.1201  -35.6443   81.6506 H         1 N5O402      0.0000 
     25 H        -141.4695  -37.2526   81.2901 H         1 N5O402      0.0000 
     26 H        -141.7774  -35.8786   83.9496 H         1 N5O402      0.0000 
     27 H        -140.3271  -36.5667   83.1991 H         1 N5O402      0.0000 
     28 H        -141.5284  -38.8252   83.5449 H         1 N5O402      0.0000 
     29 H        -142.9232  -39.7682   85.3869 H         1 N5O402      0.0000 
     30 H        -143.7592  -37.5712   87.1437 H         1 N5O402      0.0000 
     31 H        -144.2729  -39.0105   88.8638 H         1 N5O402      0.0000 
     32 H        -142.1609  -40.6253   88.6638 H         1 N5O402      0.0000 
     33 H        -141.2554  -37.0527   88.0834 H         1 N5O402      0.0000 
     34 H        -142.3766  -40.5196   93.3273 H         1 N5O402      0.0000 
     35 H        -140.3131  -35.7611   92.6421 H         1 N5O402      0.0000 
     36 H        -140.5464  -36.5607   94.2333 H         1 N5O402      0.0000 
     37 H        -143.9313  -36.5566   82.6092 H         1 N5O402      0.0000 
     38 H        -145.2362  -39.7938   86.2124 H         1 N5O402      0.0000 
     39 H        -144.7423  -41.1236   88.5555 H         1 N5O402      0.0000 
@<TRIPOS>BOND
     1    2    1 1    
     2   37    1 1    
     3    3    2 1    
     4   24    2 1    
     5   25    2 1    
     6    4    3 1    
     7   26    3 1    
     8   27    3 1    
     9    5    4 am   
    10   28    4 1    
    11    6    5 2    
    12    7    5 1    
    13    8    7 1    
    14    9    7 1    
    15   29    7 1    
    16   13    8 1    
    17   10    9 1    
    18   11    9 1    
    19   30    9 1    
    20   38   10 1    
    21   12   11 1    
    22   13   11 1    
    23   31   11 1    
    24   39   12 1    
    25   14   13 1    
    26   32   13 1    
    27   15   14 1    
    28   18   14 1    
    29   16   15 2    
    30   33   15 1    
    31   17   16 1    
    32   18   17 ar   
    33   22   17 ar   
    34   19   18 ar   
    35   20   19 ar   
    36   21   20 ar   
    37   34   20 1    
    38   22   21 ar   
    39   23   22 1    
    40   35   23 1    
    41   36   23 1    
@<TRIPOS>SUBSTRUCTURE
     1 N5O402      1 GROUP   
@<TRIPOS>SET

