#    Name: 2gby_BRN_1_INTS_M
#    Modification time : Tue Mar 25 13:58:03 2014

@<TRIPOS>MOLECULE
2gby_BRN_1_INTS_M
   34     0     6     0     0
SMALL
NO_CHARGES


@<TRIPOS>ATOM
      1 CA        -68.9925  -50.3805    6.6040 C.3       2 GLC5        0.0000 
      2 CA        -70.6680  -49.2500    5.6900 C.3       6 GLL5        0.0000 
      3 CA        -67.3170  -51.5110    7.5180 C.3       4 GLP5        0.0000 
      4 CA        -70.9600  -52.7345    4.9490 C.3       2 GLC5        0.0000 
      5 CA        -71.6270  -51.4520    6.0260 C.3       6 GLL5        0.0000 
      6 CA        -70.2930  -54.0170    3.8720 C.3       4 GLP5        0.0000 
      7 CA        -72.0050  -51.6635    8.2290 C.3       2 GLC5        0.0000 
      8 CA        -72.3830  -51.8750   10.4320 C.3       4 GLP5        0.0000 
      9 CA        -69.7045  -41.2925    7.6350 C.3       2 GLC5        0.0000 
     10 CA        -71.6580  -42.1200    7.9610 C.3       6 GLL5        0.0000 
     11 CA        -67.7510  -40.4650    7.3090 C.3       4 GLP5        0.0000 
     12 CA        -71.7060  -40.0795    8.5205 C.3       2 GLC5        0.0000 
     13 CA        -71.7540  -38.0390    9.0800 C.3       4 GLP5        0.0000 
     14 CA        -72.9660  -40.0440    7.3080 C.3       2 GLC5        0.0000 
     15 CA        -72.5210  -41.5050    8.8570 C.3       6 GLL5        0.0000 
     16 CA        -73.4110  -38.5830    5.7590 C.3       4 GLP5        0.0000 
     17 CA        -71.5345  -44.1685   10.1980 C.3       2 GLC5        0.0000 
     18 CA        -72.5600  -44.2680    8.5590 C.3       6 GLL5        0.0000 
     19 CA        -70.5090  -44.0690   11.8370 C.3       4 GLP5        0.0000 
     20 O         -73.5290  -43.1130   12.3555 O.2       1 ALC1        0.0000 
     21 O         -74.4150  -42.1640   11.7440 O.2       5 ALL1        0.0000 
     22 O         -72.6430  -44.0620   12.9670 O.2       3 ALP1        0.0000 
     23 O         -75.9165  -40.8175    9.2600 O.2       1 ALC1        0.0000 
     24 O         -74.9000  -40.5320   10.2000 O.2       5 ALL1        0.0000 
     25 O         -76.9330  -41.1030    8.3200 O.2       3 ALP1        0.0000 
     26 CA        -71.0970  -42.6843    9.7515 C.3       2 GLC5        0.0000 
     27 CA        -70.5260  -42.5540   11.6200 C.3       4 GLP5        0.0000 
     28 CA        -74.6340  -44.7875    8.5130 C.3       2 GLC5        0.0000 
     29 CA        -73.4300  -43.6480    9.4670 C.3       6 GLL5        0.0000 
     30 CA        -76.2730  -45.6170    8.0130 C.3       4 GLP5        0.0000 
     31 CA        -72.1284  -42.3833   10.7810 C.3       2 GLC5        0.0000 
     32 CA        -73.2399  -39.9910    9.9848 C.3       2 GLC5        0.0000 
     33 CA        -73.4100  -42.2750    9.6090 C.3       6 GLL5        0.0000 
     34 CA        -72.8650  -38.2090   10.0860 C.3       4 GLP5        0.0000 
@<TRIPOS>BOND
@<TRIPOS>SUBSTRUCTURE
     1 ALC1       20 GROUP        1 X    ALC  0     ROOT ALC X 1
     2 GLC5        1 GROUP        1 X    GLC  0     **** GLC X 6
     3 ALP1       22 GROUP        1 Y    ALP  0     ROOT ALP Y 8
     4 GLP5        3 GROUP        1 Y    GLP  0     **** GLP Y 13
     5 ALL1       21 GROUP        1 Z    ALL  0     ROOT ALL Z 15
     6 GLL5        2 GROUP        1 Z    GLL  0     **** GLL Z 20
@<TRIPOS>SET

