#    Name: 2gby_BRN_1_ligand
#    Modification time : Tue Mar 25 13:58:03 2014

@<TRIPOS>MOLECULE
2gby_BRN_1_ligand
   38    39     1     0     0
SMALL
NO_CHARGES


@<TRIPOS>ATOM
      1 C1        -71.4540  -47.3950    7.0250 C.ar      1 BRN1110     0.0000 
      2 C2        -72.3080  -48.2480    7.7050 C.ar      1 BRN1110     0.0000 
      3 C3        -72.3520  -49.6070    7.3760 C.ar      1 BRN1110     0.0000 
      4 C4        -71.5400  -50.1030    6.3760 C.ar      1 BRN1110     0.0000 
      5 C5        -70.6680  -49.2500    5.6900 C.ar      1 BRN1110     0.0000 
      6 C6        -70.6230  -47.9060    6.0140 C.ar      1 BRN1110     0.0000 
      7 C7        -71.6270  -51.4520    6.0260 C.2       1 BRN1110     0.0000 
      8 NA        -72.3630  -51.8260    4.9950 N.pl3     1 BRN1110     0.0000 
      9 NB        -70.9750  -52.3640    6.7520 N.pl3     1 BRN1110     0.0000 
     10 N1        -71.5000  -46.0990    7.2870 N.pl3     1 BRN1110     0.0000 
     11 N         -70.8140  -45.2730    6.6730 N.2       1 BRN1110     0.0000 
     12 N1'       -70.8730  -44.0660    6.8990 N.2       1 BRN1110     0.0000 
     13 C1'       -71.6780  -43.5090    7.8050 C.ar      1 BRN1110     0.0000 
     14 C2'       -71.6580  -42.1200    7.9610 C.ar      1 BRN1110     0.0000 
     15 C3'       -72.5210  -41.5050    8.8570 C.ar      1 BRN1110     0.0000 
     16 C4'       -73.4100  -42.2750    9.6090 C.ar      1 BRN1110     0.0000 
     17 C5'       -73.4300  -43.6480    9.4670 C.ar      1 BRN1110     0.0000 
     18 C6'       -72.5600  -44.2680    8.5590 C.ar      1 BRN1110     0.0000 
     19 C7'       -74.2640  -41.6560   10.5340 C.2       1 BRN1110     0.0000 
     20 NA'       -74.4150  -42.1640   11.7440 N.pl3     1 BRN1110     0.0000 
     21 NB'       -74.9000  -40.5320   10.2000 N.pl3     1 BRN1110     0.0000 
     22 H         -72.9134  -47.8872    8.4544 H         1 BRN1110     0.0000 
     23 H         -72.9931  -50.2307    7.8848 H         1 BRN1110     0.0000 
     24 H         -70.0659  -49.6281    4.9489 H         1 BRN1110     0.0000 
     25 H         -69.9828  -47.2712    5.5191 H         1 BRN1110     0.0000 
     26 H         -72.8165  -51.0924    4.4889 H         1 BRN1110     0.0000 
     27 H         -72.3998  -52.8088    4.8141 H         1 BRN1110     0.0000 
     28 H         -70.4611  -52.0166    7.5364 H         1 BRN1110     0.0000 
     29 H         -71.0593  -53.3123    6.4460 H         1 BRN1110     0.0000 
     30 H         -72.1741  -45.7878    8.0737 H         1 BRN1110     0.0000 
     31 H         -70.9993  -41.5554    7.4073 H         1 BRN1110     0.0000 
     32 H         -72.5085  -40.4837    8.9695 H         1 BRN1110     0.0000 
     33 H         -74.0768  -44.2223   10.0205 H         1 BRN1110     0.0000 
     34 H         -72.5815  -45.2920    8.4567 H         1 BRN1110     0.0000 
     35 H         -73.8572  -42.9661   11.9572 H         1 BRN1110     0.0000 
     36 H         -75.0734  -41.7003   12.3369 H         1 BRN1110     0.0000 
     37 H         -74.4300  -39.6778   10.4223 H         1 BRN1110     0.0000 
     38 H         -75.7896  -40.6447    9.7573 H         1 BRN1110     0.0000 
@<TRIPOS>BOND
     1    2    1 ar   
     2    6    1 ar   
     3   10    1 1    
     4    3    2 ar   
     5   22    2 1    
     6    4    3 ar   
     7   23    3 1    
     8    5    4 ar   
     9    7    4 1    
    10    6    5 ar   
    11   24    5 1    
    12   25    6 1    
    13    8    7 2    
    14    9    7 1    
    15   26    8 1    
    16   27    8 1    
    17   28    9 1    
    18   29    9 1    
    19   11   10 1    
    20   30   10 1    
    21   12   11 2    
    22   13   12 1    
    23   14   13 ar   
    24   18   13 ar   
    25   15   14 ar   
    26   31   14 1    
    27   16   15 ar   
    28   32   15 1    
    29   17   16 ar   
    30   19   16 1    
    31   18   17 ar   
    32   33   17 1    
    33   34   18 1    
    34   20   19 2    
    35   21   19 1    
    36   35   20 1    
    37   36   20 1    
    38   37   21 1    
    39   38   21 1    
@<TRIPOS>SUBSTRUCTURE
     1 BRN1110     1 GROUP   
@<TRIPOS>SET

