#    Name: 1xls_TCD_8_INTS_M
#    Modification time : Mon Apr  7 15:21:42 2014

@<TRIPOS>MOLECULE
1xls_TCD_8_INTS_M
   64     0     3     0     0
SMALL
NO_CHARGES


@<TRIPOS>ATOM
      1 CA        -40.3835    7.7925  -44.3060 C.3       1 GLC5        0.0000 
      2 CA        -40.2290    9.7970  -43.9660 C.3       3 GLL5        0.0000 
      3 CA        -40.5380    5.7880  -44.6460 C.3       2 GLP5        0.0000 
      4 CA        -40.5550   15.7610  -46.0465 C.3       1 GLC5        0.0000 
      5 CA        -39.0960   14.0940  -46.1680 C.3       3 GLL5        0.0000 
      6 CA        -42.0140   17.4280  -45.9250 C.3       2 GLP5        0.0000 
      7 CA        -40.3290   15.8600  -49.1915 C.3       1 GLC5        0.0000 
      8 CA        -38.6460   15.9530  -48.1510 C.3       3 GLL5        0.0000 
      9 CA        -42.0120   15.7670  -50.2320 C.3       2 GLP5        0.0000 
     10 CA        -40.3300   16.6905  -47.0380 C.3       1 GLC5        0.0000 
     11 CA        -37.7105   15.1690  -49.6295 C.3       1 GLC5        0.0000 
     12 CA        -36.7750   14.3850  -51.1080 C.3       2 GLP5        0.0000 
     13 CA        -38.6465   17.1395  -49.5015 C.3       1 GLC5        0.0000 
     14 CA        -38.6470   18.3260  -50.8520 C.3       2 GLP5        0.0000 
     15 CA        -38.6815   17.1130  -47.0570 C.3       1 GLC5        0.0000 
     16 CA        -38.7170   18.2730  -45.9630 C.3       2 GLP5        0.0000 
     17 CA        -35.6805   15.5705  -47.5640 C.3       1 GLC5        0.0000 
     18 CA        -36.8150   14.6210  -46.5690 C.3       3 GLL5        0.0000 
     19 CA        -34.5460   16.5200  -48.5590 C.3       2 GLP5        0.0000 
     20 CA        -35.8445   12.1085  -46.3045 C.3       1 GLC5        0.0000 
     21 CA        -34.7260   13.3970  -45.0780 C.3       3 GLL5        0.0000 
     22 CA        -36.9630   10.8200  -47.5310 C.3       2 GLP5        0.0000 
     23 CA        -34.8035   12.2695  -43.3555 C.3       1 GLC5        0.0000 
     24 CA        -34.8810   11.1420  -41.6330 C.3       2 GLP5        0.0000 
     25 CA        -33.5675   14.2735  -43.9880 C.3       1 GLC5        0.0000 
     26 CA        -32.4090   15.1500  -42.8980 C.3       2 GLP5        0.0000 
     27 CA        -33.4785   12.5965  -45.5295 C.3       1 GLC5        0.0000 
     28 CA        -32.2310   11.7960  -45.9810 C.3       2 GLP5        0.0000 
     29 CA        -45.5070   12.4565  -44.2960 C.3       1 GLC5        0.0000 
     30 CA        -44.6480   11.7670  -42.5030 C.3       3 GLL5        0.0000 
     31 CA        -46.3660   13.1460  -46.0890 C.3       2 GLP5        0.0000 
     32 CA        -48.3300   13.1835  -42.2960 C.3       1 GLC5        0.0000 
     33 CA        -47.3730   11.7800  -41.8580 C.3       3 GLL5        0.0000 
     34 CA        -49.2870   14.5870  -42.7340 C.3       2 GLP5        0.0000 
     35 CA        -47.2195   12.5910  -40.2150 C.3       1 GLC5        0.0000 
     36 CA        -47.0660   13.4020  -38.5720 C.3       2 GLP5        0.0000 
     37 CA        -49.0020   11.9625  -41.1030 C.3       1 GLC5        0.0000 
     38 CA        -50.6310   12.1450  -40.3480 C.3       2 GLP5        0.0000 
     39 CA        -48.4095   10.5265  -42.5015 C.3       1 GLC5        0.0000 
     40 CA        -49.4460    9.2730  -43.1450 C.3       2 GLP5        0.0000 
     41 CA        -46.7945    8.9925  -40.3345 C.3       1 GLC5        0.0000 
     42 CA        -45.5250    9.6650  -41.6780 C.3       3 GLL5        0.0000 
     43 CA        -48.0640    8.3200  -38.9910 C.3       2 GLP5        0.0000 
     44 CA        -44.8635    7.4490  -39.9205 C.3       1 GLC5        0.0000 
     45 CA        -43.9520    7.4390  -41.4100 C.3       3 GLL5        0.0000 
     46 CA        -45.7750    7.4590  -38.4310 C.3       2 GLP5        0.0000 
     47 CA        -39.2574    8.4434  -42.9029 C.3       1 GLC5        0.0000 
     48 CA        -39.0860   10.4640  -44.3470 C.3       3 GLL5        0.0000 
     49 CA        -38.2760    6.8200  -42.3680 C.3       2 GLP5        0.0000 
     50 CA        -38.5029   10.8210  -40.8424 C.3       1 GLC5        0.0000 
     51 CA        -40.2250   10.9460  -41.8370 C.3       3 GLL5        0.0000 
     52 CA        -37.5060   10.4140  -39.3450 C.3       2 GLP5        0.0000 
     53 CA        -36.4755   15.9545  -48.0393 C.3       1 GLC5        0.0000 
     54 CA        -38.1640   14.8250  -46.8880 C.3       3 GLL5        0.0000 
     55 CA        -38.2197   16.4066  -46.2558 C.3       1 GLC5        0.0000 
     56 CA        -36.5744   13.8830  -48.0329 C.3       1 GLC5        0.0000 
     57 CA        -36.1970   13.5790  -49.9600 C.3       2 GLP5        0.0000 
     58 CA        -46.7408    8.8547  -42.2865 C.3       1 GLC5        0.0000 
     59 CA        -45.7800   11.0340  -42.0180 C.3       3 GLL5        0.0000 
     60 CA        -47.8290    7.3600  -42.7250 C.3       2 GLP5        0.0000 
     61 CA        -45.0412   11.5639  -40.2261 C.3       1 GLC5        0.0000 
     62 CA        -44.7130   12.5950  -38.4830 C.3       2 GLP5        0.0000 
     63 CA        -45.9645    7.8205  -42.1725 C.3       1 GLC5        0.0000 
     64 CA        -44.2480    9.1230  -41.8300 C.3       3 GLL5        0.0000 
@<TRIPOS>BOND
@<TRIPOS>SUBSTRUCTURE
     1 GLC5        1 GROUP        1 X    GLC  0     ROOT GLC X 6
     2 GLP5        3 GROUP        1 Y    GLP  0     ROOT GLP Y 13
     3 GLL5        2 GROUP        1 Z    GLL  0     ROOT GLL Z 20
@<TRIPOS>SET

