#    Name: 1xls_TCD_8_ligand
#    Modification time : Mon Apr  7 15:21:42 2014

@<TRIPOS>MOLECULE
1xls_TCD_8_ligand
   32    34     1     0     0
SMALL
NO_CHARGES


@<TRIPOS>ATOM
      1 C1        -38.4780   11.3980  -43.4720 C.ar      1 TCD808      0.0000 
      2 O21       -37.3230   12.0740  -43.8100 O.3       1 TCD808      0.0000 
      3 C2        -39.0860   10.4640  -44.3470 C.ar      1 TCD808      0.0000 
      4 C3        -40.2290    9.7970  -43.9660 C.ar      1 TCD808      0.0000 
      5 C4        -40.8200   10.0030  -42.7190 C.ar      1 TCD808      0.0000 
      6 O31       -41.9460    9.2870  -42.4410 O.3       1 TCD808      0.0000 
      7 C5        -40.2250   10.9460  -41.8370 C.ar      1 TCD808      0.0000 
      8 C6        -39.0710   11.6220  -42.2130 C.ar      1 TCD808      0.0000 
      9 C22       -37.4760   12.9880  -44.8370 C.ar      1 TCD808      0.0000 
     10 N23       -38.7660   13.2290  -45.1990 N.ar      1 TCD808      0.0000 
     11 C24       -39.0960   14.0940  -46.1680 C.ar      1 TCD808      0.0000 
     12 C25       -38.1640   14.8250  -46.8880 C.ar      1 TCD808      0.0000 
     13 CL25      -38.6460   15.9530  -48.1510 Cl        1 TCD808      0.0000 
     14 C26       -36.8150   14.6210  -46.5690 C.ar      1 TCD808      0.0000 
     15 C27       -36.4140   13.6510  -45.4830 C.ar      1 TCD808      0.0000 
     16 CL27      -34.7260   13.3970  -45.0780 Cl        1 TCD808      0.0000 
     17 C32       -43.2140    9.9120  -42.3110 C.ar      1 TCD808      0.0000 
     18 N33       -43.4360   11.2030  -42.6440 N.ar      1 TCD808      0.0000 
     19 C34       -44.6480   11.7670  -42.5030 C.ar      1 TCD808      0.0000 
     20 C35       -45.7800   11.0340  -42.0180 C.ar      1 TCD808      0.0000 
     21 CL35      -47.3730   11.7800  -41.8580 Cl        1 TCD808      0.0000 
     22 C36       -45.5250    9.6650  -41.6780 C.ar      1 TCD808      0.0000 
     23 C37       -44.2480    9.1230  -41.8300 C.ar      1 TCD808      0.0000 
     24 CL37      -43.9520    7.4390  -41.4100 Cl        1 TCD808      0.0000 
     25 H         -38.6583   10.2958  -45.2670 H         1 TCD808      0.0000 
     26 H         -40.6709    9.1177  -44.6220 H         1 TCD808      0.0000 
     27 H         -40.6593   11.1174  -40.9250 H         1 TCD808      0.0000 
     28 H         -38.6352   12.2993  -41.5679 H         1 TCD808      0.0000 
     29 H         -40.1185   14.2403  -46.4109 H         1 TCD808      0.0000 
     30 H         -36.0639   15.1076  -47.0456 H         1 TCD808      0.0000 
     31 H         -44.8089   12.7710  -42.7449 H         1 TCD808      0.0000 
     32 H         -46.2970    9.0939  -41.3221 H         1 TCD808      0.0000 
@<TRIPOS>BOND
     1    2    1 1    
     2    3    1 ar   
     3    8    1 ar   
     4    9    2 1    
     5    4    3 ar   
     6   25    3 1    
     7    5    4 ar   
     8   26    4 1    
     9    6    5 1    
    10    7    5 ar   
    11   17    6 1    
    12    8    7 ar   
    13   27    7 1    
    14   28    8 1    
    15   10    9 ar   
    16   15    9 ar   
    17   11   10 ar   
    18   12   11 ar   
    19   29   11 1    
    20   13   12 1    
    21   14   12 ar   
    22   15   14 ar   
    23   30   14 1    
    24   16   15 1    
    25   18   17 ar   
    26   23   17 ar   
    27   19   18 ar   
    28   20   19 ar   
    29   31   19 1    
    30   21   20 1    
    31   22   20 ar   
    32   23   22 ar   
    33   32   22 1    
    34   24   23 1    
@<TRIPOS>SUBSTRUCTURE
     1 TCD808      1 GROUP   
@<TRIPOS>SET

