#    Name: 4dbr_ADP_1_INTS_M
#    Modification time : Mon Apr  7 22:28:33 2014

@<TRIPOS>MOLECULE
4dbr_ADP_1_INTS_M
   63     0    15     0     0
SMALL
NO_CHARGES


@<TRIPOS>ATOM
      1 Zn        -21.1320  -17.9410    8.2360 Zn        4 ZIC7        0.0000 
      2 Zn        -21.6330  -17.6230    9.1810 Zn       14 ZIL7        0.0000 
      3 Zn        -20.6310  -18.2590    7.2910 Zn        9 ZIP7        0.0000 
      4 N         -20.4810  -16.9700    9.8460 N.am      2 SEC2        0.0000 
      5 N         -21.6330  -17.6230    9.1810 N.am     12 SEL2        0.0000 
      6 N         -19.3290  -16.3170   10.5110 N.am      7 SEP2        0.0000 
      7 NZ        -22.8925  -20.1815    9.9010 N.4       3 LYC4        0.0000 
      8 NZ        -23.7470  -19.0130    8.7870 N.4      13 LYL4        0.0000 
      9 NZ        -22.0380  -21.3500   11.0150 N.4       8 LYP4        0.0000 
     10 N         -24.9735  -19.3025    9.2705 N.am      2 SEC2        0.0000 
     11 N         -23.7470  -19.0130    8.7870 N.am     12 SEL2        0.0000 
     12 N         -26.2000  -19.5920    9.7540 N.am      7 SEP2        0.0000 
     13 N         -24.4600  -18.1915    7.8190 N.am      2 SEC2        0.0000 
     14 N         -25.1730  -17.3700    6.8510 N.am      7 SEP2        0.0000 
     15 NZ        -22.4305  -19.9515   11.0630 N.4       3 LYC4        0.0000 
     16 NZ        -22.8230  -18.5530   11.1110 N.4      13 LYL4        0.0000 
     17 N         -23.3890  -17.6555   12.0635 N.am      2 SEC2        0.0000 
     18 N         -22.8230  -18.5530   11.1110 N.am     12 SEL2        0.0000 
     19 N         -23.9550  -16.7580   13.0160 N.am      7 SEP2        0.0000 
     20 N         -21.9805  -17.8515   11.8585 N.am      2 SEC2        0.0000 
     21 N         -21.1380  -17.1500   12.6060 N.am      7 SEP2        0.0000 
     22 N         -22.4305  -19.9515   11.0630 N.am      2 SEC2        0.0000 
     23 N         -22.0380  -21.3500   11.0150 N.am      7 SEP2        0.0000 
     24 N         -20.7585  -14.2370   10.3590 N.am      2 SEC2        0.0000 
     25 N         -22.0290  -14.9710   10.1890 N.am     12 SEL2        0.0000 
     26 N         -19.4880  -13.5030   10.5290 N.am      7 SEP2        0.0000 
     27 N         -24.1860  -16.2370    7.3425 N.am      2 SEC2        0.0000 
     28 N         -23.1990  -15.1040    7.8340 N.am     12 SEL2        0.0000 
     29 N         -23.8720  -16.7535   11.3565 N.am      2 SEC2        0.0000 
     30 N         -23.7890  -16.7490    9.6970 N.am     12 SEL2        0.0000 
     31 CA        -26.3010  -16.3810    9.6515 C.3       5 GLC5        0.0000 
     32 CA        -25.7210  -14.4050    9.1880 C.3      15 GLL5        0.0000 
     33 CA        -26.8810  -18.3570   10.1150 C.3      10 GLP5        0.0000 
     34 CA        -28.1390  -13.2475    9.9880 C.3       5 GLC5        0.0000 
     35 CA        -26.2870  -12.9860    9.1310 C.3      15 GLL5        0.0000 
     36 CA        -29.9910  -13.5090   10.8450 C.3      10 GLP5        0.0000 
     37 N         -26.9265  -13.3110   11.6025 N.am      2 SEC2        0.0000 
     38 N         -26.6530  -12.5110   10.4250 N.am     12 SEL2        0.0000 
     39 N         -27.2000  -14.1110   12.7800 N.am      7 SEP2        0.0000 
     40 CA        -28.1955  -11.6770   10.9150 C.3       5 GLC5        0.0000 
     41 CA        -26.2120  -11.1570   10.5580 C.3      15 GLL5        0.0000 
     42 CA        -30.1790  -12.1970   11.2720 C.3      10 GLP5        0.0000 
     43 CA        -22.4105  -10.9855   12.4020 C.3       5 GLC5        0.0000 
     44 CA        -24.0430  -10.3890   13.4290 C.3      15 GLL5        0.0000 
     45 CA        -20.7780  -11.5820   11.3750 C.3      10 GLP5        0.0000 
     46 O         -21.7765   -8.7850   16.2655 O.2       1 ALC1        0.0000 
     47 O         -22.7320   -9.5430   15.3460 O.2      11 ALL1        0.0000 
     48 O         -20.8210   -8.0270   17.1850 O.2       6 ALP1        0.0000 
     49 CA        -25.6535   -8.2935   14.6635 C.3       5 GLC5        0.0000 
     50 CA        -24.7980   -7.7520   12.9740 C.3      15 GLL5        0.0000 
     51 CA        -26.5090   -8.8350   16.3530 C.3      10 GLP5        0.0000 
     52 CA        -25.4335   -5.6705   13.1885 C.3       5 GLC5        0.0000 
     53 CA        -26.0690   -3.5890   13.4030 C.3      10 GLP5        0.0000 
     54 CA        -23.3215  -10.6890   11.2460 C.3       5 GLC5        0.0000 
     55 CA        -24.9410   -9.9970   12.3240 C.3      15 GLL5        0.0000 
     56 CA        -21.7020  -11.3810   10.1680 C.3      10 GLP5        0.0000 
     57 CA        -23.5938  -11.3515    9.5382 C.3       5 GLC5        0.0000 
     58 CA        -25.7000  -10.6720    9.2240 C.3      15 GLL5        0.0000 
     59 CA        -24.4828  -10.3325    7.3898 C.3       5 GLC5        0.0000 
     60 CA        -25.2710  -11.9720    8.5930 C.3      15 GLL5        0.0000 
     61 CA        -23.4800   -9.3430    5.8710 C.3      10 GLP5        0.0000 
     62 CA        -25.3216  -10.1277   14.7351 C.3       5 GLC5        0.0000 
     63 CA        -26.2750  -10.3370   16.3780 C.3      10 GLP5        0.0000 
@<TRIPOS>BOND
@<TRIPOS>SUBSTRUCTURE
     1 ALC1       46 GROUP        1 X    ALC  0     ROOT ALC X 1
     2 SEC2        4 GROUP        1 X    SEC  0     **** SEC X 2
     3 LYC4        7 GROUP        1 X    LYC  0     **** LYC X 4
     4 ZIC7        1 GROUP        1 X    ZIC  0     **** ZIC X 5
     5 GLC5       31 GROUP        1 X    GLC  0     **** GLC X 6
     6 ALP1       48 GROUP        1 Y    ALP  0     ROOT ALP Y 8
     7 SEP2        6 GROUP        1 Y    SEP  0     **** SEP Y 9
     8 LYP4        9 GROUP        1 Y    LYP  0     **** LYP Y 11
     9 ZIP7        3 GROUP        1 Y    ZIP  0     **** ZIP Y 12
    10 GLP5       33 GROUP        1 Y    GLP  0     **** GLP Y 13
    11 ALL1       47 GROUP        1 Z    ALL  0     ROOT ALL Z 15
    12 SEL2        5 GROUP        1 Z    SEL  0     **** SEL Z 16
    13 LYL4        8 GROUP        1 Z    LYL  0     **** LYL Z 18
    14 ZIL7        2 GROUP        1 Z    ZIL  0     **** ZIL Z 19
    15 GLL5       32 GROUP        1 Z    GLL  0     **** GLL Z 20
@<TRIPOS>SET

