#    Name: 4dbr_ADP_1_ligand
#    Modification time : Mon Apr  7 22:28:33 2014

@<TRIPOS>MOLECULE
4dbr_ADP_1_ligand
   39    41     1     0     0
SMALL
NO_CHARGES


@<TRIPOS>ATOM
      1 PB        -22.9280  -18.0980    9.6610 P.3       1 ADP809      0.0000 
      2 O1B       -21.6330  -17.6230    9.1810 O.co2     1 ADP809      0.0000 
      3 O2B       -23.7470  -19.0130    8.7870 O.co2     1 ADP809      0.0000 
      4 O3B       -22.8230  -18.5530   11.1110 O.co2     1 ADP809      0.0000 
      5 PA        -23.2160  -15.2710    9.3460 P.3       1 ADP809      0.0000 
      6 O1A       -22.0290  -14.9710   10.1890 O.co2     1 ADP809      0.0000 
      7 O2A       -23.1990  -15.1040    7.8340 O.co2     1 ADP809      0.0000 
      8 O3A       -23.7890  -16.7490    9.6970 O.3       1 ADP809      0.0000 
      9 O5'       -24.4850  -14.4370    9.8920 O.3       1 ADP809      0.0000 
     10 C5'       -25.7210  -14.4050    9.1880 C.3       1 ADP809      0.0000 
     11 C4'       -26.2870  -12.9860    9.1310 C.3       1 ADP809      0.0000 
     12 O4'       -26.6530  -12.5110   10.4250 O.3       1 ADP809      0.0000 
     13 C3'       -25.2710  -11.9720    8.5930 C.3       1 ADP809      0.0000 
     14 O3'       -25.3600  -11.8720    7.1810 O.3       1 ADP809      0.0000 
     15 C2'       -25.7000  -10.6720    9.2240 C.3       1 ADP809      0.0000 
     16 O2'       -26.8520  -10.1620    8.5440 O.3       1 ADP809      0.0000 
     17 C1'       -26.2120  -11.1570   10.5580 C.3       1 ADP809      0.0000 
     18 N9        -25.2450  -11.1140   11.6830 N.pl3     1 ADP809      0.0000 
     19 C8        -24.6230  -12.1640   12.2930 C.2       1 ADP809      0.0000 
     20 N7        -23.8850  -11.7320   13.3570 N.2       1 ADP809      0.0000 
     21 C5        -24.0430  -10.3890   13.4290 C.ar      1 ADP809      0.0000 
     22 C6        -23.5480   -9.2910   14.2920 C.ar      1 ADP809      0.0000 
     23 N6        -22.7320   -9.5430   15.3460 N.pl3     1 ADP809      0.0000 
     24 N1        -23.9500   -8.0250   13.9930 N.ar      1 ADP809      0.0000 
     25 C2        -24.7980   -7.7520   12.9740 C.ar      1 ADP809      0.0000 
     26 N3        -25.2860   -8.6940   12.1480 N.ar      1 ADP809      0.0000 
     27 C4        -24.9410   -9.9970   12.3240 C.ar      1 ADP809      0.0000 
     28 H         -26.4802  -15.0458    9.6662 H         1 ADP809      0.0000 
     29 H         -25.6092  -14.7593    8.1499 H         1 ADP809      0.0000 
     30 H         -27.1404  -12.9714    8.4668 H         1 ADP809      0.0000 
     31 H         -24.3167  -12.2312    8.9514 H         1 ADP809      0.0000 
     32 H         -24.9295  -10.0348    9.3453 H         1 ADP809      0.0000 
     33 H         -27.0857  -10.5390   10.8305 H         1 ADP809      0.0000 
     34 H         -24.6952  -13.0926   12.0091 H         1 ADP809      0.0000 
     35 H         -22.0882   -8.8169   15.5875 H         1 ADP809      0.0000 
     36 H         -22.8464  -10.4325   15.7882 H         1 ADP809      0.0000 
     37 H         -25.0909   -6.7399   12.8220 H         1 ADP809      0.0000 
     38 H         -26.0234  -11.1425    7.0147 H         1 ADP809      0.0000 
     39 H         -27.0235   -9.2688    8.9598 H         1 ADP809      0.0000 
@<TRIPOS>BOND
     1    2    1 ar   
     2    3    1 ar   
     3    4    1 ar   
     4    8    1 1    
     5    6    5 ar   
     6    7    5 ar   
     7    8    5 1    
     8    9    5 1    
     9   10    9 1    
    10   11   10 1    
    11   28   10 1    
    12   29   10 1    
    13   12   11 1    
    14   13   11 1    
    15   30   11 1    
    16   17   12 1    
    17   14   13 1    
    18   15   13 1    
    19   31   13 1    
    20   38   14 1    
    21   16   15 1    
    22   17   15 1    
    23   32   15 1    
    24   39   16 1    
    25   18   17 1    
    26   33   17 1    
    27   19   18 1    
    28   27   18 1    
    29   20   19 2    
    30   34   19 1    
    31   21   20 1    
    32   22   21 ar   
    33   27   21 ar   
    34   23   22 1    
    35   24   22 ar   
    36   35   23 1    
    37   36   23 1    
    38   25   24 ar   
    39   26   25 ar   
    40   37   25 1    
    41   27   26 ar   
@<TRIPOS>SUBSTRUCTURE
     1 ADP809      1 GROUP   
@<TRIPOS>SET

