#    Name: 2b82_ADN_1_INTS_M
#    Modification time : Mon Mar 24 20:20:47 2014

@<TRIPOS>MOLECULE
2b82_ADN_1_INTS_M
   33     0     6     0     0
SMALL
NO_CHARGES


@<TRIPOS>ATOM
      1 CA         -1.3840   11.1310   29.7810 C.3       2 GLC5        0.0000 
      2 CA          0.7680   10.7010   30.1060 C.3       6 GLL5        0.0000 
      3 CA         -3.5360   11.5610   29.4560 C.3       4 GLP5        0.0000 
      4 CA         -0.3735   10.3715   31.5335 C.3       2 GLC5        0.0000 
      5 CA         -1.5150   10.0420   32.9610 C.3       4 GLP5        0.0000 
      6 CA         -0.1860    9.0960   30.8875 C.3       2 GLC5        0.0000 
      7 CA          1.0660    9.4150   29.3380 C.3       6 GLL5        0.0000 
      8 CA         -1.4380    8.7770   32.4370 C.3       4 GLP5        0.0000 
      9 CA          1.5580    8.4310   31.1955 C.3       2 GLC5        0.0000 
     10 CA          2.0500    7.4470   33.0530 C.3       4 GLP5        0.0000 
     11 CA          3.6110    8.9200   29.6005 C.3       2 GLC5        0.0000 
     12 CA          2.0530    9.6450   28.2040 C.3       6 GLL5        0.0000 
     13 CA          5.1690    8.1950   30.9970 C.3       4 GLP5        0.0000 
     14 CA         -1.7105    8.2250   28.4010 C.3       2 GLC5        0.0000 
     15 CA         -0.0360    8.7080   27.3560 C.3       6 GLL5        0.0000 
     16 CA         -3.3850    7.7420   29.4460 C.3       4 GLP5        0.0000 
     17 O          -5.7230   10.4300   22.8445 O.2       1 ALC1        0.0000 
     18 O          -5.0720   10.7690   24.3880 O.2       5 ALL1        0.0000 
     19 O          -6.3740   10.0910   21.3010 O.2       3 ALP1        0.0000 
     20 CA         -5.2265    7.2365   26.4545 C.3       2 GLC5        0.0000 
     21 CA         -3.8390    7.5060   25.3050 C.3       6 GLL5        0.0000 
     22 CA         -6.6140    6.9670   27.6040 C.3       4 GLP5        0.0000 
     23 CA         -3.1970    8.0770   23.6580 C.3       2 GLC5        0.0000 
     24 CA         -2.5550    8.6480   22.0110 C.3       4 GLP5        0.0000 
     25 CA          2.8105   11.1487   29.6805 C.3       2 GLC5        0.0000 
     26 CA          4.1360   12.4460   30.3980 C.3       4 GLP5        0.0000 
     27 CA          0.7372    9.3855   25.2533 C.3       2 GLC5        0.0000 
     28 CA          1.3490    9.1880   26.9350 C.3       6 GLL5        0.0000 
     29 CA          0.8180    9.8230   23.3610 C.3       4 GLP5        0.0000 
     30 CA         -3.0715   10.5960   27.6525 C.3       2 GLC5        0.0000 
     31 CA         -2.2160    9.0730   26.1070 C.3       6 GLL5        0.0000 
     32 CA         -2.7395    9.0924   23.8447 C.3       2 GLC5        0.0000 
     33 CA         -2.9980   10.1890   25.5910 C.3       6 GLL5        0.0000 
@<TRIPOS>BOND
@<TRIPOS>SUBSTRUCTURE
     1 ALC1       17 GROUP        1 X    ALC  0     ROOT ALC X 1
     2 GLC5        1 GROUP        1 X    GLC  0     **** GLC X 6
     3 ALP1       19 GROUP        1 Y    ALP  0     ROOT ALP Y 8
     4 GLP5        3 GROUP        1 Y    GLP  0     **** GLP Y 13
     5 ALL1       18 GROUP        1 Z    ALL  0     ROOT ALL Z 15
     6 GLL5        2 GROUP        1 Z    GLL  0     **** GLL Z 20
@<TRIPOS>SET

