#    Name: 2b82_ADN_1_ligand
#    Modification time : Mon Mar 24 20:20:47 2014

@<TRIPOS>MOLECULE
2b82_ADN_1_ligand
   32    34     1     0     0
SMALL
NO_CHARGES


@<TRIPOS>ATOM
      1 O5'         0.1280   11.6540   29.2690 O.3       1 ADN1001     0.0000 
      2 C5'         0.7680   10.7010   30.1060 C.3       1 ADN1001     0.0000 
      3 C4'         1.0660    9.4150   29.3380 C.3       1 ADN1001     0.0000 
      4 O4'        -0.1330    8.8720   28.7760 O.3       1 ADN1001     0.0000 
      5 C3'         2.0530    9.6450   28.2040 C.3       1 ADN1001     0.0000 
      6 O3'         3.2390    8.9070   28.4520 O.3       1 ADN1001     0.0000 
      7 C2'         1.3490    9.1880   26.9350 C.3       1 ADN1001     0.0000 
      8 O2'         2.0590    8.1400   26.2860 O.3       1 ADN1001     0.0000 
      9 C1'        -0.0360    8.7080   27.3560 C.3       1 ADN1001     0.0000 
     10 N9         -1.1070    9.5090   26.6940 N.pl3     1 ADN1001     0.0000 
     11 C8         -1.1730   10.8600   26.5650 C.2       1 ADN1001     0.0000 
     12 N7         -2.2970   11.2920   25.9050 N.2       1 ADN1001     0.0000 
     13 C5         -2.9980   10.1890   25.5910 C.ar      1 ADN1001     0.0000 
     14 C6         -4.2660    9.8120   24.9090 C.ar      1 ADN1001     0.0000 
     15 N6         -5.0720   10.7690   24.3880 N.pl3     1 ADN1001     0.0000 
     16 N1         -4.6040    8.5010   24.8110 N.ar      1 ADN1001     0.0000 
     17 C2         -3.8390    7.5060   25.3050 C.ar      1 ADN1001     0.0000 
     18 N3         -2.6740    7.7140   25.9460 N.ar      1 ADN1001     0.0000 
     19 C4         -2.2160    9.0730   26.1070 C.ar      1 ADN1001     0.0000 
     20 H           0.1432   10.4326   30.9730 H         1 ADN1001     0.0000 
     21 H           1.7238   11.0803   30.5018 H         1 ADN1001     0.0000 
     22 H           1.5134    8.7027   30.0271 H         1 ADN1001     0.0000 
     23 H           2.2272   10.7000   28.1323 H         1 ADN1001     0.0000 
     24 H           1.2156   10.0475   26.3000 H         1 ADN1001     0.0000 
     25 H          -0.1321    7.6754   27.0844 H         1 ADN1001     0.0000 
     26 H          -0.4804   11.4805   26.9113 H         1 ADN1001     0.0000 
     27 H          -5.8800   10.4441   23.8966 H         1 ADN1001     0.0000 
     28 H          -4.7873   11.7153   24.5411 H         1 ADN1001     0.0000 
     29 H          -4.1761    6.5020   25.1805 H         1 ADN1001     0.0000 
     30 H           0.4249   12.5437   29.6159 H         1 ADN1001     0.0000 
     31 H           3.3775    8.3558   27.6292 H         1 ADN1001     0.0000 
     32 H           1.4946    7.3250   26.4176 H         1 ADN1001     0.0000 
@<TRIPOS>BOND
     1    2    1 1    
     2   30    1 1    
     3    3    2 1    
     4   20    2 1    
     5   21    2 1    
     6    4    3 1    
     7    5    3 1    
     8   22    3 1    
     9    9    4 1    
    10    6    5 1    
    11    7    5 1    
    12   23    5 1    
    13   31    6 1    
    14    8    7 1    
    15    9    7 1    
    16   24    7 1    
    17   32    8 1    
    18   10    9 1    
    19   25    9 1    
    20   11   10 1    
    21   19   10 1    
    22   12   11 2    
    23   26   11 1    
    24   13   12 1    
    25   14   13 ar   
    26   19   13 ar   
    27   15   14 1    
    28   16   14 ar   
    29   27   15 1    
    30   28   15 1    
    31   17   16 ar   
    32   18   17 ar   
    33   29   17 1    
    34   19   18 ar   
@<TRIPOS>SUBSTRUCTURE
     1 ADN1001     1 GROUP   
@<TRIPOS>SET

