#    Name: 2z4r_ADP_3_INTS_M
#    Modification time : Tue Mar 25 09:57:44 2014

@<TRIPOS>MOLECULE
2z4r_ADP_3_INTS_M
   64     0    15     0     0
SMALL
NO_CHARGES


@<TRIPOS>ATOM
      1 NZ         39.8585  -70.1065    4.9050 N.4       3 LYC4        0.0000 
      2 NZ         39.0760  -70.9480    3.3770 N.4      13 LYL4        0.0000 
      3 NZ         40.6410  -69.2650    6.4330 N.4       8 LYP4        0.0000 
      4 N          39.4910  -70.5025    1.8980 N.am      2 SEC2        0.0000 
      5 N          39.0760  -70.9480    3.3770 N.am     12 SEL2        0.0000 
      6 N          39.9060  -70.0570    0.4190 N.am      7 SEP2        0.0000 
      7 NZ         40.2275  -70.6950    5.9440 N.4       3 LYC4        0.0000 
      8 NZ         39.8140  -72.1250    5.4550 N.4      13 LYL4        0.0000 
      9 N          40.2275  -70.6950    5.9440 N.am      2 SEC2        0.0000 
     10 N          39.8140  -72.1250    5.4550 N.am     12 SEL2        0.0000 
     11 N          40.6410  -69.2650    6.4330 N.am      7 SEP2        0.0000 
     12 Zn         42.0330  -72.2490    2.8615 Zn        4 ZIC7        0.0000 
     13 Zn         40.9370  -72.6760    3.1690 Zn       14 ZIL7        0.0000 
     14 Zn         43.1290  -71.8220    2.5540 Zn        9 ZIP7        0.0000 
     15 N          41.3405  -72.3785    1.9450 N.am      2 SEC2        0.0000 
     16 N          40.9370  -72.6760    3.1690 N.am     12 SEL2        0.0000 
     17 N          41.7440  -72.0810    0.7210 N.am      7 SEP2        0.0000 
     18 N          37.8885  -71.8790    0.0035 N.am      2 SEC2        0.0000 
     19 N          37.4540  -72.4410    1.5840 N.am     12 SEL2        0.0000 
     20 N          38.3230  -71.3170   -1.5770 N.am      7 SEP2        0.0000 
     21 N          39.8150  -74.7520    2.8150 N.am      2 SEC2        0.0000 
     22 N          39.3020  -74.0940    1.3110 N.am     12 SEL2        0.0000 
     23 N          40.3280  -75.4100    4.3190 N.am      7 SEP2        0.0000 
     24 N          37.3925  -72.5965    4.8020 N.am      2 SEC2        0.0000 
     25 N          38.4480  -73.3720    3.7300 N.am     12 SEL2        0.0000 
     26 N          36.3370  -71.8210    5.8740 N.am      7 SEP2        0.0000 
     27 CA         37.0265  -75.3915   -1.1795 C.3       5 GLC5        0.0000 
     28 CA         36.5840  -75.0620    0.9440 C.3      15 GLL5        0.0000 
     29 CA         37.4690  -75.7210   -3.3030 C.3      10 GLP5        0.0000 
     30 CA         36.3125  -73.5695   -0.4425 C.3       5 GLC5        0.0000 
     31 CA         36.0410  -72.0770   -1.8290 C.3      10 GLP5        0.0000 
     32 CA         35.6640  -74.1735   -1.2545 C.3       5 GLC5        0.0000 
     33 CA         35.2870  -76.2700   -0.6800 C.3      15 GLL5        0.0000 
     34 CA         34.3380  -74.1305   -1.7625 C.3       5 GLC5        0.0000 
     35 CA         33.7980  -75.9400   -0.7920 C.3      15 GLL5        0.0000 
     36 CA         34.8780  -72.3210   -2.7330 C.3      10 GLP5        0.0000 
     37 CA         31.9300  -77.3740    1.1420 C.3       5 GLC5        0.0000 
     38 CA         33.3090  -75.7370    0.6670 C.3      15 GLL5        0.0000 
     39 CA         30.5510  -79.0110    1.6170 C.3      10 GLP5        0.0000 
     40 CA         33.1275  -75.6535    2.9080 C.3       5 GLC5        0.0000 
     41 CA         32.9460  -75.5700    5.1490 C.3      10 GLP5        0.0000 
     42 CA         29.7030  -71.4795   -1.2160 C.3       5 GLC5        0.0000 
     43 CA         30.2230  -71.8950    0.7840 C.3      15 GLL5        0.0000 
     44 CA         29.1830  -71.0640   -3.2160 C.3      10 GLP5        0.0000 
     45 O          28.7015  -70.0510    0.8490 O.2       1 ALC1        0.0000 
     46 O          30.0730  -70.5950    1.2340 O.2      11 ALL1        0.0000 
     47 O          27.3300  -69.5070    0.4640 O.2       6 ALP1        0.0000 
     48 N          28.2995  -71.8955   -0.7645 N.am      2 SEC2        0.0000 
     49 N          29.2230  -72.5180    0.1110 N.am     12 SEL2        0.0000 
     50 N          27.3760  -71.2730   -1.6400 N.am      7 SEP2        0.0000 
     51 CA         29.2695  -72.4200   -1.7705 C.3       5 GLC5        0.0000 
     52 CA         29.3560  -73.7760   -0.3250 C.3      15 GLL5        0.0000 
     53 CA         27.5095  -72.9085   -0.1940 C.3       5 GLC5        0.0000 
     54 CA         25.6630  -72.0410   -0.0630 C.3      10 GLP5        0.0000 
     55 CA         28.9910  -74.7360    1.0570 C.3       5 GLC5        0.0000 
     56 CA         28.6260  -75.6960    2.4390 C.3      10 GLP5        0.0000 
     57 CA         30.0740  -74.8170    1.4935 C.3       5 GLC5        0.0000 
     58 CA         31.5220  -73.9380    0.5480 C.3      15 GLL5        0.0000 
     59 CA         36.0057  -75.9130   -2.0195 C.3       5 GLC5        0.0000 
     60 CA         29.4532  -72.6965    2.3602 C.3       5 GLC5        0.0000 
     61 CA         31.4320  -72.6050    1.0250 C.3      15 GLL5        0.0000 
     62 CA         28.0790  -73.1430    3.8160 C.3      10 GLP5        0.0000 
     63 CA         31.2889  -73.4115    2.6236 C.3       5 GLC5        0.0000 
     64 CA         31.4030  -73.7290    4.5210 C.3      10 GLP5        0.0000 
@<TRIPOS>BOND
@<TRIPOS>SUBSTRUCTURE
     1 ALC1       45 GROUP        1 X    ALC  0     ROOT ALC X 1
     2 SEC2        4 GROUP        1 X    SEC  0     **** SEC X 2
     3 LYC4        1 GROUP        1 X    LYC  0     **** LYC X 4
     4 ZIC7       12 GROUP        1 X    ZIC  0     **** ZIC X 5
     5 GLC5       27 GROUP        1 X    GLC  0     **** GLC X 6
     6 ALP1       47 GROUP        1 Y    ALP  0     ROOT ALP Y 8
     7 SEP2        6 GROUP        1 Y    SEP  0     **** SEP Y 9
     8 LYP4        3 GROUP        1 Y    LYP  0     **** LYP Y 11
     9 ZIP7       14 GROUP        1 Y    ZIP  0     **** ZIP Y 12
    10 GLP5       29 GROUP        1 Y    GLP  0     **** GLP Y 13
    11 ALL1       46 GROUP        1 Z    ALL  0     ROOT ALL Z 15
    12 SEL2        5 GROUP        1 Z    SEL  0     **** SEL Z 16
    13 LYL4        2 GROUP        1 Z    LYL  0     **** LYL Z 18
    14 ZIL7       13 GROUP        1 Z    ZIL  0     **** ZIL Z 19
    15 GLL5       28 GROUP        1 Z    GLL  0     **** GLL Z 20
@<TRIPOS>SET

