#    Name: 2z4r_ADP_3_ligand
#    Modification time : Tue Mar 25 09:57:44 2014

@<TRIPOS>MOLECULE
2z4r_ADP_3_ligand
   39    41     1     0     0
SMALL
NO_CHARGES


@<TRIPOS>ATOM
      1 PB         39.5620  -72.2330    3.8920 P.3       1 ADP503      0.0000 
      2 O1B        39.0760  -70.9480    3.3770 O.co2     1 ADP503      0.0000 
      3 O2B        39.8140  -72.1250    5.4550 O.co2     1 ADP503      0.0000 
      4 O3B        40.9370  -72.6760    3.1690 O.co2     1 ADP503      0.0000 
      5 PA         38.0250  -73.6430    2.1870 P.3       1 ADP503      0.0000 
      6 O1A        37.4540  -72.4410    1.5840 O.co2     1 ADP503      0.0000 
      7 O2A        39.3020  -74.0940    1.3110 O.co2     1 ADP503      0.0000 
      8 O3A        38.4480  -73.3720    3.7300 O.3       1 ADP503      0.0000 
      9 O5'        36.9510  -74.8320    2.2660 O.3       1 ADP503      0.0000 
     10 C5'        36.5840  -75.0620    0.9440 C.3       1 ADP503      0.0000 
     11 C4'        35.6040  -76.2020    0.7980 C.3       1 ADP503      0.0000 
     12 O4'        34.4020  -76.0080    1.5760 O.3       1 ADP503      0.0000 
     13 C3'        35.2870  -76.2700   -0.6800 C.3       1 ADP503      0.0000 
     14 O3'        35.6370  -77.5470   -1.2290 O.3       1 ADP503      0.0000 
     15 C2'        33.7980  -75.9400   -0.7920 C.3       1 ADP503      0.0000 
     16 O2'        33.0850  -77.0120   -1.4620 O.3       1 ADP503      0.0000 
     17 C1'        33.3090  -75.7370    0.6670 C.3       1 ADP503      0.0000 
     18 N9         32.7600  -74.3860    0.9200 N.pl3     1 ADP503      0.0000 
     19 C8         33.3720  -73.3590    1.5760 C.2       1 ADP503      0.0000 
     20 N7         32.5930  -72.3190    1.6350 N.2       1 ADP503      0.0000 
     21 C5         31.4320  -72.6050    1.0250 C.ar      1 ADP503      0.0000 
     22 C6         30.2230  -71.8950    0.7840 C.ar      1 ADP503      0.0000 
     23 N6         30.0730  -70.5950    1.2340 N.pl3     1 ADP503      0.0000 
     24 N1         29.2230  -72.5180    0.1110 N.ar      1 ADP503      0.0000 
     25 C2         29.3560  -73.7760   -0.3250 C.ar      1 ADP503      0.0000 
     26 N3         30.4760  -74.4760   -0.1120 N.ar      1 ADP503      0.0000 
     27 C4         31.5220  -73.9380    0.5480 C.ar      1 ADP503      0.0000 
     28 H          37.4645  -75.2992    0.3016 H         1 ADP503      0.0000 
     29 H          36.1163  -74.1628    0.4781 H         1 ADP503      0.0000 
     30 H          36.1116  -77.1165    1.0645 H         1 ADP503      0.0000 
     31 H          35.8317  -75.4595   -1.1598 H         1 ADP503      0.0000 
     32 H          33.7035  -75.0041   -1.3000 H         1 ADP503      0.0000 
     33 H          32.5161  -76.4810    0.8361 H         1 ADP503      0.0000 
     34 H          34.2860  -73.4302    1.9444 H         1 ADP503      0.0000 
     35 H          30.8725  -70.1870    1.6749 H         1 ADP503      0.0000 
     36 H          29.1781  -70.1763    1.0793 H         1 ADP503      0.0000 
     37 H          28.5578  -74.2270   -0.8497 H         1 ADP503      0.0000 
     38 H          36.3685  -77.8902   -0.6397 H         1 ADP503      0.0000 
     39 H          33.7725  -77.7208   -1.6201 H         1 ADP503      0.0000 
@<TRIPOS>BOND
     1    2    1 ar   
     2    3    1 ar   
     3    4    1 ar   
     4    8    1 1    
     5    6    5 ar   
     6    7    5 ar   
     7    8    5 1    
     8    9    5 1    
     9   10    9 1    
    10   11   10 1    
    11   28   10 1    
    12   29   10 1    
    13   12   11 1    
    14   13   11 1    
    15   30   11 1    
    16   17   12 1    
    17   14   13 1    
    18   15   13 1    
    19   31   13 1    
    20   38   14 1    
    21   16   15 1    
    22   17   15 1    
    23   32   15 1    
    24   39   16 1    
    25   18   17 1    
    26   33   17 1    
    27   19   18 1    
    28   27   18 1    
    29   20   19 2    
    30   34   19 1    
    31   21   20 1    
    32   22   21 ar   
    33   27   21 ar   
    34   23   22 1    
    35   24   22 ar   
    36   35   23 1    
    37   36   23 1    
    38   25   24 ar   
    39   26   25 ar   
    40   37   25 1    
    41   27   26 ar   
@<TRIPOS>SUBSTRUCTURE
     1 ADP503      1 GROUP   
@<TRIPOS>SET

