#    Name: 1c3r_TSN_2_INTS_M
#    Modification time : Mon Mar 24 20:16:15 2014

@<TRIPOS>MOLECULE
1c3r_TSN_2_INTS_M
   68     0    12     0     0
SMALL
NO_CHARGES


@<TRIPOS>ATOM
      1 Zn         51.9565    1.3765   85.5545 Zn        3 ZIC7        0.0000 
      2 Zn         50.9640    0.9110   85.4280 Zn       11 ZIL7        0.0000 
      3 Zn         52.9490    1.8420   85.6810 Zn        7 ZIP7        0.0000 
      4 N          50.6740   -0.2890   84.8760 N.am      2 SEC2        0.0000 
      5 N          50.9640    0.9110   85.4280 N.am     10 SEL2        0.0000 
      6 N          50.3840   -1.4890   84.3240 N.am      6 SEP2        0.0000 
      7 Zn         52.1020    2.5830   86.1675 Zn        3 ZIC7        0.0000 
      8 Zn         51.2550    3.3240   86.6540 Zn       11 ZIL7        0.0000 
      9 N          50.6805    4.2890   86.2300 N.am      2 SEC2        0.0000 
     10 N          51.2550    3.3240   86.6540 N.am     10 SEL2        0.0000 
     11 N          50.1060    5.2540   85.8060 N.am      6 SEP2        0.0000 
     12 O          49.6655    0.1745   87.0480 O.2       1 ALC1        0.0000 
     13 O          50.3470    1.2210   86.6340 O.2       9 ALL1        0.0000 
     14 O          48.9840   -0.8720   87.4620 O.2       5 ALP1        0.0000 
     15 CA         51.7855    8.5750   92.3665 C.3       4 GLC5        0.0000 
     16 CA         50.0410    8.8690   93.4950 C.3      12 GLL5        0.0000 
     17 CA         53.5300    8.2810   91.2380 C.3       8 GLP5        0.0000 
     18 CA         51.0520    6.0675   90.4890 C.3       4 GLC5        0.0000 
     19 CA         50.1340    4.5520   91.5180 C.3      12 GLL5        0.0000 
     20 CA         51.9700    7.5830   89.4600 C.3       8 GLP5        0.0000 
     21 CA         49.5700    1.8785   91.6635 C.3       4 GLC5        0.0000 
     22 CA         49.4190    3.8070   90.6160 C.3      12 GLL5        0.0000 
     23 CA         49.7210   -0.0500   92.7110 C.3       8 GLP5        0.0000 
     24 CA         51.8890    2.2035   89.5365 C.3       4 GLC5        0.0000 
     25 CA         50.1180    3.5530   89.3270 C.3      12 GLL5        0.0000 
     26 CA         53.6600    0.8540   89.7460 C.3       8 GLP5        0.0000 
     27 CA         51.0440    5.5680   89.3935 C.3       4 GLC5        0.0000 
     28 CA         48.7385    1.0305   87.7195 C.3       4 GLC5        0.0000 
     29 CA         49.7620    2.6240   88.4090 C.3      12 GLL5        0.0000 
     30 CA         47.7150   -0.5630   87.0300 C.3       8 GLP5        0.0000 
     31 CA         48.4380    4.2375   88.1255 C.3       4 GLC5        0.0000 
     32 CA         47.1140    5.8510   87.8420 C.3       8 GLP5        0.0000 
     33 CA         51.6055    1.5495   88.4345 C.3       4 GLC5        0.0000 
     34 CA         53.4490    0.4750   88.4600 C.3       8 GLP5        0.0000 
     35 CA         49.5645    1.0455   89.9320 C.3       4 GLC5        0.0000 
     36 CA         49.3670   -0.5330   91.4550 C.3       8 GLP5        0.0000 
     37 CA         50.6800    2.1410   93.5145 C.3       4 GLC5        0.0000 
     38 CA         50.2080    4.0190   93.9940 C.3      12 GLL5        0.0000 
     39 CA         51.1520    0.2630   93.0350 C.3       8 GLP5        0.0000 
     40 CA         46.5895    2.2595   90.1935 C.3       4 GLC5        0.0000 
     41 CA         48.0130    3.2700   90.8630 C.3      12 GLL5        0.0000 
     42 CA         45.1660    1.2490   89.5240 C.3       8 GLP5        0.0000 
     43 CA         47.6740    4.9640   90.4775 C.3       4 GLC5        0.0000 
     44 CA         47.3350    6.6580   90.0920 C.3       8 GLP5        0.0000 
     45 CA         48.6900    1.3685   91.1590 C.3       4 GLC5        0.0000 
     46 CA         47.0690   11.9585   95.5925 C.3       4 GLC5        0.0000 
     47 CA         47.6990   12.4560   93.8830 C.3      12 GLL5        0.0000 
     48 CA         46.4390   11.4610   97.3020 C.3       8 GLP5        0.0000 
     49 CA         47.4430   11.6290   91.9295 C.3       4 GLC5        0.0000 
     50 CA         47.1870   10.8020   89.9760 C.3       8 GLP5        0.0000 
     51 CA         46.0245   11.2840   95.4905 C.3       4 GLC5        0.0000 
     52 CA         45.6100   11.1070   93.6790 C.3      12 GLL5        0.0000 
     53 CA         45.3505   12.0150   91.7010 C.3       4 GLC5        0.0000 
     54 CA         45.0910   12.9230   89.7230 C.3       8 GLP5        0.0000 
     55 CA         46.3985   10.9545   91.8275 C.3       4 GLC5        0.0000 
     56 CA         44.6740    9.4650   94.5190 C.3       4 GLC5        0.0000 
     57 CA         43.7380    7.8230   95.3590 C.3       8 GLP5        0.0000 
     58 CA         48.6985    9.0215   91.7047 C.3       4 GLC5        0.0000 
     59 CA         48.0350    7.5290   93.2670 C.3      12 GLL5        0.0000 
     60 CA         48.6580   10.4890   90.1240 C.3       8 GLP5        0.0000 
     61 CA         48.0950    9.9015   91.8072 C.3       4 GLC5        0.0000 
     62 CA         47.2270    8.6570   93.3980 C.3      12 GLL5        0.0000 
     63 CA         49.1578    9.9660   91.8423 C.3       4 GLC5        0.0000 
     64 CA         49.2740   10.0170   93.6260 C.3      12 GLL5        0.0000 
     65 CA         48.6300    5.7185   91.1518 C.3       4 GLC5        0.0000 
     66 CA         49.7160    5.0060   92.9050 C.3      12 GLL5        0.0000 
     67 CA         48.8222    5.0710   89.4023 C.3       4 GLC5        0.0000 
     68 CA         47.8760    6.4620   88.8330 C.3       8 GLP5        0.0000 
@<TRIPOS>BOND
@<TRIPOS>SUBSTRUCTURE
     1 ALC1       12 GROUP        1 X    ALC  0     ROOT ALC X 1
     2 SEC2        4 GROUP        1 X    SEC  0     **** SEC X 2
     3 ZIC7        1 GROUP        1 X    ZIC  0     **** ZIC X 5
     4 GLC5       15 GROUP        1 X    GLC  0     **** GLC X 6
     5 ALP1       14 GROUP        1 Y    ALP  0     ROOT ALP Y 8
     6 SEP2        6 GROUP        1 Y    SEP  0     **** SEP Y 9
     7 ZIP7        3 GROUP        1 Y    ZIP  0     **** ZIP Y 12
     8 GLP5       17 GROUP        1 Y    GLP  0     **** GLP Y 13
     9 ALL1       13 GROUP        1 Z    ALL  0     ROOT ALL Z 15
    10 SEL2        5 GROUP        1 Z    SEL  0     **** SEL Z 16
    11 ZIL7        2 GROUP        1 Z    ZIL  0     **** ZIL Z 19
    12 GLL5       16 GROUP        1 Z    GLL  0     **** GLL Z 20
@<TRIPOS>SET

