#    Name: 1c3r_TSN_2_ligand
#    Modification time : Mon Mar 24 20:16:15 2014

@<TRIPOS>MOLECULE
1c3r_TSN_2_ligand
   43    43     1     0     0
SMALL
NO_CHARGES


@<TRIPOS>ATOM
      1 O1         50.9640    0.9110   85.4280 O.3       1 TSN504      0.0000 
      2 O2         51.2550    3.3240   86.6540 O.2       1 TSN504      0.0000 
      3 O3         51.5690    6.5120   93.2190 O.2       1 TSN504      0.0000 
      4 N1         50.3470    1.2210   86.6340 N.am      1 TSN504      0.0000 
      5 N2         47.0610   11.1390   93.7130 N.pl3     1 TSN504      0.0000 
      6 C1         49.4430    7.5790   93.3040 C.ar      1 TSN504      0.0000 
      7 C2         48.0350    7.5290   93.2670 C.ar      1 TSN504      0.0000 
      8 C3         47.2270    8.6570   93.3980 C.ar      1 TSN504      0.0000 
      9 C4         47.8370    9.9710   93.5830 C.ar      1 TSN504      0.0000 
     10 C5         49.2740   10.0170   93.6260 C.ar      1 TSN504      0.0000 
     11 C6         50.0410    8.8690   93.4950 C.ar      1 TSN504      0.0000 
     12 C7         50.3490    6.4050   93.1670 C.2       1 TSN504      0.0000 
     13 C8         49.7160    5.0060   92.9050 C.3       1 TSN504      0.0000 
     14 C9         50.1340    4.5520   91.5180 C.2       1 TSN504      0.0000 
     15 C10        49.4190    3.8070   90.6160 C.2       1 TSN504      0.0000 
     16 C11        50.1180    3.5530   89.3270 C.2       1 TSN504      0.0000 
     17 C12        49.7620    2.6240   88.4090 C.2       1 TSN504      0.0000 
     18 C13        50.5290    2.4620   87.1700 C.2       1 TSN504      0.0000 
     19 C14        50.2080    4.0190   93.9940 C.3       1 TSN504      0.0000 
     20 C15        48.0130    3.2700   90.8630 C.3       1 TSN504      0.0000 
     21 C17        47.6990   12.4560   93.8830 C.3       1 TSN504      0.0000 
     22 C16        45.6100   11.1070   93.6790 C.3       1 TSN504      0.0000 
     23 H          49.7657    0.5189   87.1049 H         1 TSN504      0.0000 
     24 H          47.5795    6.5950   93.1342 H         1 TSN504      0.0000 
     25 H          46.2137    8.5965   93.3689 H         1 TSN504      0.0000 
     26 H          49.7240   10.9365   93.7583 H         1 TSN504      0.0000 
     27 H          51.0732    8.9229   93.5332 H         1 TSN504      0.0000 
     28 H          48.6606    5.1000   92.9606 H         1 TSN504      0.0000 
     29 H          51.1225    4.8825   91.2597 H         1 TSN504      0.0000 
     30 H          50.9578    4.1781   89.1622 H         1 TSN504      0.0000 
     31 H          48.9532    2.0017   88.5362 H         1 TSN504      0.0000 
     32 H          51.2035    3.9243   93.9870 H         1 TSN504      0.0000 
     33 H          49.9486    4.3193   94.9119 H         1 TSN504      0.0000 
     34 H          49.8256    3.1039   93.8660 H         1 TSN504      0.0000 
     35 H          47.6706    2.7512   90.0796 H         1 TSN504      0.0000 
     36 H          47.9823    2.6598   91.6547 H         1 TSN504      0.0000 
     37 H          47.3590    4.0067   91.0352 H         1 TSN504      0.0000 
     38 H          48.2684   12.4896   94.7044 H         1 TSN504      0.0000 
     39 H          48.2881   12.6861   93.1084 H         1 TSN504      0.0000 
     40 H          47.0230   13.1884   93.9648 H         1 TSN504      0.0000 
     41 H          45.2668   10.7339   92.8170 H         1 TSN504      0.0000 
     42 H          45.2337   10.5421   94.4134 H         1 TSN504      0.0000 
     43 H          45.2159   12.0204   93.7805 H         1 TSN504      0.0000 
@<TRIPOS>BOND
     1    4    1 1    
     2   18    2 2    
     3   12    3 2    
     4   18    4 am   
     5   23    4 1    
     6    9    5 1    
     7   21    5 1    
     8   22    5 1    
     9    7    6 ar   
    10   11    6 ar   
    11   12    6 1    
    12    8    7 ar   
    13   24    7 1    
    14    9    8 ar   
    15   25    8 1    
    16   10    9 ar   
    17   11   10 ar   
    18   26   10 1    
    19   27   11 1    
    20   13   12 1    
    21   14   13 1    
    22   19   13 1    
    23   28   13 1    
    24   15   14 2    
    25   29   14 1    
    26   16   15 1    
    27   20   15 1    
    28   17   16 2    
    29   30   16 1    
    30   18   17 1    
    31   31   17 1    
    32   32   19 1    
    33   33   19 1    
    34   34   19 1    
    35   35   20 1    
    36   36   20 1    
    37   37   20 1    
    38   38   21 1    
    39   39   21 1    
    40   40   21 1    
    41   41   22 1    
    42   42   22 1    
    43   43   22 1    
@<TRIPOS>SUBSTRUCTURE
     1 TSN504      1 GROUP   
@<TRIPOS>SET

