#    Name: 1ivh_COS_1_INTS_M
#    Modification time : Tue Mar 25 08:10:53 2014

@<TRIPOS>MOLECULE
1ivh_COS_1_INTS_M
   73     0    12     0     0
SMALL
NO_CHARGES


@<TRIPOS>ATOM
      1 CA         38.2445   44.3740    5.1495 C.3       4 GLC5        0.0000 
      2 CA         37.3950   43.3140    6.5830 C.3      12 GLL5        0.0000 
      3 CA         39.0940   45.4340    3.7160 C.3       8 GLP5        0.0000 
      4 O          34.3680   45.7280    3.8985 O.2       1 ALC1        0.0000 
      5 O          35.2360   44.2780    3.9140 O.2       9 ALL1        0.0000 
      6 O          33.5000   47.1780    3.8830 O.2       5 ALP1        0.0000 
      7 CA         40.3455   41.0845    6.1900 C.3       4 GLC5        0.0000 
      8 CA         40.0760   40.7380    4.3090 C.3      12 GLL5        0.0000 
      9 CA         40.6150   41.4310    8.0710 C.3       8 GLP5        0.0000 
     10 CA         40.0875   42.7145    3.5705 C.3       4 GLC5        0.0000 
     11 CA         40.0990   44.6910    2.8320 C.3       8 GLP5        0.0000 
     12 NZ         44.2100   36.0500    6.3040 N.4       3 LYC4        0.0000 
     13 NZ         43.1230   36.6870    4.7880 N.4      11 LYL4        0.0000 
     14 NZ         45.2970   35.4130    7.8200 N.4       7 LYP4        0.0000 
     15 NZ         44.1335   36.5925    7.4615 N.4       3 LYC4        0.0000 
     16 NZ         42.9700   37.7720    7.1030 N.4      11 LYL4        0.0000 
     17 CA         41.6055   42.1090    0.9145 C.3       4 GLC5        0.0000 
     18 CA         41.8900   39.9730    1.5230 C.3      12 GLL5        0.0000 
     19 CA         41.3210   44.2450    0.3060 C.3       8 GLP5        0.0000 
     20 CA         41.0350   42.4285   -6.8305 C.3       4 GLC5        0.0000 
     21 CA         39.7030   42.7250   -5.6490 C.3      12 GLL5        0.0000 
     22 CA         42.3670   42.1320   -8.0120 C.3       8 GLP5        0.0000 
     23 CA         35.9990   43.5895   -4.1575 C.3       4 GLC5        0.0000 
     24 CA         37.7260   43.1650   -4.2170 C.3      12 GLL5        0.0000 
     25 CA         34.2720   44.0140   -4.0980 C.3       8 GLP5        0.0000 
     26 CA         41.8760   45.2535   -2.8910 C.3       4 GLC5        0.0000 
     27 CA         40.0630   44.0710   -3.4210 C.3      12 GLL5        0.0000 
     28 CA         43.6890   46.4360   -2.3610 C.3       8 GLP5        0.0000 
     29 CA         40.6920   44.1580   -1.5575 C.3       4 GLC5        0.0000 
     30 N          37.5245   47.0805   -3.3310 N.am      2 SEC2        0.0000 
     31 N          38.6780   46.0100   -3.0910 N.am     10 SEL2        0.0000 
     32 N          36.3710   48.1510   -3.5710 N.am      6 SEP2        0.0000 
     33 O          41.3495   45.7720   -5.5780 O.2       1 ALC1        0.0000 
     34 O          40.2610   46.1950   -4.7260 O.2       9 ALL1        0.0000 
     35 O          42.4380   45.3490   -6.4300 O.2       5 ALP1        0.0000 
     36 CA         41.2415   47.1825   -6.7230 C.3       4 GLC5        0.0000 
     37 CA         39.9130   47.5480   -5.1120 C.3      12 GLL5        0.0000 
     38 CA         42.5700   46.8170   -8.3340 C.3       8 GLP5        0.0000 
     39 CA         38.6610   48.9780   -6.2085 C.3       4 GLC5        0.0000 
     40 CA         37.4090   50.4080   -7.3050 C.3       8 GLP5        0.0000 
     41 CA         38.6430   46.4970   -6.0525 C.3       4 GLC5        0.0000 
     42 CA         37.3730   45.4460   -6.9930 C.3       8 GLP5        0.0000 
     43 CA         42.2700   47.4995   -3.4190 C.3       4 GLC5        0.0000 
     44 CA         40.8510   48.5630   -4.4770 C.3      12 GLL5        0.0000 
     45 CA         40.0965   48.6570   -2.5245 C.3       4 GLC5        0.0000 
     46 CA         39.3420   48.7510   -0.5720 C.3       8 GLP5        0.0000 
     47 N          37.6930   49.1270   -3.9725 N.am      2 SEC2        0.0000 
     48 N          39.0150   50.1030   -4.3740 N.am     10 SEL2        0.0000 
     49 CA         39.8290   51.8115   -2.1855 C.3       4 GLC5        0.0000 
     50 CA         40.5180   52.4130   -4.1940 C.3      12 GLL5        0.0000 
     51 CA         39.1400   51.2100   -0.1770 C.3       8 GLP5        0.0000 
     52 CA         38.8410   53.0255   -4.7750 C.3       4 GLC5        0.0000 
     53 CA         37.1640   53.6380   -5.3560 C.3       8 GLP5        0.0000 
     54 CA         39.0625   54.3775   -4.5525 C.3       4 GLC5        0.0000 
     55 CA         40.9610   55.1170   -3.7490 C.3      12 GLL5        0.0000 
     56 CA         39.3705   55.4205   -7.1415 C.3       4 GLC5        0.0000 
     57 CA         40.5410   55.4680   -5.7030 C.3      12 GLL5        0.0000 
     58 CA         38.2000   55.3730   -8.5800 C.3       8 GLP5        0.0000 
     59 CA         38.8525   54.5530   -5.5295 C.3       4 GLC5        0.0000 
     60 CA         42.1190   55.9645   -5.6635 C.3       4 GLC5        0.0000 
     61 CA         43.6970   56.4610   -5.6240 C.3       8 GLP5        0.0000 
     62 CA         37.9889   44.2532    4.1113 C.3       4 GLC5        0.0000 
     63 CA         37.0840   42.7530    4.0010 C.3      12 GLL5        0.0000 
     64 CA         42.9480   41.5995    3.0375 C.3       4 GLC5        0.0000 
     65 CA         42.0000   40.1210    3.0450 C.3      12 GLL5        0.0000 
     66 CA         43.9510   43.1520    3.7910 C.3       8 GLP5        0.0000 
     67 CA         43.7334   39.8184    2.8941 C.3       4 GLC5        0.0000 
     68 CA         45.6690   39.8980    3.3200 C.3       8 GLP5        0.0000 
     69 CA         37.9861   44.2225   -5.7833 C.3       4 GLC5        0.0000 
     70 CA         42.1578   52.0255   -2.5208 C.3       4 GLC5        0.0000 
     71 CA         43.2740   51.1450   -1.0800 C.3       8 GLP5        0.0000 
     72 CA         42.4800   55.3595   -4.6815 C.3       4 GLC5        0.0000 
     73 CA         41.5650   53.3990   -3.7290 C.3      12 GLL5        0.0000 
@<TRIPOS>BOND
@<TRIPOS>SUBSTRUCTURE
     1 ALC1        4 GROUP        1 X    ALC  0     ROOT ALC X 1
     2 SEC2       30 GROUP        1 X    SEC  0     **** SEC X 2
     3 LYC4       12 GROUP        1 X    LYC  0     **** LYC X 4
     4 GLC5        1 GROUP        1 X    GLC  0     **** GLC X 6
     5 ALP1        6 GROUP        1 Y    ALP  0     ROOT ALP Y 8
     6 SEP2       32 GROUP        1 Y    SEP  0     **** SEP Y 9
     7 LYP4       14 GROUP        1 Y    LYP  0     **** LYP Y 11
     8 GLP5        3 GROUP        1 Y    GLP  0     **** GLP Y 13
     9 ALL1        5 GROUP        1 Z    ALL  0     ROOT ALL Z 15
    10 SEL2       31 GROUP        1 Z    SEL  0     **** SEL Z 16
    11 LYL4       13 GROUP        1 Z    LYL  0     **** LYL Z 18
    12 GLL5        2 GROUP        1 Z    GLL  0     **** GLL Z 20
@<TRIPOS>SET

