#    Name: 1ivh_COS_1_ligand
#    Modification time : Tue Mar 25 08:10:53 2014

@<TRIPOS>MOLECULE
1ivh_COS_1_ligand
   80    82     1     0     0
SMALL
NO_CHARGES


@<TRIPOS>ATOM
      1 N1A        36.3790   43.9130    5.9420 N.ar      1 COS400      0.0000 
      2 C2A        37.3950   43.3140    6.5830 C.ar      1 COS400      0.0000 
      3 N3A        38.3020   42.4580    6.1030 N.ar      1 COS400      0.0000 
      4 C4A        38.0830   42.2190    4.7910 C.ar      1 COS400      0.0000 
      5 C5A        37.0840   42.7530    4.0010 C.ar      1 COS400      0.0000 
      6 C6A        36.1840   43.6590    4.6170 C.ar      1 COS400      0.0000 
      7 N6A        35.2360   44.2780    3.9140 N.pl3     1 COS400      0.0000 
      8 N7A        37.1840   42.2760    2.6720 N.2       1 COS400      0.0000 
      9 C8A        38.2200   41.4880    2.7170 C.2       1 COS400      0.0000 
     10 N9A        38.8230   41.4100    3.9720 N.pl3     1 COS400      0.0000 
     11 C1B        40.0760   40.7380    4.3090 C.3       1 COS400      0.0000 
     12 C2B        39.9190   39.2880    3.8350 C.3       1 COS400      0.0000 
     13 O2B        39.1660   38.6000    4.8330 O.3       1 COS400      0.0000 
     14 C3B        41.4110   38.8880    3.7820 C.3       1 COS400      0.0000 
     15 O3B        41.9570   38.8330    5.1360 O.3       1 COS400      0.0000 
     16 P3B        42.2830   37.3450    5.8360 P.3       1 COS400      0.0000 
     17 O7A        43.1230   36.6870    4.7880 O.co2     1 COS400      0.0000 
     18 O8A        40.9520   36.7000    6.0830 O.co2     1 COS400      0.0000 
     19 O9A        42.9700   37.7720    7.1030 O.co2     1 COS400      0.0000 
     20 C4B        42.0000   40.1210    3.0450 C.3       1 COS400      0.0000 
     21 O4B        41.1940   41.2450    3.4930 O.3       1 COS400      0.0000 
     22 C5B        41.8900   39.9730    1.5230 C.3       1 COS400      0.0000 
     23 O5B        40.5660   39.9650    1.0080 O.3       1 COS400      0.0000 
     24 P1A        40.1280   39.2810   -0.3970 P.3       1 COS400      0.0000 
     25 O1A        40.0880   37.7910   -0.1550 O.co2     1 COS400      0.0000 
     26 O2A        38.8990   40.0140   -0.8440 O.co2     1 COS400      0.0000 
     27 O3A        41.3920   39.6800   -1.3870 O.3       1 COS400      0.0000 
     28 P2A        41.5520   40.0970   -2.9550 P.3       1 COS400      0.0000 
     29 O4A        43.0000   40.4970   -3.2170 O.co2     1 COS400      0.0000 
     30 O5A        40.8590   39.1480   -3.9070 O.co2     1 COS400      0.0000 
     31 O6A        40.6870   41.4800   -2.8700 O.3       1 COS400      0.0000 
     32 CBP        39.2420   42.9410   -4.2110 C.3       1 COS400      0.0000 
     33 CCP        39.3870   41.6160   -3.4830 C.3       1 COS400      0.0000 
     34 CDP        39.7030   42.7250   -5.6490 C.3       1 COS400      0.0000 
     35 CEP        37.7260   43.1650   -4.2170 C.3       1 COS400      0.0000 
     36 CAP        40.0630   44.0710   -3.4210 C.3       1 COS400      0.0000 
     37 OAP        41.4830   44.0040   -3.6860 O.3       1 COS400      0.0000 
     38 C9P        39.5970   45.4960   -3.7330 C.2       1 COS400      0.0000 
     39 O9P        38.6780   46.0100   -3.0910 O.2       1 COS400      0.0000 
     40 N8P        40.2610   46.1950   -4.7260 N.am      1 COS400      0.0000 
     41 C7P        39.9130   47.5480   -5.1120 C.3       1 COS400      0.0000 
     42 C6P        40.8510   48.5630   -4.4770 C.3       1 COS400      0.0000 
     43 C5P        40.2440   49.9550   -4.3910 C.2       1 COS400      0.0000 
     44 O5P        39.0150   50.1030   -4.3740 O.2       1 COS400      0.0000 
     45 N4P        41.0620   51.0870   -4.3200 N.am      1 COS400      0.0000 
     46 C3P        40.5180   52.4130   -4.1940 C.3       1 COS400      0.0000 
     47 C2P        41.5650   53.3990   -3.7290 C.3       1 COS400      0.0000 
     48 S1P        40.9610   55.1170   -3.7490 S.3       1 COS400      0.0000 
     49 S'P        40.5410   55.4680   -5.7030 S.3       1 COS400      0.0000 
     50 H          37.4932   43.5650    7.6564 H         1 COS400      0.0000 
     51 H          35.1639   44.0205    2.9504 H         1 COS400      0.0000 
     52 H          34.6821   44.9442    4.4134 H         1 COS400      0.0000 
     53 H          38.5888   40.9632    1.9446 H         1 COS400      0.0000 
     54 H          40.2910   40.7394    5.3180 H         1 COS400      0.0000 
     55 H          39.5277   39.2997    2.8831 H         1 COS400      0.0000 
     56 H          41.5321   38.0556    3.2129 H         1 COS400      0.0000 
     57 H          43.0097   40.2341    3.3346 H         1 COS400      0.0000 
     58 H          42.4396   39.0367    1.2468 H         1 COS400      0.0000 
     59 H          42.4972   40.7990    1.0713 H         1 COS400      0.0000 
     60 H          38.5847   41.5521   -2.7277 H         1 COS400      0.0000 
     61 H          39.2056   40.8056   -4.2100 H         1 COS400      0.0000 
     62 H          39.8805   43.8943   -2.3518 H         1 COS400      0.0000 
     63 H          41.0538   45.7501   -5.2371 H         1 COS400      0.0000 
     64 H          38.8849   47.7933   -4.8046 H         1 COS400      0.0000 
     65 H          39.9644   47.6715   -6.2046 H         1 COS400      0.0000 
     66 H          41.7791   48.6111   -5.0635 H         1 COS400      0.0000 
     67 H          41.1169   48.2237   -3.4662 H         1 COS400      0.0000 
     68 H          42.0895   50.9862   -4.3577 H         1 COS400      0.0000 
     69 H          39.6834   52.4321   -3.4721 H         1 COS400      0.0000 
     70 H          40.1145   52.7692   -5.1575 H         1 COS400      0.0000 
     71 H          42.4245   53.4588   -4.3699 H         1 COS400      0.0000 
     72 H          41.8543   53.2777   -2.7020 H         1 COS400      0.0000 
     73 H          40.6556   42.4239   -5.6924 H         1 COS400      0.0000 
     74 H          39.1545   42.0304   -6.1145 H         1 COS400      0.0000 
     75 H          39.6356   43.5630   -6.1905 H         1 COS400      0.0000 
     76 H          37.4784   44.0181   -4.6763 H         1 COS400      0.0000 
     77 H          37.2434   42.4272   -4.6890 H         1 COS400      0.0000 
     78 H          37.3539   43.2126   -3.2900 H         1 COS400      0.0000 
     79 H          39.8201   37.9838    5.2716 H         1 COS400      0.0000 
     80 H          41.7839   43.1466   -3.2685 H         1 COS400      0.0000 
@<TRIPOS>BOND
     1    2    1 ar   
     2    6    1 ar   
     3    3    2 ar   
     4   50    2 1    
     5    4    3 ar   
     6    5    4 ar   
     7   10    4 1    
     8    6    5 ar   
     9    8    5 1    
    10    7    6 1    
    11   51    7 1    
    12   52    7 1    
    13    9    8 2    
    14   10    9 1    
    15   53    9 1    
    16   11   10 1    
    17   12   11 1    
    18   21   11 1    
    19   54   11 1    
    20   13   12 1    
    21   14   12 1    
    22   55   12 1    
    23   79   13 1    
    24   15   14 1    
    25   20   14 1    
    26   56   14 1    
    27   16   15 1    
    28   17   16 ar   
    29   18   16 ar   
    30   19   16 ar   
    31   21   20 1    
    32   22   20 1    
    33   57   20 1    
    34   23   22 1    
    35   58   22 1    
    36   59   22 1    
    37   24   23 1    
    38   25   24 ar   
    39   26   24 ar   
    40   27   24 1    
    41   28   27 1    
    42   29   28 ar   
    43   30   28 ar   
    44   31   28 1    
    45   33   31 1    
    46   33   32 1    
    47   34   32 1    
    48   35   32 1    
    49   36   32 1    
    50   60   33 1    
    51   61   33 1    
    52   73   34 1    
    53   74   34 1    
    54   75   34 1    
    55   76   35 1    
    56   77   35 1    
    57   78   35 1    
    58   37   36 1    
    59   38   36 1    
    60   62   36 1    
    61   80   37 1    
    62   39   38 2    
    63   40   38 am   
    64   41   40 1    
    65   63   40 1    
    66   42   41 1    
    67   64   41 1    
    68   65   41 1    
    69   43   42 1    
    70   66   42 1    
    71   67   42 1    
    72   44   43 2    
    73   45   43 am   
    74   46   45 1    
    75   68   45 1    
    76   47   46 1    
    77   69   46 1    
    78   70   46 1    
    79   48   47 1    
    80   71   47 1    
    81   72   47 1    
    82   49   48 1    
@<TRIPOS>SUBSTRUCTURE
     1 COS400      1 GROUP   
@<TRIPOS>SET

