#    Name: 3unz_0BZ_1_INTS_M
#    Modification time : Mon Mar 24 23:07:03 2014

@<TRIPOS>MOLECULE
3unz_0BZ_1_INTS_M
   68     0    12     0     0
SMALL
NO_CHARGES


@<TRIPOS>ATOM
      1 CA        -27.1935   11.4390   10.4900 C.3       4 GLC5        0.0000 
      2 CA        -27.6050   12.0540    8.8310 C.3      12 GLL5        0.0000 
      3 CA        -26.7820   10.8240   12.1490 C.3       8 GLP5        0.0000 
      4 CA        -25.8770   12.4855    9.6815 C.3       4 GLC5        0.0000 
      5 CA        -24.1490   12.9170   10.5320 C.3       8 GLP5        0.0000 
      6 O         -30.8840    7.7610   13.4595 O.2       1 ALC1        0.0000 
      7 O         -30.7620    7.8950   12.2310 O.2       9 ALL1        0.0000 
      8 O         -31.0060    7.6270   14.6880 O.2       5 ALP1        0.0000 
      9 N         -28.4860    6.6180   13.1710 N.am      2 SEC2        0.0000 
     10 N         -28.5500    7.1610   11.8340 N.am     10 SEL2        0.0000 
     11 N         -28.4220    6.0750   14.5080 N.am      6 SEP2        0.0000 
     12 CA        -31.6485    6.9865   10.4825 C.3       4 GLC5        0.0000 
     13 CA        -32.0310    8.4640   11.8840 C.3      12 GLL5        0.0000 
     14 CA        -31.2660    5.5090    9.0810 C.3       8 GLP5        0.0000 
     15 CA        -30.6225   10.6735   11.5745 C.3       4 GLC5        0.0000 
     16 CA        -32.1640    9.4890   10.9580 C.3      12 GLL5        0.0000 
     17 CA        -29.0810   11.8580   12.1910 C.3       8 GLP5        0.0000 
     18 CA        -30.4245    6.7090   10.2515 C.3       4 GLC5        0.0000 
     19 CA        -29.5830    7.9090   11.4220 C.3      12 GLL5        0.0000 
     20 CA        -28.9525    8.1395   13.3755 C.3       4 GLC5        0.0000 
     21 CA        -28.3220    8.3700   15.3290 C.3       8 GLP5        0.0000 
     22 CA        -29.3320    9.8835   11.8065 C.3       4 GLC5        0.0000 
     23 CA        -29.8400    7.0845    9.3205 C.3       4 GLC5        0.0000 
     24 CA        -28.4140    8.6600    9.5600 C.3      12 GLL5        0.0000 
     25 CA        -27.4545    5.5655   12.3760 C.3       4 GLC5        0.0000 
     26 CA        -27.4100    7.1220   11.1270 C.3      12 GLL5        0.0000 
     27 CA        -27.4990    4.0090   13.6250 C.3       8 GLP5        0.0000 
     28 CA        -27.8660    7.7460   13.2280 C.3       4 GLC5        0.0000 
     29 CA        -31.7935   13.6705    6.1905 C.3       4 GLC5        0.0000 
     30 CA        -30.9990   12.6310    7.7340 C.3      12 GLL5        0.0000 
     31 CA        -32.5880   14.7100    4.6470 C.3       8 GLP5        0.0000 
     32 CA        -29.2740   12.6165    6.0175 C.3       4 GLC5        0.0000 
     33 CA        -29.7120   12.8790    8.1870 C.3      12 GLL5        0.0000 
     34 CA        -28.8360   12.3540    3.8480 C.3       8 GLP5        0.0000 
     35 NZ        -37.2755   10.8400   13.1320 N.4       3 LYC4        0.0000 
     36 NZ        -36.8390    9.8220   11.8860 N.4      11 LYL4        0.0000 
     37 NZ        -37.7120   11.8580   14.3780 N.4       7 LYP4        0.0000 
     38 CA        -32.7120    8.4350    9.2752 C.3       4 GLC5        0.0000 
     39 CA        -33.4240   10.0090   10.6850 C.3      12 GLL5        0.0000 
     40 CA        -32.6300    7.1210    7.7290 C.3       8 GLP5        0.0000 
     41 CA        -33.4245   10.4817   12.6225 C.3       4 GLC5        0.0000 
     42 CA        -32.8640   11.2070   14.2330 C.3       8 GLP5        0.0000 
     43 CA        -33.7752    6.8620   10.8260 C.3       4 GLC5        0.0000 
     44 CA        -34.4060    8.4860   12.2660 C.3      12 GLL5        0.0000 
     45 CA        -33.7720    5.4940    9.2510 C.3       8 GLP5        0.0000 
     46 CA        -33.3212    9.7185   13.3170 C.3       4 GLC5        0.0000 
     47 CA        -33.1510    7.9740   12.5360 C.3      12 GLL5        0.0000 
     48 CA        -32.4808   10.0918   12.8270 C.3       4 GLC5        0.0000 
     49 CA        -28.0353    7.3395    8.0010 C.3       4 GLC5        0.0000 
     50 CA        -28.1990    6.4070    6.2400 C.3       8 GLP5        0.0000 
     51 CA        -27.4133    5.8345    9.9378 C.3       4 GLC5        0.0000 
     52 CA        -27.3290    7.8840    9.9640 C.3      12 GLL5        0.0000 
     53 CA        -27.4570    4.1660    9.3300 C.3       8 GLP5        0.0000 
     54 CA        -25.5963    7.9570   11.0602 C.3       4 GLC5        0.0000 
     55 CA        -23.8230    8.4110   11.5750 C.3       8 GLP5        0.0000 
     56 CA        -27.2114    9.2605   11.2967 C.3       4 GLC5        0.0000 
     57 CA        -29.0022    9.4100    6.3375 C.3       4 GLC5        0.0000 
     58 CA        -29.2500   10.5250    8.1520 C.3      12 GLL5        0.0000 
     59 CA        -28.1120    8.4190    4.7490 C.3       8 GLP5        0.0000 
     60 CA        -31.8013    8.9620    7.6625 C.3       4 GLC5        0.0000 
     61 CA        -30.5350   10.2770    7.7000 C.3      12 GLL5        0.0000 
     62 CA        -31.9494   10.9915    6.0980 C.3       4 GLC5        0.0000 
     63 CA        -32.9130   10.2660    4.5310 C.3       8 GLP5        0.0000 
     64 CA        -30.7837   13.8870    9.5823 C.3       4 GLC5        0.0000 
     65 CA        -31.2120   15.0190   11.2040 C.3       8 GLP5        0.0000 
     66 CA        -30.5614   11.6355    5.7555 C.3       4 GLC5        0.0000 
     67 CA        -30.1370   11.5540    3.8460 C.3       8 GLP5        0.0000 
     68 CA        -29.2296   11.9424   10.2109 C.3       4 GLC5        0.0000 
@<TRIPOS>BOND
@<TRIPOS>SUBSTRUCTURE
     1 ALC1        6 GROUP        1 X    ALC  0     ROOT ALC X 1
     2 SEC2        9 GROUP        1 X    SEC  0     **** SEC X 2
     3 LYC4       35 GROUP        1 X    LYC  0     **** LYC X 4
     4 GLC5        1 GROUP        1 X    GLC  0     **** GLC X 6
     5 ALP1        8 GROUP        1 Y    ALP  0     ROOT ALP Y 8
     6 SEP2       11 GROUP        1 Y    SEP  0     **** SEP Y 9
     7 LYP4       37 GROUP        1 Y    LYP  0     **** LYP Y 11
     8 GLP5        3 GROUP        1 Y    GLP  0     **** GLP Y 13
     9 ALL1        7 GROUP        1 Z    ALL  0     ROOT ALL Z 15
    10 SEL2       10 GROUP        1 Z    SEL  0     **** SEL Z 16
    11 LYL4       36 GROUP        1 Z    LYL  0     **** LYL Z 18
    12 GLL5        2 GROUP        1 Z    GLL  0     **** GLL Z 20
@<TRIPOS>SET

