#    Name: 3unz_0BZ_1_ligand
#    Modification time : Mon Mar 24 23:07:04 2014

@<TRIPOS>MOLECULE
3unz_0BZ_1_ligand
   36    38     1     0     0
SMALL
NO_CHARGES


@<TRIPOS>ATOM
      1 F24       -27.6050   12.0540    8.8310 F         1 0BZ2        0.0000 
      2 N01       -30.7620    7.8950   12.2310 N.pl3     1 0BZ2        0.0000 
      3 N02       -29.5290    8.6500   10.3110 N.ar      1 0BZ2        0.0000 
      4 N03       -28.5500    7.1610   11.8340 N.ar      1 0BZ2        0.0000 
      5 N04       -28.3440    9.4390    8.3650 N.pl3     1 0BZ2        0.0000 
      6 C05       -33.4240   10.0090   10.6850 C.ar      1 0BZ2        0.0000 
      7 C06       -34.5460    9.5040   11.3390 C.ar      1 0BZ2        0.0000 
      8 C07       -34.4060    8.4860   12.2660 C.ar      1 0BZ2        0.0000 
      9 C08       -33.1510    7.9740   12.5360 C.ar      1 0BZ2        0.0000 
     10 C09       -32.0310    8.4640   11.8840 C.ar      1 0BZ2        0.0000 
     11 C10       -32.1640    9.4890   10.9580 C.ar      1 0BZ2        0.0000 
     12 C11       -35.9130   10.0370   11.0640 C.2       1 0BZ2        0.0000 
     13 C12       -29.5830    7.9090   11.4220 C.ar      1 0BZ2        0.0000 
     14 C13       -28.4140    8.6600    9.5600 C.ar      1 0BZ2        0.0000 
     15 C14       -27.3290    7.8840    9.9640 C.ar      1 0BZ2        0.0000 
     16 C15       -27.4100    7.1220   11.1270 C.ar      1 0BZ2        0.0000 
     17 C16       -29.2500   10.5250    8.1520 C.ar      1 0BZ2        0.0000 
     18 C17       -30.5350   10.2770    7.7000 C.ar      1 0BZ2        0.0000 
     19 C18       -31.4100   11.3290    7.4920 C.ar      1 0BZ2        0.0000 
     20 C19       -30.9990   12.6310    7.7340 C.ar      1 0BZ2        0.0000 
     21 C20       -29.7120   12.8790    8.1870 C.ar      1 0BZ2        0.0000 
     22 C21       -28.8390   11.8240    8.3970 C.ar      1 0BZ2        0.0000 
     23 O25       -36.8390    9.8220   11.8860 O.co2     1 0BZ2        0.0000 
     24 O26       -36.1410   10.6970   10.0160 O.co2     1 0BZ2        0.0000 
     25 H         -30.6924    7.4201   13.1752 H         1 0BZ2        0.0000 
     26 H         -27.6434    9.2201    7.6581 H         1 0BZ2        0.0000 
     27 H         -33.5298   10.7683    9.9989 H         1 0BZ2        0.0000 
     28 H         -35.2326    8.1128   12.7513 H         1 0BZ2        0.0000 
     29 H         -33.0449    7.2155   13.2332 H         1 0BZ2        0.0000 
     30 H         -31.3377    9.8617   10.4770 H         1 0BZ2        0.0000 
     31 H         -26.4679    7.8744    9.4025 H         1 0BZ2        0.0000 
     32 H         -26.6074    6.5545   11.4150 H         1 0BZ2        0.0000 
     33 H         -30.8395    9.3097    7.5186 H         1 0BZ2        0.0000 
     34 H         -32.3669   11.1459    7.1574 H         1 0BZ2        0.0000 
     35 H         -31.6493   13.4137    7.5774 H         1 0BZ2        0.0000 
     36 H         -29.4066   13.8450    8.3666 H         1 0BZ2        0.0000 
@<TRIPOS>BOND
     1   22    1 1    
     2   10    2 1    
     3   13    2 1    
     4   25    2 1    
     5   13    3 ar   
     6   14    3 ar   
     7   13    4 ar   
     8   16    4 ar   
     9   14    5 1    
    10   17    5 1    
    11   26    5 1    
    12    7    6 ar   
    13   11    6 ar   
    14   27    6 1    
    15    8    7 ar   
    16   12    7 1    
    17    9    8 ar   
    18   28    8 1    
    19   10    9 ar   
    20   29    9 1    
    21   11   10 ar   
    22   30   11 1    
    23   23   12 ar   
    24   24   12 ar   
    25   15   14 ar   
    26   16   15 ar   
    27   31   15 1    
    28   32   16 1    
    29   18   17 ar   
    30   22   17 ar   
    31   19   18 ar   
    32   33   18 1    
    33   20   19 ar   
    34   34   19 1    
    35   21   20 ar   
    36   35   20 1    
    37   22   21 ar   
    38   36   21 1    
@<TRIPOS>SUBSTRUCTURE
     1 0BZ2        1 GROUP   
@<TRIPOS>SET

