#    Name: 2h3w_HC5_1_INTS_M
#    Modification time : Tue Mar 25 15:29:49 2014

@<TRIPOS>MOLECULE
2h3w_HC5_1_INTS_M
   60     0     6     0     0
SMALL
NO_CHARGES


@<TRIPOS>ATOM
      1 CA         55.9405    3.6770   -0.2780 C.3       2 GLC5        0.0000 
      2 CA         57.0980    5.0820   -0.5130 C.3       6 GLL5        0.0000 
      3 CA         54.7830    2.2720   -0.0430 C.3       4 GLP5        0.0000 
      4 CA         56.4555    4.2635   -2.4195 C.3       2 GLC5        0.0000 
      5 CA         55.8130    3.4450   -4.3260 C.3       4 GLP5        0.0000 
      6 CA         59.3135    6.2805    0.7980 C.3       2 GLC5        0.0000 
      7 CA         57.7410    6.4710   -0.4820 C.3       6 GLL5        0.0000 
      8 CA         60.8860    6.0900    2.0780 C.3       4 GLP5        0.0000 
      9 CA         59.0840    8.1625    0.1245 C.3       2 GLC5        0.0000 
     10 CA         60.4270    9.8540    0.7310 C.3       4 GLP5        0.0000 
     11 CA         60.2165    9.0555   -3.2695 C.3       2 GLC5        0.0000 
     12 CA         58.9520    8.2200   -1.8670 C.3       6 GLL5        0.0000 
     13 CA         61.4810    9.8910   -4.6720 C.3       4 GLP5        0.0000 
     14 CA         58.0070    8.9730   -3.5915 C.3       2 GLC5        0.0000 
     15 CA         57.0620    9.7260   -5.3160 C.3       4 GLP5        0.0000 
     16 CA         56.3830    9.2815   -0.4020 C.3       2 GLC5        0.0000 
     17 CA         58.0360    9.3920   -1.5110 C.3       6 GLL5        0.0000 
     18 CA         54.7300    9.1710    0.7070 C.3       4 GLP5        0.0000 
     19 CA         56.9445    9.5265   -3.0665 C.3       2 GLC5        0.0000 
     20 CA         55.8530    9.6610   -4.6220 C.3       4 GLP5        0.0000 
     21 N          57.8760   11.7360    0.4240 N.am      1 SEC2        0.0000 
     22 N          58.4300   11.7640   -0.8210 N.am      5 SEL2        0.0000 
     23 N          57.3220   11.7080    1.6690 N.am      3 SEP2        0.0000 
     24 N          62.5830   15.3670    1.4315 N.am      1 SEC2        0.0000 
     25 N          61.2230   15.1450    1.0110 N.am      5 SEL2        0.0000 
     26 N          63.9430   15.5890    1.8520 N.am      3 SEP2        0.0000 
     27 N          60.8705   15.0055    2.3175 N.am      1 SEC2        0.0000 
     28 N          60.5180   14.8660    3.6240 N.am      3 SEP2        0.0000 
     29 N          62.1185   15.5830   -1.2725 N.am      1 SEC2        0.0000 
     30 N          61.7840   14.3380   -0.8700 N.am      5 SEL2        0.0000 
     31 N          62.4530   16.8280   -1.6750 N.am      3 SEP2        0.0000 
     32 N          62.0580   13.3790   -1.8485 N.am      1 SEC2        0.0000 
     33 N          62.3320   12.4200   -2.8270 N.am      3 SEP2        0.0000 
     34 CA         56.3095   16.3230   -4.2100 C.3       2 GLC5        0.0000 
     35 CA         57.2430   15.2560   -3.1730 C.3       6 GLL5        0.0000 
     36 CA         55.3760   17.3900   -5.2470 C.3       4 GLP5        0.0000 
     37 CA         55.9955   12.2545   -4.3510 C.3       2 GLC5        0.0000 
     38 CA         56.9260   12.9070   -2.9300 C.3       6 GLL5        0.0000 
     39 CA         55.0650   11.6020   -5.7720 C.3       4 GLP5        0.0000 
     40 CA         60.5475   14.8515   -3.8585 C.3       2 GLC5        0.0000 
     41 CA         58.9880   13.7730   -3.8250 C.3       6 GLL5        0.0000 
     42 CA         62.1070   15.9300   -3.8920 C.3       4 GLP5        0.0000 
     43 CA         58.1300   12.2590   -5.0380 C.3       2 GLC5        0.0000 
     44 CA         57.2720   10.7450   -6.2510 C.3       4 GLP5        0.0000 
     45 CA         56.6417    6.0217    1.1392 C.3       2 GLC5        0.0000 
     46 CA         55.8640    6.2670    2.7760 C.3       4 GLP5        0.0000 
     47 CA         58.9342    5.3128   -1.7123 C.3       2 GLC5        0.0000 
     48 CA         60.4490    4.8490   -2.9270 C.3       4 GLP5        0.0000 
     49 CA         56.1091    7.1214   -0.6039 C.3       2 GLC5        0.0000 
     50 CA         58.2130    6.8790   -1.8780 C.3       6 GLL5        0.0000 
     51 CA         54.4020    7.9150   -0.0200 C.3       4 GLP5        0.0000 
     52 CA         59.5157    6.1993   -2.3998 C.3       2 GLC5        0.0000 
     53 CA         58.5142    6.7812   -3.7177 C.3       2 GLC5        0.0000 
     54 CA         58.4460    6.0130   -5.5630 C.3       4 GLP5        0.0000 
     55 CA         59.4605    9.3300   -0.4790 C.3       2 GLC5        0.0000 
     56 CA         58.8320   12.3468    1.2140 C.3       2 GLC5        0.0000 
     57 CA         59.2860   12.9020   -1.0220 C.3       6 GLL5        0.0000 
     58 CA         58.0160   11.6390    2.7920 C.3       4 GLP5        0.0000 
     59 CA         60.0375   11.4543    0.1835 C.3       2 GLC5        0.0000 
     60 CA         60.0100   13.2070    0.2940 C.3       6 GLL5        0.0000 
@<TRIPOS>BOND
@<TRIPOS>SUBSTRUCTURE
     1 SEC2       21 GROUP        1 X    SEC  0     ROOT SEC X 2
     2 GLC5        1 GROUP        1 X    GLC  0     **** GLC X 6
     3 SEP2       23 GROUP        1 Y    SEP  0     ROOT SEP Y 9
     4 GLP5        3 GROUP        1 Y    GLP  0     **** GLP Y 13
     5 SEL2       22 GROUP        1 Z    SEL  0     ROOT SEL Z 16
     6 GLL5        2 GROUP        1 Z    GLL  0     **** GLL Z 20
@<TRIPOS>SET

