#    Name: 2h3w_HC5_1_ligand
#    Modification time : Tue Mar 25 15:29:49 2014

@<TRIPOS>MOLECULE
2h3w_HC5_1_ligand
   43    42     1     0     0
SMALL
NO_CHARGES


@<TRIPOS>ATOM
      1 CAC        57.0980    5.0820   -0.5130 C.3       1 HC51602     0.0000 
      2 CAD        57.7410    6.4710   -0.4820 C.3       1 HC51602     0.0000 
      3 CAE        58.2130    6.8790   -1.8780 C.3       1 HC51602     0.0000 
      4 CAF        58.9520    8.2200   -1.8670 C.3       1 HC51602     0.0000 
      5 CAG        58.0360    9.3920   -1.5110 C.3       1 HC51602     0.0000 
      6 CAH        58.8000   10.7160   -1.6050 C.2       1 HC51602     0.0000 
      7 OAI        59.7270   10.8370   -2.4040 O.2       1 HC51602     0.0000 
      8 OAK        58.4300   11.7640   -0.8210 O.3       1 HC51602     0.0000 
      9 CAP        59.2860   12.9020   -1.0220 C.3       1 HC51602     0.0000 
     10 CAQ        60.0100   13.2070    0.2940 C.3       1 HC51602     0.0000 
     11 CAR        61.0650   14.3060    0.1410 C.2       1 HC51602     0.0000 
     12 OAL        61.2230   15.1450    1.0110 O.co2     1 HC51602     0.0000 
     13 OAS        61.7840   14.3380   -0.8700 O.co2     1 HC51602     0.0000 
     14 CAO        58.4620   14.1170   -1.4760 C.3       1 HC51602     0.0000 
     15 NAN        57.9190   13.9930   -2.8390 N.4       1 HC51602     0.0000 
     16 CAT        57.2430   15.2560   -3.1730 C.3       1 HC51602     0.0000 
     17 CAJ        56.9260   12.9070   -2.9300 C.3       1 HC51602     0.0000 
     18 CAM        58.9880   13.7730   -3.8250 C.3       1 HC51602     0.0000 
     19 H          58.5920    6.4566    0.1952 H         1 HC51602     0.0000 
     20 H          57.0128    7.1948   -0.1230 H         1 HC51602     0.0000 
     21 H          57.3472    6.9536   -2.5420 H         1 HC51602     0.0000 
     22 H          58.8800    6.1066   -2.2713 H         1 HC51602     0.0000 
     23 H          59.3897    8.3948   -2.8561 H         1 HC51602     0.0000 
     24 H          59.7703    8.1710   -1.1400 H         1 HC51602     0.0000 
     25 H          57.6654    9.2637   -0.4977 H         1 HC51602     0.0000 
     26 H          57.1959    9.4138   -2.1998 H         1 HC51602     0.0000 
     27 H          60.0311   12.6973   -1.7728 H         1 HC51602     0.0000 
     28 H          60.4942   12.2936    0.6551 H         1 HC51602     0.0000 
     29 H          59.2740   13.5189    1.0424 H         1 HC51602     0.0000 
     30 H          59.1083   15.0128   -1.3988 H         1 HC51602     0.0000 
     31 H          57.6418   14.2621   -0.7463 H         1 HC51602     0.0000 
     32 H          57.7389    4.3830   -0.8302 H         1 HC51602     0.0000 
     33 H          56.7806    4.7994    0.3922 H         1 HC51602     0.0000 
     34 H          56.3065    5.0527   -1.1235 H         1 HC51602     0.0000 
     35 H          57.8711   16.0334   -3.1402 H         1 HC51602     0.0000 
     36 H          56.8501   15.2351   -4.0924 H         1 HC51602     0.0000 
     37 H          56.4957   15.4561   -2.5394 H         1 HC51602     0.0000 
     38 H          57.3207   12.0214   -2.6854 H         1 HC51602     0.0000 
     39 H          56.1501   13.0610   -2.3183 H         1 HC51602     0.0000 
     40 H          56.5568   12.8179   -3.8551 H         1 HC51602     0.0000 
     41 H          59.6439   14.5278   -3.8363 H         1 HC51602     0.0000 
     42 H          59.5046   12.9387   -3.6327 H         1 HC51602     0.0000 
     43 H          58.6253   13.6859   -4.7528 H         1 HC51602     0.0000 
@<TRIPOS>BOND
     1    2    1 1    
     2   32    1 1    
     3   33    1 1    
     4   34    1 1    
     5    3    2 1    
     6   19    2 1    
     7   20    2 1    
     8    4    3 1    
     9   21    3 1    
    10   22    3 1    
    11    5    4 1    
    12   23    4 1    
    13   24    4 1    
    14    6    5 1    
    15   25    5 1    
    16   26    5 1    
    17    7    6 2    
    18    8    6 1    
    19    9    8 1    
    20   10    9 1    
    21   14    9 1    
    22   27    9 1    
    23   11   10 1    
    24   28   10 1    
    25   29   10 1    
    26   12   11 ar   
    27   13   11 ar   
    28   15   14 1    
    29   30   14 1    
    30   31   14 1    
    31   16   15 1    
    32   17   15 1    
    33   18   15 1    
    34   35   16 1    
    35   36   16 1    
    36   37   16 1    
    37   38   17 1    
    38   39   17 1    
    39   40   17 1    
    40   41   18 1    
    41   42   18 1    
    42   43   18 1    
@<TRIPOS>SUBSTRUCTURE
     1 HC51602     1 GROUP   
@<TRIPOS>SET

