#    Name: 3tz3_B36_3_INTS_M
#    Modification time : Mon Mar 24 21:11:42 2014

@<TRIPOS>MOLECULE
3tz3_B36_3_INTS_M
   85     0     6     0     0
SMALL
NO_CHARGES


@<TRIPOS>ATOM
      1 CA        -39.1320  -27.3900  -15.2445 C.3       2 GLC5        0.0000 
      2 CA        -40.0200  -27.7880  -13.6890 C.3       6 GLL5        0.0000 
      3 CA        -38.2440  -26.9920  -16.8000 C.3       4 GLP5        0.0000 
      4 CA        -38.3695  -28.7875  -13.3605 C.3       2 GLC5        0.0000 
      5 CA        -36.7190  -29.7870  -13.0320 C.3       4 GLP5        0.0000 
      6 CA        -45.8450  -30.9655  -15.6245 C.3       2 GLC5        0.0000 
      7 CA        -43.6770  -31.2230  -16.0250 C.3       6 GLL5        0.0000 
      8 CA        -48.0130  -30.7080  -15.2240 C.3       4 GLP5        0.0000 
      9 N         -46.7340  -28.4910  -14.9125 N.am      1 SEC2        0.0000 
     10 N         -45.3300  -28.6620  -15.1760 N.am      5 SEL2        0.0000 
     11 N         -48.1380  -28.3200  -14.6490 N.am      3 SEP2        0.0000 
     12 CA        -45.5695  -25.7570  -16.4235 C.3       2 GLC5        0.0000 
     13 CA        -45.5680  -27.3260  -17.6730 C.3       6 GLL5        0.0000 
     14 CA        -45.5710  -24.1880  -15.1740 C.3       4 GLP5        0.0000 
     15 CA        -47.3735  -29.5245  -17.6360 C.3       2 GLC5        0.0000 
     16 CA        -46.1520  -28.3390  -18.6420 C.3       6 GLL5        0.0000 
     17 CA        -48.5950  -30.7100  -16.6300 C.3       4 GLP5        0.0000 
     18 CA        -43.1990  -33.4415  -26.1810 C.3       2 GLC5        0.0000 
     19 CA        -42.1640  -32.0080  -25.0460 C.3       6 GLL5        0.0000 
     20 CA        -44.2340  -34.8750  -27.3160 C.3       4 GLP5        0.0000 
     21 CA        -43.6235  -30.2810  -26.4005 C.3       2 GLC5        0.0000 
     22 CA        -41.6650  -30.8240  -25.5530 C.3       6 GLL5        0.0000 
     23 CA        -45.5820  -29.7380  -27.2480 C.3       4 GLP5        0.0000 
     24 CA        -42.0375  -31.0780  -28.3945 C.3       2 GLC5        0.0000 
     25 CA        -40.6830  -30.8540  -26.6630 C.3       6 GLL5        0.0000 
     26 CA        -43.3920  -31.3020  -30.1260 C.3       4 GLP5        0.0000 
     27 CA        -44.2380  -29.6465  -25.6760 C.3       2 GLC5        0.0000 
     28 CA        -42.8940  -29.5550  -24.1040 C.3       6 GLL5        0.0000 
     29 CA        -43.1940  -27.5100  -25.6285 C.3       2 GLC5        0.0000 
     30 CA        -43.3040  -28.3280  -23.6240 C.3       6 GLL5        0.0000 
     31 CA        -43.0840  -26.6920  -27.6330 C.3       4 GLP5        0.0000 
     32 CA        -43.1108  -27.7242  -13.4187 C.3       2 GLC5        0.0000 
     33 CA        -42.3860  -26.7550  -14.6990 C.3       6 GLL5        0.0000 
     34 CA        -43.9620  -28.0160  -12.0930 C.3       4 GLP5        0.0000 
     35 CA        -43.5427  -25.3783  -13.5805 C.3       2 GLC5        0.0000 
     36 CA        -45.1570  -24.4150  -12.7730 C.3       4 GLP5        0.0000 
     37 CA        -40.1593  -26.1218  -15.3803 C.3       2 GLC5        0.0000 
     38 CA        -41.4710  -25.9280  -14.0770 C.3       6 GLL5        0.0000 
     39 CA        -39.4360  -26.0580  -16.9360 C.3       4 GLP5        0.0000 
     40 CA        -42.4222  -27.1008  -12.9588 C.3       2 GLC5        0.0000 
     41 CA        -40.2940  -26.4430  -13.5720 C.3       6 GLL5        0.0000 
     42 CA        -41.0512  -25.1348  -12.4853 C.3       2 GLC5        0.0000 
     43 CA        -41.2200  -24.0840  -11.1460 C.3       4 GLP5        0.0000 
     44 CA        -39.6000  -27.3682  -11.8747 C.3       2 GLC5        0.0000 
     45 CA        -39.0430  -27.6210  -10.1190 C.3       4 GLP5        0.0000 
     46 CA        -40.5186  -27.0421  -15.7251 C.3       2 GLC5        0.0000 
     47 CA        -42.1330  -28.1100  -14.7900 C.3       6 GLL5        0.0000 
     48 CA        -39.0707  -30.1790  -14.7632 C.3       2 GLC5        0.0000 
     49 CA        -40.9430  -28.6200  -14.2840 C.3       6 GLL5        0.0000 
     50 CA        -37.3360  -31.0640  -15.1980 C.3       4 GLP5        0.0000 
     51 CA        -41.8342  -31.7645  -13.3777 C.3       2 GLC5        0.0000 
     52 CA        -40.6680  -29.9680  -14.3730 C.3       6 GLL5        0.0000 
     53 CA        -42.5450  -33.1320  -12.0910 C.3       4 GLP5        0.0000 
     54 CA        -42.2684  -28.5510  -13.1364 C.3       2 GLC5        0.0000 
     55 CA        -39.3830  -31.2807  -15.1045 C.3       2 GLC5        0.0000 
     56 CA        -41.5790  -30.8260  -14.9560 C.3       6 GLL5        0.0000 
     57 CA        -41.2700  -31.2152  -16.8810 C.3       2 GLC5        0.0000 
     58 CA        -41.2810  -32.1690  -15.0660 C.3       6 GLL5        0.0000 
     59 CA        -41.1100  -30.9330  -18.7510 C.3       4 GLP5        0.0000 
     60 CA        -42.1345  -32.8682  -13.7285 C.3       2 GLC5        0.0000 
     61 CA        -41.9395  -31.8667  -17.3270 C.3       2 GLC5        0.0000 
     62 CA        -42.1670  -33.0400  -15.6660 C.3       6 GLL5        0.0000 
     63 CA        -43.5547  -31.8793  -14.0789 C.3       2 GLC5        0.0000 
     64 CA        -42.7830  -30.3410  -15.4450 C.3       6 GLL5        0.0000 
     65 CA        -43.9560  -32.6420  -12.3940 C.3       4 GLP5        0.0000 
     66 CA        -43.4387  -28.8382  -13.7490 C.3       2 GLC5        0.0000 
     67 CA        -42.1245  -30.4070  -17.1505 C.3       2 GLC5        0.0000 
     68 CA        -43.0480  -28.9800  -15.3650 C.3       6 GLL5        0.0000 
     69 CA        -42.3547  -26.9935  -19.3550 C.3       2 GLC5        0.0000 
     70 CA        -43.3050  -28.1200  -18.1320 C.3       6 GLL5        0.0000 
     71 CA        -41.1440  -25.4720  -19.9860 C.3       4 GLP5        0.0000 
     72 CA        -42.3377  -29.7240  -18.7375 C.3       2 GLC5        0.0000 
     73 CA        -45.0817  -31.1200  -24.3622 C.3       2 GLC5        0.0000 
     74 CA        -44.3580  -30.6240  -22.5120 C.3       6 GLL5        0.0000 
     75 CA        -46.2630  -31.5780  -25.7000 C.3       4 GLP5        0.0000 
     76 CA        -46.8150  -30.3899  -22.0933 C.3       2 GLC5        0.0000 
     77 CA        -48.8330  -30.7910  -22.1960 C.3       4 GLP5        0.0000 
     78 CA        -42.4416  -31.9785  -22.0304 C.3       2 GLC5        0.0000 
     79 CA        -41.4000  -32.6540  -20.5460 C.3       4 GLP5        0.0000 
     80 CA        -44.4390  -31.7770  -25.1127 C.3       2 GLC5        0.0000 
     81 CA        -43.0660  -31.9440  -24.0050 C.3       6 GLL5        0.0000 
     82 CA        -39.7144  -31.9395  -24.8446 C.3       2 GLC5        0.0000 
     83 CA        -38.1300  -32.7440  -23.7080 C.3       4 GLP5        0.0000 
     84 CA        -41.7225  -28.1419  -22.9130 C.3       2 GLC5        0.0000 
     85 CA        -39.7830  -27.6890  -22.5930 C.3       4 GLP5        0.0000 
@<TRIPOS>BOND
@<TRIPOS>SUBSTRUCTURE
     1 SEC2        9 GROUP        1 X    SEC  0     ROOT SEC X 2
     2 GLC5        1 GROUP        1 X    GLC  0     **** GLC X 6
     3 SEP2       11 GROUP        1 Y    SEP  0     ROOT SEP Y 9
     4 GLP5        3 GROUP        1 Y    GLP  0     **** GLP Y 13
     5 SEL2       10 GROUP        1 Z    SEL  0     ROOT SEL Z 16
     6 GLL5        2 GROUP        1 Z    GLL  0     **** GLL Z 20
@<TRIPOS>SET

