#    Name: 3tz3_B36_3_ligand
#    Modification time : Mon Mar 24 21:11:42 2014

@<TRIPOS>MOLECULE
3tz3_B36_3_ligand
   62    67     1     0     0
SMALL
NO_CHARGES


@<TRIPOS>ATOM
      1 CBE       -42.1330  -28.1100  -14.7900 C.ar      1 B362242     0.0000 
      2 CAK       -42.3860  -26.7550  -14.6990 C.ar      1 B362242     0.0000 
      3 CAE       -41.4710  -25.9280  -14.0770 C.ar      1 B362242     0.0000 
      4 CAC       -40.2940  -26.4430  -13.5720 C.ar      1 B362242     0.0000 
      5 CAI       -40.0200  -27.7880  -13.6890 C.ar      1 B362242     0.0000 
      6 CBB       -40.9430  -28.6200  -14.2840 C.ar      1 B362242     0.0000 
      7 CAP       -40.6680  -29.9680  -14.3730 C.ar      1 B362242     0.0000 
      8 CBC       -41.5790  -30.8260  -14.9560 C.ar      1 B362242     0.0000 
      9 CAJ       -41.2810  -32.1690  -15.0660 C.ar      1 B362242     0.0000 
     10 CAD       -42.1670  -33.0400  -15.6660 C.ar      1 B362242     0.0000 
     11 CAF       -43.3710  -32.5610  -16.1400 C.ar      1 B362242     0.0000 
     12 CAL       -43.6770  -31.2230  -16.0250 C.ar      1 B362242     0.0000 
     13 CBF       -42.7830  -30.3410  -15.4450 C.ar      1 B362242     0.0000 
     14 CAZ       -43.0480  -28.9800  -15.3650 C.ar      1 B362242     0.0000 
     15 CAW       -44.3420  -28.4750  -15.8840 C.2       1 B362242     0.0000 
     16 OAB       -45.3300  -28.6620  -15.1760 O.2       1 B362242     0.0000 
     17 NBH       -44.3300  -27.8560  -17.1410 N.am      1 B362242     0.0000 
     18 CAT       -45.5680  -27.3260  -17.6730 C.3       1 B362242     0.0000 
     19 CAR       -46.1520  -28.3390  -18.6420 C.3       1 B362242     0.0000 
     20 CAS       -43.3050  -28.1200  -18.1320 C.3       1 B362242     0.0000 
     21 CAQ       -43.8260  -28.9100  -19.3160 C.3       1 B362242     0.0000 
     22 CBG       -45.1830  -28.4430  -19.7940 C.3       1 B362242     0.0000 
     23 CAU       -45.7270  -29.3130  -20.9060 C.3       1 B362242     0.0000 
     24 CAY       -44.7450  -29.3940  -22.0320 C.ar      1 B362242     0.0000 
     25 CAO       -44.3580  -30.6240  -22.5120 C.ar      1 B362242     0.0000 
     26 CBA       -43.4430  -30.7000  -23.5370 C.ar      1 B362242     0.0000 
     27 CAM       -43.0660  -31.9440  -24.0050 C.ar      1 B362242     0.0000 
     28 CAG       -42.1640  -32.0080  -25.0460 C.ar      1 B362242     0.0000 
     29 CAX       -41.6650  -30.8240  -25.5530 C.ar      1 B362242     0.0000 
     30 CAA       -40.6830  -30.8540  -26.6630 C.3       1 B362242     0.0000 
     31 NAV       -42.0040  -29.6080  -25.1070 N.ar      1 B362242     0.0000 
     32 CBD       -42.8940  -29.5550  -24.1040 C.ar      1 B362242     0.0000 
     33 CAN       -43.3040  -28.3280  -23.6240 C.ar      1 B362242     0.0000 
     34 CAH       -44.2250  -28.2480  -22.6020 C.ar      1 B362242     0.0000 
     35 H         -43.2526  -26.3634  -15.0930 H         1 B362242     0.0000 
     36 H         -41.6693  -24.9166  -13.9893 H         1 B362242     0.0000 
     37 H         -39.6174  -25.8168  -13.1051 H         1 B362242     0.0000 
     38 H         -39.1318  -28.1688  -13.3344 H         1 B362242     0.0000 
     39 H         -39.7772  -30.3383  -14.0023 H         1 B362242     0.0000 
     40 H         -40.3821  -32.5270  -14.6939 H         1 B362242     0.0000 
     41 H         -41.9324  -34.0361  -15.7590 H         1 B362242     0.0000 
     42 H         -44.0441  -33.2085  -16.5822 H         1 B362242     0.0000 
     43 H         -44.5865  -30.8705  -16.3761 H         1 B362242     0.0000 
     44 H         -45.4001  -26.3928  -18.2103 H         1 B362242     0.0000 
     45 H         -46.2951  -27.1486  -16.8807 H         1 B362242     0.0000 
     46 H         -47.1054  -27.9910  -18.9950 H         1 B362242     0.0000 
     47 H         -46.2449  -29.2918  -18.1538 H         1 B362242     0.0000 
     48 H         -42.4647  -28.6852  -17.6848 H         1 B362242     0.0000 
     49 H         -42.8757  -27.1733  -18.5127 H         1 B362242     0.0000 
     50 H         -43.8868  -29.9750  -19.0390 H         1 B362242     0.0000 
     51 H         -43.1042  -28.8331  -20.1452 H         1 B362242     0.0000 
     52 H         -45.0521  -27.4208  -20.2058 H         1 B362242     0.0000 
     53 H         -46.6676  -28.8897  -21.2645 H         1 B362242     0.0000 
     54 H         -45.9249  -30.3130  -20.5144 H         1 B362242     0.0000 
     55 H         -44.7522  -31.4859  -22.1052 H         1 B362242     0.0000 
     56 H         -43.4469  -32.7949  -23.5892 H         1 B362242     0.0000 
     57 H         -41.8722  -32.9056  -25.4323 H         1 B362242     0.0000 
     58 H         -42.9158  -27.4603  -24.0358 H         1 B362242     0.0000 
     59 H         -44.5313  -27.3203  -22.2568 H         1 B362242     0.0000 
     60 H         -40.4022  -29.9337  -26.9354 H         1 B362242     0.0000 
     61 H         -39.8528  -31.3512  -26.4110 H         1 B362242     0.0000 
     62 H         -41.0559  -31.2996  -27.4768 H         1 B362242     0.0000 
@<TRIPOS>BOND
     1    2    1 ar   
     2    6    1 ar   
     3   14    1 ar   
     4    3    2 ar   
     5   35    2 1    
     6    4    3 ar   
     7   36    3 1    
     8    5    4 ar   
     9   37    4 1    
    10    6    5 ar   
    11   38    5 1    
    12    7    6 ar   
    13    8    7 ar   
    14   39    7 1    
    15    9    8 ar   
    16   13    8 ar   
    17   10    9 ar   
    18   40    9 1    
    19   11   10 ar   
    20   41   10 1    
    21   12   11 ar   
    22   42   11 1    
    23   13   12 ar   
    24   43   12 1    
    25   14   13 ar   
    26   15   14 1    
    27   16   15 2    
    28   17   15 am   
    29   18   17 1    
    30   20   17 1    
    31   19   18 1    
    32   44   18 1    
    33   45   18 1    
    34   22   19 1    
    35   46   19 1    
    36   47   19 1    
    37   21   20 1    
    38   48   20 1    
    39   49   20 1    
    40   22   21 1    
    41   50   21 1    
    42   51   21 1    
    43   23   22 1    
    44   52   22 1    
    45   24   23 1    
    46   53   23 1    
    47   54   23 1    
    48   25   24 ar   
    49   34   24 ar   
    50   26   25 ar   
    51   55   25 1    
    52   27   26 ar   
    53   32   26 ar   
    54   28   27 ar   
    55   56   27 1    
    56   29   28 ar   
    57   57   28 1    
    58   30   29 1    
    59   31   29 ar   
    60   60   30 1    
    61   61   30 1    
    62   62   30 1    
    63   32   31 ar   
    64   33   32 ar   
    65   34   33 ar   
    66   58   33 1    
    67   59   34 1    
@<TRIPOS>SUBSTRUCTURE
     1 B362242     1 GROUP   
@<TRIPOS>SET

