#    Name: 2uyy_NA7_1_INTS_M
#    Modification time : Tue Mar 25 00:28:39 2014

@<TRIPOS>MOLECULE
2uyy_NA7_1_INTS_M
   82     0     9     0     0
SMALL
NO_CHARGES


@<TRIPOS>ATOM
      1 N          37.4570   32.2540   -1.4600 N.am      2 SEC2        0.0000 
      2 N          36.6620   33.1680   -1.1550 N.am      8 SEL2        0.0000 
      3 N          38.2520   31.3400   -1.7650 N.am      5 SEP2        0.0000 
      4 N          33.4195   33.9805   -0.6280 N.am      2 SEC2        0.0000 
      5 N          34.5270   34.3820   -0.8670 N.am      8 SEL2        0.0000 
      6 N          32.3120   33.5790   -0.3890 N.am      5 SEP2        0.0000 
      7 CA         31.7355   33.1590   -2.8195 C.3       3 GLC5        0.0000 
      8 CA         33.8180   33.2520   -3.6150 C.3       9 GLL5        0.0000 
      9 CA         29.6530   33.0660   -2.0240 C.3       6 GLP5        0.0000 
     10 CA         32.4380   31.7025   -5.3320 C.3       3 GLC5        0.0000 
     11 CA         33.9710   33.2820   -5.1070 C.3       9 GLL5        0.0000 
     12 CA         30.9050   30.1230   -5.5570 C.3       6 GLP5        0.0000 
     13 CA         31.7625   32.6070   -7.2940 C.3       3 GLC5        0.0000 
     14 CA         32.6430   34.3750   -6.6040 C.3       9 GLL5        0.0000 
     15 CA         30.8820   30.8390   -7.9840 C.3       6 GLP5        0.0000 
     16 CA         29.8705   37.3520   -9.6340 C.3       3 GLC5        0.0000 
     17 CA         28.5620   35.7740   -8.8520 C.3       9 GLL5        0.0000 
     18 CA         31.1790   38.9300  -10.4160 C.3       6 GLP5        0.0000 
     19 O          26.3320   36.5780   -9.9085 O.2       1 ALC1        0.0000 
     20 O          27.3460   36.3260   -8.7680 O.2       7 ALL1        0.0000 
     21 O          25.3180   36.8300  -11.0490 O.2       4 ALP1        0.0000 
     22 CA         31.6945   36.1555  -10.6495 C.3       3 GLC5        0.0000 
     23 CA         30.2320   34.7650  -10.2650 C.3       9 GLL5        0.0000 
     24 CA         33.1570   37.5460  -11.0340 C.3       6 GLP5        0.0000 
     25 CA         29.8875   33.1025  -11.6845 C.3       3 GLC5        0.0000 
     26 CA         29.5430   31.4400  -13.1040 C.3       6 GLP5        0.0000 
     27 CA         30.7740   32.9265   -7.9680 C.3       3 GLC5        0.0000 
     28 CA         30.6660   35.0140   -7.9520 C.3       9 GLL5        0.0000 
     29 N          33.3415   32.7295   -0.7670 N.am      2 SEC2        0.0000 
     30 N          34.3710   31.8800   -1.1450 N.am      8 SEL2        0.0000 
     31 N          36.9825   29.2095   -1.5505 N.am      2 SEC2        0.0000 
     32 N          35.8210   29.8730   -1.7960 N.am      8 SEL2        0.0000 
     33 N          38.1440   28.5460   -1.3050 N.am      5 SEP2        0.0000 
     34 CA         33.0015   30.2925   -0.1115 C.3       3 GLC5        0.0000 
     35 CA         33.2040   28.6630   -1.5490 C.3       9 GLL5        0.0000 
     36 CA         32.7990   31.9220    1.3260 C.3       6 GLP5        0.0000 
     37 N          31.9365   25.1445   -0.4670 N.am      2 SEC2        0.0000 
     38 N          32.6210   26.7160   -0.2570 N.am      8 SEL2        0.0000 
     39 N          31.2520   23.5730   -0.6770 N.am      5 SEP2        0.0000 
     40 CA         30.2455   29.9975   -1.2915 C.3       3 GLC5        0.0000 
     41 CA         30.9790   28.4310   -0.2710 C.3       9 GLL5        0.0000 
     42 CA         29.5120   31.5640   -2.3120 C.3       6 GLP5        0.0000 
     43 N          28.9440   26.7585   -1.1745 N.am      2 SEC2        0.0000 
     44 N          29.7090   28.0530   -0.7470 N.am      8 SEL2        0.0000 
     45 N          28.1790   25.4640   -1.6020 N.am      5 SEP2        0.0000 
     46 O          29.8535   28.5750   -2.1545 O.2       1 ALC1        0.0000 
     47 O          29.7090   28.0530   -0.7470 O.2       7 ALL1        0.0000 
     48 O          29.9980   29.0970   -3.5620 O.2       4 ALP1        0.0000 
     49 CA         31.8610   27.4530    2.9260 C.3       3 GLC5        0.0000 
     50 CA         31.2000   27.9430    1.1490 C.3       9 GLL5        0.0000 
     51 CA         32.5220   26.9630    4.7030 C.3       6 GLP5        0.0000 
     52 N          28.8830   28.3715    1.6710 N.am      2 SEC2        0.0000 
     53 N          30.0220   27.8410    1.9190 N.am      8 SEL2        0.0000 
     54 N          27.7440   28.9020    1.4230 N.am      5 SEP2        0.0000 
     55 CA         34.0780   26.5335    0.4555 C.3       3 GLC5        0.0000 
     56 CA         31.8900   26.5990    0.9560 C.3       9 GLL5        0.0000 
     57 CA         36.2660   26.4680   -0.0450 C.3       6 GLP5        0.0000 
     58 CA         32.8505   26.8810    2.5680 C.3       3 GLC5        0.0000 
     59 CA         33.8110   27.1630    4.1800 C.3       6 GLP5        0.0000 
     60 N          37.0690   36.4880   -7.9785 N.am      2 SEC2        0.0000 
     61 N          36.5530   36.8780   -6.7190 N.am      8 SEL2        0.0000 
     62 N          37.5850   36.0980   -9.2380 N.am      5 SEP2        0.0000 
     63 N          35.6915   38.3495   -9.6395 N.am      2 SEC2        0.0000 
     64 N          35.1520   38.2150   -8.3330 N.am      8 SEL2        0.0000 
     65 N          36.2310   38.4840  -10.9460 N.am      5 SEP2        0.0000 
     66 N          35.9670   39.3930   -8.6715 N.am      2 SEC2        0.0000 
     67 N          36.7820   40.5710   -9.0100 N.am      5 SEP2        0.0000 
     68 N          32.8695   38.2565   -6.3800 N.am      2 SEC2        0.0000 
     69 N          34.5280   38.0930   -5.9690 N.am      8 SEL2        0.0000 
     70 N          31.2110   38.4200   -6.7910 N.am      5 SEP2        0.0000 
     71 CA         36.0559   32.9502   -4.4858 C.3       3 GLC5        0.0000 
     72 CA         37.7930   32.0070   -4.0220 C.3       6 GLP5        0.0000 
     73 CA         28.4462   34.3651   -7.0700 C.3       3 GLC5        0.0000 
     74 CA         29.4240   35.6190   -7.7440 C.3       9 GLL5        0.0000 
     75 CA         27.0630   33.3750   -6.0150 C.3       6 GLP5        0.0000 
     76 CA         34.4528   27.3345   -0.6790 C.3       3 GLC5        0.0000 
     77 CA         33.4162   27.2900   -2.7825 C.3       3 GLC5        0.0000 
     78 CA         34.1930   26.3790   -4.2520 C.3       6 GLP5        0.0000 
     79 CA         31.7612   29.7080    1.4595 C.3       3 GLC5        0.0000 
     80 CA         32.4330   31.2290    2.4800 C.3       6 GLP5        0.0000 
     81 CA         29.6905   26.1660    0.9513 C.3       3 GLC5        0.0000 
     82 CA         27.8360   25.0610    0.8500 C.3       6 GLP5        0.0000 
@<TRIPOS>BOND
@<TRIPOS>SUBSTRUCTURE
     1 ALC1       19 GROUP        1 X    ALC  0     ROOT ALC X 1
     2 SEC2        1 GROUP        1 X    SEC  0     **** SEC X 2
     3 GLC5        7 GROUP        1 X    GLC  0     **** GLC X 6
     4 ALP1       21 GROUP        1 Y    ALP  0     ROOT ALP Y 8
     5 SEP2        3 GROUP        1 Y    SEP  0     **** SEP Y 9
     6 GLP5        9 GROUP        1 Y    GLP  0     **** GLP Y 13
     7 ALL1       20 GROUP        1 Z    ALL  0     ROOT ALL Z 15
     8 SEL2        2 GROUP        1 Z    SEL  0     **** SEL Z 16
     9 GLL5        8 GROUP        1 Z    GLL  0     **** GLL Z 20
@<TRIPOS>SET

