#    Name: 2uyy_NA7_1_ligand
#    Modification time : Tue Mar 25 00:28:39 2014

@<TRIPOS>MOLECULE
2uyy_NA7_1_ligand
   59    62     1     0     0
SMALL
NO_CHARGES


@<TRIPOS>ATOM
      1 PA         35.2100   33.2250   -1.4710 P.3       1 NA71555     0.0000 
      2 O1A        36.6620   33.1680   -1.1550 O.co2     1 NA71555     0.0000 
      3 O2A        34.5270   34.3820   -0.8670 O.co2     1 NA71555     0.0000 
      4 O5B        35.0930   33.3170   -3.0530 O.3       1 NA71555     0.0000 
      5 C5B        33.8180   33.2520   -3.6150 C.3       1 NA71555     0.0000 
      6 C4B        33.9710   33.2820   -5.1070 C.3       1 NA71555     0.0000 
      7 O4B        32.6690   33.3690   -5.6240 O.3       1 NA71555     0.0000 
      8 C3B        34.7430   34.5200   -5.5380 C.3       1 NA71555     0.0000 
      9 O3B        35.7880   34.1310   -6.3890 O.3       1 NA71555     0.0000 
     10 C2B        33.7090   35.3810   -6.2350 C.3       1 NA71555     0.0000 
     11 O2B        34.2230   36.0480   -7.3710 O.3       1 NA71555     0.0000 
     12 C1B        32.6430   34.3750   -6.6040 C.3       1 NA71555     0.0000 
     13 N9A        31.3040   34.9630   -6.7350 N.pl3     1 NA71555     0.0000 
     14 C8A        30.4870   35.5080   -5.7760 C.2       1 NA71555     0.0000 
     15 N7A        29.3460   35.9090   -6.4040 N.2       1 NA71555     0.0000 
     16 C5A        29.4240   35.6190   -7.7440 C.ar      1 NA71555     0.0000 
     17 C6A        28.5620   35.7740   -8.8520 C.ar      1 NA71555     0.0000 
     18 N6A        27.3460   36.3260   -8.7680 N.pl3     1 NA71555     0.0000 
     19 N1A        28.9830   35.3420  -10.0920 N.ar      1 NA71555     0.0000 
     20 C2A        30.2320   34.7650  -10.2650 C.ar      1 NA71555     0.0000 
     21 N3A        31.0710   34.5960   -9.1920 N.ar      1 NA71555     0.0000 
     22 C4A        30.6660   35.0140   -7.9520 C.ar      1 NA71555     0.0000 
     23 O3         34.3710   31.8800   -1.1450 O.3       1 NA71555     0.0000 
     24 PN         34.9980   30.4550   -0.7120 P.3       1 NA71555     0.0000 
     25 O1N        35.8210   29.8730   -1.7960 O.co2     1 NA71555     0.0000 
     26 O2N        35.5820   30.6640    0.6280 O.co2     1 NA71555     0.0000 
     27 O5D        33.6780   29.5240   -0.5320 O.3       1 NA71555     0.0000 
     28 C5D        33.2040   28.6630   -1.5490 C.3       1 NA71555     0.0000 
     29 C4D        32.0750   27.7390   -1.0770 C.3       1 NA71555     0.0000 
     30 O4D        32.6210   26.7160   -0.2570 O.3       1 NA71555     0.0000 
     31 C3D        30.9790   28.4310   -0.2710 C.3       1 NA71555     0.0000 
     32 O3D        29.7090   28.0530   -0.7470 O.3       1 NA71555     0.0000 
     33 C2D        31.2000   27.9430    1.1490 C.3       1 NA71555     0.0000 
     34 O2D        30.0220   27.8410    1.9190 O.3       1 NA71555     0.0000 
     35 C1D        31.8900   26.5990    0.9560 C.3       1 NA71555     0.0000 
     36 P2B        35.1480   37.3340   -7.1090 P.3       1 NA71555     0.0000 
     37 O1X        36.5530   36.8780   -6.7190 O.co2     1 NA71555     0.0000 
     38 O2X        35.1520   38.2150   -8.3330 O.co2     1 NA71555     0.0000 
     39 O3X        34.5280   38.0930   -5.9690 O.co2     1 NA71555     0.0000 
     40 H          33.1891   34.0993   -3.3207 H         1 NA71555     0.0000 
     41 H          33.2904   32.3304   -3.3459 H         1 NA71555     0.0000 
     42 H          34.4777   32.4139   -5.4320 H         1 NA71555     0.0000 
     43 H          35.0662   35.0207   -4.6556 H         1 NA71555     0.0000 
     44 H          33.2883   36.0408   -5.5000 H         1 NA71555     0.0000 
     45 H          32.9415   33.9436   -7.5753 H         1 NA71555     0.0000 
     46 H          30.6850   35.5879   -4.8505 H         1 NA71555     0.0000 
     47 H          26.8147   36.3510   -9.6148 H         1 NA71555     0.0000 
     48 H          27.0776   36.6640   -7.8660 H         1 NA71555     0.0000 
     49 H          30.5267   34.4629  -11.2089 H         1 NA71555     0.0000 
     50 H          34.0120   28.0123   -1.9478 H         1 NA71555     0.0000 
     51 H          32.8163   29.2309   -2.4223 H         1 NA71555     0.0000 
     52 H          31.6109   27.2932   -1.9583 H         1 NA71555     0.0000 
     53 H          31.1602   29.4765   -0.3002 H         1 NA71555     0.0000 
     54 H          31.9428   28.6044    1.5969 H         1 NA71555     0.0000 
     55 H          32.5329   26.4257    1.8074 H         1 NA71555     0.0000 
     56 H          31.1281   25.8342    0.9037 H         1 NA71555     0.0000 
     57 H          36.2316   34.9849   -6.6610 H         1 NA71555     0.0000 
     58 H          29.5844   28.5723   -1.5924 H         1 NA71555     0.0000 
     59 H          29.6575   26.9324    1.7150 H         1 NA71555     0.0000 
@<TRIPOS>BOND
     1    2    1 ar   
     2    3    1 ar   
     3    4    1 1    
     4   23    1 1    
     5    5    4 1    
     6    6    5 1    
     7   40    5 1    
     8   41    5 1    
     9    7    6 1    
    10    8    6 1    
    11   42    6 1    
    12   12    7 1    
    13    9    8 1    
    14   10    8 1    
    15   43    8 1    
    16   57    9 1    
    17   11   10 1    
    18   12   10 1    
    19   44   10 1    
    20   36   11 1    
    21   13   12 1    
    22   45   12 1    
    23   14   13 1    
    24   22   13 1    
    25   15   14 2    
    26   46   14 1    
    27   16   15 1    
    28   17   16 ar   
    29   22   16 ar   
    30   18   17 1    
    31   19   17 ar   
    32   47   18 1    
    33   48   18 1    
    34   20   19 ar   
    35   21   20 ar   
    36   49   20 1    
    37   22   21 ar   
    38   24   23 1    
    39   25   24 ar   
    40   26   24 ar   
    41   27   24 1    
    42   28   27 1    
    43   29   28 1    
    44   50   28 1    
    45   51   28 1    
    46   30   29 1    
    47   31   29 1    
    48   52   29 1    
    49   35   30 1    
    50   32   31 1    
    51   33   31 1    
    52   53   31 1    
    53   58   32 1    
    54   34   33 1    
    55   35   33 1    
    56   54   33 1    
    57   59   34 1    
    58   55   35 1    
    59   56   35 1    
    60   37   36 ar   
    61   38   36 ar   
    62   39   36 ar   
@<TRIPOS>SUBSTRUCTURE
     1 NA71555     1 GROUP   
@<TRIPOS>SET

