#    Name: 4hvb_19P_1_INTS_M
#    Modification time : Tue Mar 25 01:48:49 2014

@<TRIPOS>MOLECULE
4hvb_19P_1_INTS_M
   64     0     6     0     0
SMALL
NO_CHARGES


@<TRIPOS>ATOM
      1 N          48.6950   12.0655   28.6075 N.am      1 SEC2        0.0000 
      2 N          47.6230   13.3110   29.1440 N.am      5 SEL2        0.0000 
      3 N          49.7670   10.8200   28.0710 N.am      3 SEP2        0.0000 
      4 CA         49.9320   12.8485   30.1425 C.3       2 GLC5        0.0000 
      5 CA         48.4620   14.2310   29.5560 C.3       6 GLL5        0.0000 
      6 CA         51.4020   11.4660   30.7290 C.3       4 GLP5        0.0000 
      7 CA         39.5065   13.8545   29.6980 C.3       2 GLC5        0.0000 
      8 CA         41.3370   12.8390   30.1340 C.3       6 GLL5        0.0000 
      9 CA         37.6760   14.8700   29.2620 C.3       4 GLP5        0.0000 
     10 N          39.4390   13.6775   29.4800 N.am      1 SEC2        0.0000 
     11 N          40.0930   12.8370   30.5660 N.am      5 SEL2        0.0000 
     12 N          38.7850   14.5180   28.3940 N.am      3 SEP2        0.0000 
     13 CA         40.6175   14.1240   34.7335 C.3       2 GLC5        0.0000 
     14 CA         40.7500   13.6770   32.6640 C.3       6 GLL5        0.0000 
     15 CA         40.4850   14.5710   36.8030 C.3       4 GLP5        0.0000 
     16 CA         44.1590   13.1225   32.8785 C.3       2 GLC5        0.0000 
     17 CA         42.0740   13.6920   32.2590 C.3       6 GLL5        0.0000 
     18 CA         46.2440   12.5530   33.4980 C.3       4 GLP5        0.0000 
     19 CA         37.1630   13.0220   34.0310 C.3       2 GLC5        0.0000 
     20 CA         38.3370   13.2130   32.2220 C.3       6 GLL5        0.0000 
     21 CA         35.9890   12.8310   35.8400 C.3       4 GLP5        0.0000 
     22 CA         37.9510   11.4635   33.4215 C.3       2 GLC5        0.0000 
     23 CA         37.5650    9.7140   34.6210 C.3       4 GLP5        0.0000 
     24 CA         43.8805   16.1785   36.5210 C.3       2 GLC5        0.0000 
     25 CA         43.9270   16.6350   34.5080 C.3       6 GLL5        0.0000 
     26 CA         43.8340   15.7220   38.5340 C.3       4 GLP5        0.0000 
     27 CA         46.3785   16.3210   35.1030 C.3       2 GLC5        0.0000 
     28 CA         44.8230   15.7980   33.5900 C.3       6 GLL5        0.0000 
     29 CA         47.9340   16.8440   36.6160 C.3       4 GLP5        0.0000 
     30 CA         50.4810   15.7740   32.1450 C.3       2 GLC5        0.0000 
     31 CA         50.1250   16.6700   30.8430 C.3       6 GLL5        0.0000 
     32 CA         50.8370   14.8780   33.4470 C.3       4 GLP5        0.0000 
     33 CA         48.9160   17.2800   29.3945 C.3       2 GLC5        0.0000 
     34 CA         47.7070   17.8900   27.9460 C.3       4 GLP5        0.0000 
     35 N          40.4630   16.1785   35.6875 N.am      1 SEC2        0.0000 
     36 N          41.2320   16.5100   34.8000 N.am      5 SEL2        0.0000 
     37 N          39.6940   15.8470   36.5750 N.am      3 SEP2        0.0000 
     38 CA         45.1128   12.6630   31.7592 C.3       2 GLC5        0.0000 
     39 CA         43.7750   13.2670   30.4740 C.3       6 GLL5        0.0000 
     40 CA         46.0785   12.6628   31.4170 C.3       2 GLC5        0.0000 
     41 CA         45.4720   12.2730   29.1080 C.3       6 GLL5        0.0000 
     42 CA         44.0479   10.9785   30.4546 C.3       2 GLC5        0.0000 
     43 CA         43.3690    9.4340   31.3450 C.3       4 GLP5        0.0000 
     44 CA         43.7594   13.6430   28.2346 C.3       2 GLC5        0.0000 
     45 CA         44.1880   12.2790   29.5670 C.3       6 GLL5        0.0000 
     46 CA         42.7920   14.7630   26.9050 C.3       4 GLP5        0.0000 
     47 CA         47.9863   16.3085   28.9763 C.3       2 GLC5        0.0000 
     48 CA         48.0690   15.2230   30.4570 C.3       6 GLL5        0.0000 
     49 CA         46.7186   13.7670   32.0397 C.3       2 GLC5        0.0000 
     50 CA         46.3405   15.7210   28.9665 C.3       2 GLC5        0.0000 
     51 CA         46.7630   15.2380   30.9320 C.3       6 GLL5        0.0000 
     52 CA         46.2430   16.9450   27.4560 C.3       4 GLP5        0.0000 
     53 CA         42.6125   11.2435   30.9462 C.3       2 GLC5        0.0000 
     54 CA         42.3750   13.2670   30.9610 C.3       6 GLL5        0.0000 
     55 CA         41.6750   14.1885   28.9928 C.3       2 GLC5        0.0000 
     56 CA         41.4940   15.3240   27.4380 C.3       4 GLP5        0.0000 
     57 CA         38.3668   14.0473   30.6322 C.3       2 GLC5        0.0000 
     58 CA         39.7780   13.2360   31.7830 C.3       6 GLL5        0.0000 
     59 CA         41.4330   11.9676   33.1011 C.3       2 GLC5        0.0000 
     60 CA         41.6970   10.3610   33.9610 C.3       4 GLP5        0.0000 
     61 CA         45.6898   14.4025   33.2782 C.3       2 GLC5        0.0000 
     62 CA         43.1205   17.5850   30.3823 C.3       2 GLC5        0.0000 
     63 CA         44.3420   17.3360   31.6780 C.3       6 GLL5        0.0000 
     64 CA         42.3500   17.4060   28.6380 C.3       4 GLP5        0.0000 
@<TRIPOS>BOND
@<TRIPOS>SUBSTRUCTURE
     1 SEC2        1 GROUP        1 X    SEC  0     ROOT SEC X 2
     2 GLC5        4 GROUP        1 X    GLC  0     **** GLC X 6
     3 SEP2        3 GROUP        1 Y    SEP  0     ROOT SEP Y 9
     4 GLP5        6 GROUP        1 Y    GLP  0     **** GLP Y 13
     5 SEL2        2 GROUP        1 Z    SEL  0     ROOT SEL Z 16
     6 GLL5        5 GROUP        1 Z    GLL  0     **** GLL Z 20
@<TRIPOS>SET

