#    Name: 4hvb_19P_1_ligand
#    Modification time : Tue Mar 25 01:48:50 2014

@<TRIPOS>MOLECULE
4hvb_19P_1_ligand
   59    63     1     0     0
SMALL
NO_CHARGES


@<TRIPOS>ATOM
      1 C1         43.7750   13.2670   30.4740 C.ar      1 19P1201     0.0000 
      2 C2         44.1880   12.2790   29.5670 C.ar      1 19P1201     0.0000 
      3 C3         45.4720   12.2730   29.1080 C.ar      1 19P1201     0.0000 
      4 C4         46.3540   13.2720   29.5640 C.ar      1 19P1201     0.0000 
      5 C5         45.8720   14.2400   30.4800 C.ar      1 19P1201     0.0000 
      6 N6         44.6070   14.2000   30.8960 N.ar      1 19P1201     0.0000 
      7 N7         47.6230   13.3110   29.1440 N.ar      1 19P1201     0.0000 
      8 C8         48.4620   14.2310   29.5560 C.ar      1 19P1201     0.0000 
      9 C9         48.0690   15.2230   30.4570 C.ar      1 19P1201     0.0000 
     10 C10        46.7630   15.2380   30.9320 C.ar      1 19P1201     0.0000 
     11 C11        42.3750   13.2670   30.9610 C.ar      1 19P1201     0.0000 
     12 C12        41.3370   12.8390   30.1340 C.ar      1 19P1201     0.0000 
     13 N13        40.0930   12.8370   30.5660 N.ar      1 19P1201     0.0000 
     14 C14        39.7780   13.2360   31.7830 C.ar      1 19P1201     0.0000 
     15 C15        40.7500   13.6770   32.6640 C.ar      1 19P1201     0.0000 
     16 C16        42.0740   13.6920   32.2590 C.ar      1 19P1201     0.0000 
     17 C17        38.3370   13.2130   32.2220 C.3       1 19P1201     0.0000 
     18 N18        48.7240   16.2970   31.0510 N.am      1 19P1201     0.0000 
     19 C19        47.8480   16.9340   31.8520 C.2       1 19P1201     0.0000 
     20 N20        46.6550   16.3110   31.7970 N.am      1 19P1201     0.0000 
     21 C21        45.4480   16.7060   32.5270 C.3       1 19P1201     0.0000 
     22 C22        44.3420   17.3360   31.6780 C.3       1 19P1201     0.0000 
     23 C23        43.4400   18.1920   32.5750 C.3       1 19P1201     0.0000 
     24 N24        42.9500   17.3600   33.6820 N.am      1 19P1201     0.0000 
     25 C25        43.9270   16.6350   34.5080 C.3       1 19P1201     0.0000 
     26 C26        44.8230   15.7980   33.5900 C.3       1 19P1201     0.0000 
     27 O27        48.0960   17.9190   32.5220 O.2       1 19P1201     0.0000 
     28 C28        50.1250   16.6700   30.8430 C.3       1 19P1201     0.0000 
     29 C29        41.6310   17.2650   33.9380 C.2       1 19P1201     0.0000 
     30 O30        41.2320   16.5100   34.8000 O.2       1 19P1201     0.0000 
     31 C31        40.6490   18.0950   33.1520 C.3       1 19P1201     0.0000 
     32 O32        39.3170   17.6930   33.4780 O.3       1 19P1201     0.0000 
     33 C33        40.8360   19.5730   33.5020 C.3       1 19P1201     0.0000 
     34 H          43.5095   11.5680   29.2596 H         1 19P1201     0.0000 
     35 H          45.8063   11.5701   28.4492 H         1 19P1201     0.0000 
     36 H          49.4583   14.2542   29.2231 H         1 19P1201     0.0000 
     37 H          41.5840   12.5238   29.1692 H         1 19P1201     0.0000 
     38 H          40.4929   13.9892   33.6061 H         1 19P1201     0.0000 
     39 H          42.8125   14.0026   32.8838 H         1 19P1201     0.0000 
     40 H          45.7850   17.6567   33.1860 H         1 19P1201     0.0000 
     41 H          43.7518   16.5549   31.2186 H         1 19P1201     0.0000 
     42 H          44.7857   17.9618   30.9157 H         1 19P1201     0.0000 
     43 H          42.6154   18.5658   31.9748 H         1 19P1201     0.0000 
     44 H          44.0225   19.0301   32.9466 H         1 19P1201     0.0000 
     45 H          43.4270   15.9664   35.2030 H         1 19P1201     0.0000 
     46 H          44.5543   17.3264   35.0633 H         1 19P1201     0.0000 
     47 H          45.6075   15.3387   34.1760 H         1 19P1201     0.0000 
     48 H          44.2280   15.0355   33.1059 H         1 19P1201     0.0000 
     49 H          40.8508   17.9717   32.1036 H         1 19P1201     0.0000 
     50 H          38.2292   13.5423   33.1601 H         1 19P1201     0.0000 
     51 H          37.7625   13.7897   31.6411 H         1 19P1201     0.0000 
     52 H          37.9535   12.2900   32.1895 H         1 19P1201     0.0000 
     53 H          50.7487   15.9371   31.1147 H         1 19P1201     0.0000 
     54 H          50.3158   16.8765   29.8833 H         1 19P1201     0.0000 
     55 H          50.3762   17.4801   31.3727 H         1 19P1201     0.0000 
     56 H          41.7592   19.8916   33.2871 H         1 19P1201     0.0000 
     57 H          40.1996   20.1573   32.9984 H         1 19P1201     0.0000 
     58 H          40.6853   19.7461   34.4753 H         1 19P1201     0.0000 
     59 H          39.4258   16.9209   34.1041 H         1 19P1201     0.0000 
@<TRIPOS>BOND
     1    2    1 ar   
     2    6    1 ar   
     3   11    1 1    
     4    3    2 ar   
     5   34    2 1    
     6    4    3 ar   
     7   35    3 1    
     8    5    4 ar   
     9    7    4 ar   
    10    6    5 ar   
    11   10    5 ar   
    12    8    7 ar   
    13    9    8 ar   
    14   36    8 1    
    15   10    9 ar   
    16   18    9 1    
    17   20   10 1    
    18   12   11 ar   
    19   16   11 ar   
    20   13   12 ar   
    21   37   12 1    
    22   14   13 ar   
    23   15   14 ar   
    24   17   14 1    
    25   16   15 ar   
    26   38   15 1    
    27   39   16 1    
    28   50   17 1    
    29   51   17 1    
    30   52   17 1    
    31   19   18 am   
    32   28   18 1    
    33   20   19 am   
    34   27   19 2    
    35   21   20 1    
    36   22   21 1    
    37   26   21 1    
    38   40   21 1    
    39   23   22 1    
    40   41   22 1    
    41   42   22 1    
    42   24   23 1    
    43   43   23 1    
    44   44   23 1    
    45   25   24 1    
    46   29   24 am   
    47   26   25 1    
    48   45   25 1    
    49   46   25 1    
    50   47   26 1    
    51   48   26 1    
    52   53   28 1    
    53   54   28 1    
    54   55   28 1    
    55   30   29 2    
    56   31   29 1    
    57   32   31 1    
    58   33   31 1    
    59   49   31 1    
    60   59   32 1    
    61   56   33 1    
    62   57   33 1    
    63   58   33 1    
@<TRIPOS>SUBSTRUCTURE
     1 19P1201     1 GROUP   
@<TRIPOS>SET

