#    Name: 3GC4_1_CAVITY_N1_ALL.mol2
#    Modification time : Mon Mar 10 18:44:26 2014

@<TRIPOS>MOLECULE
3GC4_1_CAVITY_N1_ALL.mol2
  106     0     6     0     0
SMALL
NO_CHARGES


@<TRIPOS>ATOM
      1 N           9.8891   22.0932   20.8846 N.2       2 ALA2        0.0000 
      2 N           8.9831   21.5991   21.9732 N.2       2 ALA2        0.0000 
      3 CZ          8.6957   22.3877   20.0250 C.ar      4 PHE5        0.0000 
      4 N          10.8646   21.2020   19.2251 N.2       2 ALA2        0.0000 
      5 N           9.9586   20.7079   20.3136 N.2       2 ALA2        0.0000 
      6 CA          9.0525   20.2138   21.4022 C.3       5 GLY6        0.0000 
      7 CZ          8.7652   21.0024   19.4540 C.ar      4 PHE5        0.0000 
      8 N           8.4778   21.7911   17.5058 N.2       2 ALA2        0.0000 
      9 CZ         10.9341   19.8167   18.6541 C.ar      4 PHE5        0.0000 
     10 N          10.0280   19.3226   19.7426 N.2       2 ALA2        0.0000 
     11 CA          9.1220   18.8285   20.8311 C.3       5 GLY6        0.0000 
     12 N          10.6467   20.6053   16.7059 N.2       2 ALA2        0.0000 
     13 N           9.7407   20.1112   17.7944 N.2       2 ALA2        0.0000 
     14 O          19.0701   17.1583   22.1525 O.2       2 ALA2        0.0000 
     15 CZ         18.7827   17.9470   20.2043 C.ar      4 PHE5        0.0000 
     16 CZ         17.8766   17.4529   21.2928 C.ar      4 PHE5        0.0000 
     17 CA         16.9706   16.9587   22.3813 C.3       5 GLY6        0.0000 
     18 NZ         11.2909   17.6427   20.0312 N.2       3 LYS4        0.0000 
     19 CZ         11.9096   18.9255   16.9945 C.ar      4 PHE5        0.0000 
     20 CZ         11.0035   18.4314   18.0830 C.ar      4 PHE5        0.0000 
     21 N          10.0975   17.9373   19.1716 N.2       2 ALA2        0.0000 
     22 CZ         11.6222   19.7141   15.0463 C.ar      4 PHE5        0.0000 
     23 N          10.7162   19.2200   16.1348 N.2       2 ALA2        0.0000 
     24 N           9.8101   18.7259   17.2234 N.2       2 ALA2        0.0000 
     25 DU         10.4288   20.0087   14.1866 H         6 CUB7        0.0000 
     26 N           9.5227   19.5145   15.2752 N.2       2 ALA2        0.0000 
     27 CA         17.9461   16.0675   20.7218 C.3       5 GLY6        0.0000 
     28 CZ         17.6587   16.8562   18.7736 C.ar      4 PHE5        0.0000 
     29 CA         16.7527   16.3621   19.8621 C.3       5 GLY6        0.0000 
     30 N          18.2774   18.1389   15.7368 N.2       2 ALA2        0.0000 
     31 CZ         17.3714   17.6448   16.8254 C.ar      4 PHE5        0.0000 
     32 CZ         16.4653   17.1507   17.9139 C.ar      4 PHE5        0.0000 
     33 CZ         15.5593   16.6566   19.0024 C.ar      4 PHE5        0.0000 
     34 OG         17.0840   18.4335   14.8772 O.2       1 SER1        0.0000 
     35 CZ         16.1780   17.9394   15.9657 C.ar      4 PHE5        0.0000 
     36 CZ         15.2719   17.4452   17.0542 C.ar      4 PHE5        0.0000 
     37 CZ         14.3658   16.9511   18.1428 C.ar      4 PHE5        0.0000 
     38 OG         16.7967   19.2221   12.9290 O.2       1 SER1        0.0000 
     39 OG         15.8906   18.7280   14.0175 O.2       1 SER1        0.0000 
     40 CZ         14.9845   18.2339   15.1061 C.ar      4 PHE5        0.0000 
     41 CZ         14.0785   17.7398   16.1946 C.ar      4 PHE5        0.0000 
     42 CZ         13.1724   17.2456   17.2831 C.ar      4 PHE5        0.0000 
     43 NZ         12.2664   16.7515   18.3717 N.2       3 LYS4        0.0000 
     44 NZ         11.3603   16.2574   19.4602 N.2       3 LYS4        0.0000 
     45 O          15.6032   19.5166   12.0693 O.2       2 ALA2        0.0000 
     46 OG         14.6972   19.0225   13.1579 O.2       1 SER1        0.0000 
     47 CZ         13.7911   18.5284   14.2464 C.ar      4 PHE5        0.0000 
     48 CZ         12.8851   18.0343   15.3349 C.ar      4 PHE5        0.0000 
     49 CZ         11.9790   17.5402   16.4235 C.ar      4 PHE5        0.0000 
     50 N          11.0730   17.0461   17.5120 N.2       2 ALA2        0.0000 
     51 O          13.5038   19.3170   12.2982 O.2       2 ALA2        0.0000 
     52 O          12.5977   18.8229   13.3867 O.2       2 ALA2        0.0000 
     53 DU         11.6917   18.3288   14.4753 H         6 CUB7        0.0000 
     54 N          10.7856   17.8347   15.5638 N.2       2 ALA2        0.0000 
     55 N           9.8795   17.3406   16.6523 N.2       2 ALA2        0.0000 
     56 O          11.4043   19.1175   12.5271 O.2       2 ALA2        0.0000 
     57 DU         10.4982   18.6233   13.6156 H         6 CUB7        0.0000 
     58 OG          9.5922   18.1292   14.7041 O.2       1 SER1        0.0000 
     59 DU          9.3048   18.9179   12.7559 H         6 CUB7        0.0000 
     60 OG          8.3988   18.4238   13.8445 O.2       1 SER1        0.0000 
     61 CA         16.8221   14.9767   19.2911 C.3       5 GLY6        0.0000 
     62 CA         16.5348   15.7654   17.3429 C.3       5 GLY6        0.0000 
     63 O          15.6287   15.2713   18.4314 O.2       2 ALA2        0.0000 
     64 NZ         14.7226   14.7772   19.5200 N.2       3 LYS4        0.0000 
     65 N          18.0595   17.5423   13.2176 N.2       2 ALA2        0.0000 
     66 N          17.1535   17.0481   14.3061 N.2       2 ALA2        0.0000 
     67 CA         16.2474   16.5540   15.3947 C.3       5 GLY6        0.0000 
     68 CA         15.3413   16.0599   16.4832 C.3       5 GLY6        0.0000 
     69 NZ         14.4353   15.5658   17.5718 N.2       3 LYS4        0.0000 
     70 NZ         13.5292   15.0717   18.6603 N.2       3 LYS4        0.0000 
     71 DU         16.8661   17.8368   12.3580 H         6 CUB7        0.0000 
     72 DU         15.9600   17.3427   13.4465 H         6 CUB7        0.0000 
     73 DU         15.0540   16.8486   14.5350 H         6 CUB7        0.0000 
     74 DU         14.1479   16.3544   15.6236 H         6 CUB7        0.0000 
     75 NZ         13.2419   15.8603   16.7121 N.2       3 LYS4        0.0000 
     76 NZ         12.3358   15.3662   17.8006 N.2       3 LYS4        0.0000 
     77 NZ         11.4298   14.8721   18.8892 N.2       3 LYS4        0.0000 
     78 O          16.5788   18.6254   10.4098 O.2       2 ALA2        0.0000 
     79 CA         15.6727   18.1313   11.4983 C.3       5 GLY6        0.0000 
     80 CA         14.7666   17.6372   12.5868 C.3       5 GLY6        0.0000 
     81 CA         13.8606   17.1431   13.6754 C.3       5 GLY6        0.0000 
     82 CA         12.9545   16.6490   14.7639 C.3       5 GLY6        0.0000 
     83 DU         12.0485   16.1549   15.8524 H         6 CUB7        0.0000 
     84 N          11.1424   15.6607   16.9410 N.2       2 ALA2        0.0000 
     85 CA         11.7611   16.9435   13.9042 C.3       5 GLY6        0.0000 
     86 CA         10.8550   16.4494   14.9928 C.3       5 GLY6        0.0000 
     87 O           9.9490   15.9553   16.0813 O.2       2 ALA2        0.0000 
     88 CA         10.5677   17.2380   13.0446 C.3       5 GLY6        0.0000 
     89 OG          9.6616   16.7439   14.1331 O.2       1 SER1        0.0000 
     90 NZ         15.6981   13.8860   17.8604 N.2       3 LYS4        0.0000 
     91 NZ         14.7921   13.3918   18.9489 N.2       3 LYS4        0.0000 
     92 NZ         15.4108   14.6746   15.9122 N.2       3 LYS4        0.0000 
     93 NZ         13.5987   13.6864   18.0893 N.2       3 LYS4        0.0000 
     94 CA         17.8416   16.9456   10.6984 C.3       5 GLY6        0.0000 
     95 CA         16.9356   16.4515   11.7869 C.3       5 GLY6        0.0000 
     96 O          16.0295   15.9574   12.8755 O.2       2 ALA2        0.0000 
     97 O          15.1234   15.4632   13.9640 O.2       2 ALA2        0.0000 
     98 NZ         13.3113   14.4750   16.1411 N.2       3 LYS4        0.0000 
     99 NZ         12.4053   13.9809   17.2296 N.2       3 LYS4        0.0000 
    100 CA         13.9300   15.7578   13.1043 C.3       5 GLY6        0.0000 
    101 CA         13.0240   15.2637   14.1929 C.3       5 GLY6        0.0000 
    102 NZ         12.1179   14.7695   15.2814 N.2       3 LYS4        0.0000 
    103 CA         11.2118   14.2754   16.3699 C.3       5 GLY6        0.0000 
    104 CA         10.9245   15.0641   14.4217 C.3       5 GLY6        0.0000 
    105 O          10.0184   14.5700   15.5103 O.2       2 ALA2        0.0000 
    106 CA          9.7311   15.3586   13.5621 C.3       5 GLY6        0.0000 
@<TRIPOS>BOND
@<TRIPOS>SUBSTRUCTURE
     1 SER1       34 GROUP   
     2 ALA2        1 GROUP   
     3 LYS4       18 GROUP   
     4 PHE5        3 GROUP   
     5 GLY6        6 GROUP   
     6 CUB7       25 GROUP   
@<TRIPOS>SET

