#    Name: 3gc4_AAQ_1_INTS_M
#    Modification time : Tue Mar 25 07:27:07 2014

@<TRIPOS>MOLECULE
3gc4_AAQ_1_INTS_M
   65     0    12     0     0
SMALL
NO_CHARGES


@<TRIPOS>ATOM
      1 O          20.6065   17.8925   18.0930 O.2       1 ALC1        0.0000 
      2 O          19.1940   17.7830   18.0840 O.2       9 ALL1        0.0000 
      3 O          22.0190   18.0020   18.1020 O.2       5 ALP1        0.0000 
      4 CA         20.5620   18.1340   21.5185 C.3       4 GLC5        0.0000 
      5 CA         18.7390   17.4460   20.5560 C.3      12 GLL5        0.0000 
      6 CA         22.3850   18.8220   22.4810 C.3       8 GLP5        0.0000 
      7 CA         16.0710   14.8205   21.5505 C.3       4 GLC5        0.0000 
      8 CA         16.4550   16.6170   20.9130 C.3      12 GLL5        0.0000 
      9 CA         15.6870   13.0240   22.1880 C.3       8 GLP5        0.0000 
     10 CA         16.7250   14.0055   19.3070 C.3       4 GLC5        0.0000 
     11 CA         15.0480   14.7270   18.3610 C.3      12 GLL5        0.0000 
     12 CA         18.4020   13.2840   20.2530 C.3       8 GLP5        0.0000 
     13 CA         16.6085   14.4390   17.0570 C.3       4 GLC5        0.0000 
     14 CA         18.1690   14.1510   15.7530 C.3       8 GLP5        0.0000 
     15 OD1        15.0330   12.9695   17.2405 O.co2     3 ASC3        0.0000 
     16 OD1        14.1730   14.5010   17.1950 O.co2    11 ASL3        0.0000 
     17 OD1        15.8930   11.4380   17.2860 O.co2     7 ASP3        0.0000 
     18 OD1        14.3440   13.3825   16.5035 O.co2     3 ASC3        0.0000 
     19 OD1        14.5150   12.2640   15.8120 O.co2     7 ASP3        0.0000 
     20 CA         11.9445   14.0090   19.6160 C.3       4 GLC5        0.0000 
     21 CA         12.7390   14.3210   17.5730 C.3      12 GLL5        0.0000 
     22 CA         11.1500   13.6970   21.6590 C.3       8 GLP5        0.0000 
     23 CA         17.7175   15.5585   17.2090 C.3       4 GLC5        0.0000 
     24 CA         17.2660   16.9660   18.6650 C.3      12 GLL5        0.0000 
     25 O          20.0035   18.7670   15.6305 O.2       1 ALC1        0.0000 
     26 O          18.9100   17.8630   15.7620 O.2       9 ALL1        0.0000 
     27 O          21.0970   19.6710   15.4990 O.2       5 ALP1        0.0000 
     28 CA         16.9795   19.1060   15.9825 C.3       4 GLC5        0.0000 
     29 CA         18.0740   17.7240   14.5990 C.3      12 GLL5        0.0000 
     30 CA         15.8850   20.4880   17.3660 C.3       8 GLP5        0.0000 
     31 CA         20.1460   17.4170   15.0280 C.3       4 GLC5        0.0000 
     32 CA         22.2180   17.1100   15.4570 C.3       8 GLP5        0.0000 
     33 CA         18.1215   15.9375   15.1760 C.3       4 GLC5        0.0000 
     34 O          13.7705   15.6550   22.6630 O.2       1 ALC1        0.0000 
     35 O          14.6120   16.0810   24.0300 O.2       9 ALL1        0.0000 
     36 O          12.9290   15.2290   21.2960 O.2       5 ALP1        0.0000 
     37 O          13.6915   15.2295   23.6580 O.2       1 ALC1        0.0000 
     38 O          12.7710   14.3780   23.2860 O.2       5 ALP1        0.0000 
     39 O          14.7830   16.6275   25.3445 O.2       1 ALC1        0.0000 
     40 O          14.9540   17.1740   26.6590 O.2       5 ALP1        0.0000 
     41 O          16.9420   17.0370   24.9725 O.2       1 ALC1        0.0000 
     42 O          16.7650   16.9430   23.6460 O.2       9 ALL1        0.0000 
     43 O          17.1190   17.1310   26.2990 O.2       5 ALP1        0.0000 
     44 N          19.4475   17.6720   24.7630 N.am      2 SEC2        0.0000 
     45 N          18.9780   17.5150   23.3130 N.am     10 SEL2        0.0000 
     46 N          19.9170   17.8290   26.2130 N.am      6 SEP2        0.0000 
     47 N          20.3310   17.5515   23.0285 N.am      2 SEC2        0.0000 
     48 N          21.6840   17.5880   22.7440 N.am      6 SEP2        0.0000 
     49 CA         18.5258   19.0218   21.6610 C.3       4 GLC5        0.0000 
     50 CA         18.8370   20.7740   22.3430 C.3       8 GLP5        0.0000 
     51 CA         15.6227   17.9840   21.1078 C.3       4 GLC5        0.0000 
     52 CA         17.6900   17.0930   21.4020 C.3      12 GLL5        0.0000 
     53 CA         14.1730   19.1130   21.0580 C.3       8 GLP5        0.0000 
     54 CA         18.2737   15.2740   20.4453 C.3       4 GLC5        0.0000 
     55 CA         17.5778   15.0137   19.6725 C.3       4 GLC5        0.0000 
     56 CA         16.2410   16.5210   19.5190 C.3      12 GLL5        0.0000 
     57 CA         15.1579   17.8996   19.7047 C.3       4 GLC5        0.0000 
     58 CA         14.7880   19.5990   19.7700 C.3       8 GLP5        0.0000 
     59 CA         10.3708   14.4025   14.5015 C.3       4 GLC5        0.0000 
     60 CA         11.4640   15.4320   15.7310 C.3      12 GLL5        0.0000 
     61 CA          9.6420   12.8300   13.5110 C.3       8 GLP5        0.0000 
     62 CA         11.5242   15.6800   13.5470 C.3       4 GLC5        0.0000 
     63 CA         11.9490   15.3850   11.6020 C.3       8 GLP5        0.0000 
     64 CA         11.0074   13.3927   16.9515 C.3       4 GLC5        0.0000 
     65 CA         10.1100   11.6200   17.3850 C.3       8 GLP5        0.0000 
@<TRIPOS>BOND
@<TRIPOS>SUBSTRUCTURE
     1 ALC1        1 GROUP        1 X    ALC  0     ROOT ALC X 1
     2 SEC2       44 GROUP        1 X    SEC  0     **** SEC X 2
     3 ASC3       15 GROUP        1 X    ASC  0     **** ASC X 3
     4 GLC5        4 GROUP        1 X    GLC  0     **** GLC X 6
     5 ALP1        3 GROUP        1 Y    ALP  0     ROOT ALP Y 8
     6 SEP2       46 GROUP        1 Y    SEP  0     **** SEP Y 9
     7 ASP3       17 GROUP        1 Y    ASP  0     **** ASP Y 10
     8 GLP5        6 GROUP        1 Y    GLP  0     **** GLP Y 13
     9 ALL1        2 GROUP        1 Z    ALL  0     ROOT ALL Z 15
    10 SEL2       45 GROUP        1 Z    SEL  0     **** SEL Z 16
    11 ASL3       16 GROUP        1 Z    ASL  0     **** ASL Z 17
    12 GLL5        5 GROUP        1 Z    GLL  0     **** GLL Z 20
@<TRIPOS>SET

