#    Name: 3gc4_AAQ_1_ligand
#    Modification time : Tue Mar 25 07:27:07 2014

@<TRIPOS>MOLECULE
3gc4_AAQ_1_ligand
   47    50     1     0     0
SMALL
NO_CHARGES


@<TRIPOS>ATOM
      1 N1         19.1940   17.7830   18.0840 N.pl3     1 AAQ395      0.0000 
      2 C3         18.4630   17.4240   19.1900 C.ar      1 AAQ395      0.0000 
      3 C2         18.7390   17.4460   20.5560 C.ar      1 AAQ395      0.0000 
      4 C4         17.6900   17.0930   21.4020 C.ar      1 AAQ395      0.0000 
      5 C5         16.4550   16.6170   20.9130 C.ar      1 AAQ395      0.0000 
      6 C6         16.2410   16.5210   19.5190 C.ar      1 AAQ395      0.0000 
      7 C7         14.9170   16.1430   18.8990 C.3       1 AAQ395      0.0000 
      8 C8         15.0480   14.7270   18.3610 C.3       1 AAQ395      0.0000 
      9 N2         14.1730   14.5010   17.1950 N.4       1 AAQ395      0.0000 
     10 C9         12.7390   14.3210   17.5730 C.3       1 AAQ395      0.0000 
     11 C10        11.9520   15.4770   17.0370 C.ar      1 AAQ395      0.0000 
     12 C11        11.7080   16.5890   17.8340 C.ar      1 AAQ395      0.0000 
     13 C12        10.9800   17.6800   17.3630 C.ar      1 AAQ395      0.0000 
     14 C13        10.4960   17.6270   16.0620 C.ar      1 AAQ395      0.0000 
     15 C14        10.7350   16.5180   15.2530 C.ar      1 AAQ395      0.0000 
     16 C15        11.4640   15.4320   15.7310 C.ar      1 AAQ395      0.0000 
     17 C16        17.2660   16.9660   18.6650 C.ar      1 AAQ395      0.0000 
     18 N3         17.2590   17.0560   17.2950 N.2       1 AAQ395      0.0000 
     19 C17        18.3810   17.6530   16.9790 C.2       1 AAQ395      0.0000 
     20 N4         18.9100   17.8630   15.7620 N.pl3     1 AAQ395      0.0000 
     21 C1         18.0740   17.7240   14.5990 C.3       1 AAQ395      0.0000 
     22 N5         15.4210   16.3180   21.8320 N.2       1 AAQ395      0.0000 
     23 C18        15.5640   16.5040   23.1180 C.2       1 AAQ395      0.0000 
     24 N6         14.6120   16.0810   24.0300 N.pl3     1 AAQ395      0.0000 
     25 N7         16.7650   16.9430   23.6460 N.am      1 AAQ395      0.0000 
     26 C19        17.8760   17.2060   22.8550 C.2       1 AAQ395      0.0000 
     27 O1         18.9780   17.5150   23.3130 O.2       1 AAQ395      0.0000 
     28 H          20.1014   18.0709   18.0789 H         1 AAQ395      0.0000 
     29 H          19.6404   17.7012   20.9090 H         1 AAQ395      0.0000 
     30 H          14.6867   16.8154   18.0881 H         1 AAQ395      0.0000 
     31 H          14.1404   16.1727   19.6465 H         1 AAQ395      0.0000 
     32 H          14.7977   14.0229   19.1677 H         1 AAQ395      0.0000 
     33 H          16.0991   14.5534   18.0884 H         1 AAQ395      0.0000 
     34 H          12.6450   14.2852   18.6554 H         1 AAQ395      0.0000 
     35 H          12.3603   13.3937   17.1507 H         1 AAQ395      0.0000 
     36 H          12.0768   16.6091   18.8055 H         1 AAQ395      0.0000 
     37 H          10.8100   18.4864   17.9532 H         1 AAQ395      0.0000 
     38 H           9.9499   18.4217   15.6865 H         1 AAQ395      0.0000 
     39 H          10.3673   16.5015   14.2881 H         1 AAQ395      0.0000 
     40 H          11.6377   14.6216   15.1404 H         1 AAQ395      0.0000 
     41 H          19.8902   18.1202   15.6180 H         1 AAQ395      0.0000 
     42 H          14.8168   16.2562   24.9930 H         1 AAQ395      0.0000 
     43 H          13.8021   15.6370   23.6467 H         1 AAQ395      0.0000 
     44 H          16.8417   17.0830   24.6810 H         1 AAQ395      0.0000 
     45 H          18.5800   17.9001   13.7547 H         1 AAQ395      0.0000 
     46 H          17.6913   16.8031   14.5247 H         1 AAQ395      0.0000 
     47 H          17.3034   18.3611   14.6172 H         1 AAQ395      0.0000 
@<TRIPOS>BOND
     1    2    1 1    
     2   19    1 1    
     3   28    1 1    
     4    3    2 ar   
     5   17    2 ar   
     6    4    3 ar   
     7   29    3 1    
     8    5    4 ar   
     9   26    4 1    
    10    6    5 ar   
    11   22    5 1    
    12    7    6 1    
    13   17    6 ar   
    14    8    7 1    
    15   30    7 1    
    16   31    7 1    
    17    9    8 1    
    18   32    8 1    
    19   33    8 1    
    20   10    9 1    
    21   11   10 1    
    22   34   10 1    
    23   35   10 1    
    24   12   11 ar   
    25   16   11 ar   
    26   13   12 ar   
    27   36   12 1    
    28   14   13 ar   
    29   37   13 1    
    30   15   14 ar   
    31   38   14 1    
    32   16   15 ar   
    33   39   15 1    
    34   40   16 1    
    35   18   17 1    
    36   19   18 2    
    37   20   19 1    
    38   21   20 1    
    39   41   20 1    
    40   45   21 1    
    41   46   21 1    
    42   47   21 1    
    43   23   22 2    
    44   24   23 1    
    45   25   23 1    
    46   42   24 1    
    47   43   24 1    
    48   26   25 am   
    49   44   25 1    
    50   27   26 2    
@<TRIPOS>SUBSTRUCTURE
     1 AAQ395      1 GROUP   
@<TRIPOS>SET

