#    Name: 4A1O_2_CAVITY_N1_6.mol2
#    Modification time : Tue Mar 11 16:16:44 2014

@<TRIPOS>MOLECULE
4A1O_2_CAVITY_N1_6.mol2
  139     0     7     0     0
SMALL
NO_CHARGES


@<TRIPOS>ATOM
      1 CZ         54.2627   80.5653   39.4856 C.ar      5 PHE5        0.0000 
      2 CA         54.8571   78.6983   38.6726 C.3       6 GLY6        0.0000 
      3 CZ         54.1657   77.6016   37.9180 C.ar      5 PHE5        0.0000 
      4 CA         58.6173   73.4235   36.9296 C.3       6 GLY6        0.0000 
      5 CA         59.9031   72.6531   36.8712 C.3       6 GLY6        0.0000 
      6 DU         53.3218   82.0093   38.2489 H         7 CUB7        0.0000 
      7 CZ         54.6075   81.2390   38.1905 C.ar      5 PHE5        0.0000 
      8 CZ         52.6304   80.9127   37.4944 C.ar      5 PHE5        0.0000 
      9 DU         53.9161   80.1423   37.4359 H         7 CUB7        0.0000 
     10 CZ         55.2019   79.3720   37.3775 C.ar      5 PHE5        0.0000 
     11 CA         56.4876   78.6016   37.3190 C.3       6 GLY6        0.0000 
     12 CZ         53.2248   79.0457   36.6814 C.ar      5 PHE5        0.0000 
     13 CZ         54.5105   78.2753   36.6229 C.ar      5 PHE5        0.0000 
     14 CA         55.7963   77.5050   36.5645 C.3       6 GLY6        0.0000 
     15 CZ         55.1049   76.4083   35.8099 C.ar      5 PHE5        0.0000 
     16 CA         56.3906   75.6380   35.7514 C.3       6 GLY6        0.0000 
     17 CA         57.6764   74.8676   35.6930 C.3       6 GLY6        0.0000 
     18 CA         58.9621   74.0972   35.6345 C.3       6 GLY6        0.0000 
     19 CZ         55.6993   74.5413   34.9969 C.ar      5 PHE5        0.0000 
     20 CA         56.9850   73.7709   34.9384 C.3       6 GLY6        0.0000 
     21 O          58.2707   73.0006   34.8800 O.2       2 ALA2        0.0000 
     22 CZ         55.6437   83.0094   37.6500 C.ar      5 PHE5        0.0000 
     23 DU         53.6666   82.6831   36.9539 H         7 CUB7        0.0000 
     24 CZ         54.9523   81.9127   36.8954 C.ar      5 PHE5        0.0000 
     25 CZ         56.2380   81.1423   36.8370 C.ar      5 PHE5        0.0000 
     26 CZ         57.5238   80.3720   36.7785 C.ar      5 PHE5        0.0000 
     27 N          58.8095   79.6016   36.7201 N.2       2 ALA2        0.0000 
     28 CZ         52.9752   81.5864   36.1993 C.ar      5 PHE5        0.0000 
     29 DU         54.2609   80.8161   36.1409 H         7 CUB7        0.0000 
     30 DU         55.5467   80.0457   36.0824 H         7 CUB7        0.0000 
     31 CZ         56.8324   79.2753   36.0240 C.ar      5 PHE5        0.0000 
     32 CA         58.1182   78.5050   35.9655 C.3       6 GLY6        0.0000 
     33 CA         59.4039   77.7346   35.9070 C.3       6 GLY6        0.0000 
     34 CZ         53.5696   79.7194   35.3863 C.ar      5 PHE5        0.0000 
     35 DU         54.8553   78.9490   35.3278 H         7 CUB7        0.0000 
     36 DU         56.1410   78.1787   35.2694 H         7 CUB7        0.0000 
     37 CA         57.4268   77.4083   35.2109 C.3       6 GLY6        0.0000 
     38 CA         58.7125   76.6380   35.1525 C.3       6 GLY6        0.0000 
     39 CZ         54.1639   77.8524   34.5733 C.ar      5 PHE5        0.0000 
     40 OD1        55.4497   77.0820   34.5148 O.3       3 ASP3        0.0000 
     41 CA         56.7354   76.3117   34.4564 C.3       6 GLY6        0.0000 
     42 O          58.0212   75.5413   34.3979 O.2       2 ALA2        0.0000 
     43 OD1        54.7583   75.9854   33.7603 O.3       3 ASP3        0.0000 
     44 CA         56.0440   75.2150   33.7018 C.3       6 GLY6        0.0000 
     45 CA         57.3298   74.4447   33.6434 C.3       6 GLY6        0.0000 
     46 CA         55.3527   74.1184   32.9472 C.3       6 GLY6        0.0000 
     47 CA         56.6384   73.3480   32.8888 C.3       6 GLY6        0.0000 
     48 OG         55.7371   86.4746   32.5281 O.2       1 SER1        0.0000 
     49 O          55.0457   85.3780   31.7736 O.2       2 ALA2        0.0000 
     50 O          56.3315   84.6076   31.7151 O.2       2 ALA2        0.0000 
     51 NZ         53.0686   85.0517   31.0775 N.2       4 LYS4        0.0000 
     52 NZ         54.3544   84.2813   31.0190 N.2       4 LYS4        0.0000 
     53 DU         55.6401   83.5109   30.9606 H         7 CUB7        0.0000 
     54 CZ         56.9258   82.7406   30.9021 C.ar      5 PHE5        0.0000 
     55 NZ         53.6630   83.1847   30.2644 N.2       4 LYS4        0.0000 
     56 DU         54.9487   82.4143   30.2060 H         7 CUB7        0.0000 
     57 N          56.2345   81.6439   30.1475 N.2       2 ALA2        0.0000 
     58 CA         52.9716   82.0880   29.5099 C.3       6 GLY6        0.0000 
     59 N          54.2574   81.3176   29.4514 N.2       2 ALA2        0.0000 
     60 N          55.5431   80.5473   29.3930 N.2       2 ALA2        0.0000 
     61 CA         54.8517   79.4506   28.6384 C.3       6 GLY6        0.0000 
     62 OG         55.3905   86.0517   30.4785 O.2       1 SER1        0.0000 
     63 O          56.6763   85.2813   30.4200 O.2       2 ALA2        0.0000 
     64 O          54.6991   84.9550   29.7239 O.2       2 ALA2        0.0000 
     65 CA         55.9849   84.1847   29.6655 C.3       6 GLY6        0.0000 
     66 CZ         57.2706   83.4143   29.6070 C.ar      5 PHE5        0.0000 
     67 O          54.0078   83.8584   28.9694 O.2       2 ALA2        0.0000 
     68 NZ         55.2935   83.0880   28.9109 N.2       4 LYS4        0.0000 
     69 O          56.5793   82.3177   28.8525 O.2       2 ALA2        0.0000 
     70 O          53.3164   82.7617   28.2148 O.2       2 ALA2        0.0000 
     71 NZ         54.6021   81.9914   28.1564 N.2       4 LYS4        0.0000 
     72 NZ         55.8879   81.2210   28.0979 N.2       4 LYS4        0.0000 
     73 CA         55.6383   83.7617   27.6158 C.3       6 GLY6        0.0000 
     74 CA         56.9240   82.9914   27.5574 C.3       6 GLY6        0.0000 
     75 DU         54.7027   84.4534   36.4134 H         7 CUB7        0.0000 
     76 CZ         55.9885   83.6831   36.3549 C.ar      5 PHE5        0.0000 
     77 CZ         57.2742   82.9127   36.2965 C.ar      5 PHE5        0.0000 
     78 CZ         58.5599   82.1424   36.2380 C.ar      5 PHE5        0.0000 
     79 CA         59.8457   81.3720   36.1796 C.3       6 GLY6        0.0000 
     80 NZ         54.0114   83.3568   35.6588 N.2       4 LYS4        0.0000 
     81 DU         55.2971   82.5864   35.6003 H         7 CUB7        0.0000 
     82 CZ         56.5828   81.8161   35.5419 C.ar      5 PHE5        0.0000 
     83 CZ         57.8686   81.0457   35.4834 C.ar      5 PHE5        0.0000 
     84 CA         59.1543   80.2753   35.4250 C.3       6 GLY6        0.0000 
     85 CA         60.4401   79.5050   35.3665 C.3       6 GLY6        0.0000 
     86 NZ         53.3200   82.2601   34.9042 N.2       4 LYS4        0.0000 
     87 NZ         54.6057   81.4898   34.8458 N.2       4 LYS4        0.0000 
     88 DU         55.8915   80.7194   34.7873 H         7 CUB7        0.0000 
     89 DU         57.1772   79.9491   34.7289 H         7 CUB7        0.0000 
     90 DU         58.4629   79.1787   34.6704 H         7 CUB7        0.0000 
     91 O          59.7487   78.4083   34.6120 O.2       2 ALA2        0.0000 
     92 NZ         53.9144   80.3931   34.0912 N.2       4 LYS4        0.0000 
     93 OD1        55.2001   79.6228   34.0328 O.3       3 ASP3        0.0000 
     94 OD1        56.4858   78.8524   33.9743 O.3       3 ASP3        0.0000 
     95 N          57.7716   78.0820   33.9159 N.2       2 ALA2        0.0000 
     96 N          59.0573   77.3117   33.8574 N.2       2 ALA2        0.0000 
     97 OD1        55.7945   77.7558   33.2198 O.3       3 ASP3        0.0000 
     98 CA         57.0802   76.9854   33.1613 C.3       6 GLY6        0.0000 
     99 O          58.3659   76.2150   33.1028 O.2       2 ALA2        0.0000 
    100 O          57.6746   75.1184   32.3483 O.2       2 ALA2        0.0000 
    101 OG         55.7389   86.2238   35.8729 O.2       1 SER1        0.0000 
    102 O          58.3104   84.6831   35.7559 O.2       2 ALA2        0.0000 
    103 CA         59.5961   83.9127   35.6975 C.3       6 GLY6        0.0000 
    104 DU         53.7618   85.8975   35.1767 H         7 CUB7        0.0000 
    105 DU         55.0475   85.1272   35.1183 H         7 CUB7        0.0000 
    106 O          56.3333   84.3568   35.0598 O.2       2 ALA2        0.0000 
    107 O          57.6190   83.5864   35.0014 O.2       2 ALA2        0.0000 
    108 CZ         58.9047   82.8161   34.9429 C.ar      5 PHE5        0.0000 
    109 OD1        51.7847   85.5712   34.4806 O.3       3 ASP3        0.0000 
    110 NZ         53.0704   84.8009   34.4222 N.2       4 LYS4        0.0000 
    111 NZ         54.3561   84.0305   34.3637 N.2       4 LYS4        0.0000 
    112 DU         55.6419   83.2602   34.3053 H         7 CUB7        0.0000 
    113 DU         56.9276   82.4898   34.2468 H         7 CUB7        0.0000 
    114 CZ         58.2134   81.7194   34.1884 C.ar      5 PHE5        0.0000 
    115 CZ         59.4991   80.9491   34.1299 C.ar      5 PHE5        0.0000 
    116 NZ         54.9505   82.1635   33.5507 N.2       4 LYS4        0.0000 
    117 DU         56.2363   81.3931   33.4923 H         7 CUB7        0.0000 
    118 CZ         57.5220   80.6228   33.4338 C.ar      5 PHE5        0.0000 
    119 CZ         58.8077   79.8524   33.3754 C.ar      5 PHE5        0.0000 
    120 NZ         54.2591   81.0669   32.7961 N.2       4 LYS4        0.0000 
    121 OD1        55.5449   80.2965   32.7377 O.3       3 ASP3        0.0000 
    122 N          56.8306   79.5261   32.6792 N.2       2 ALA2        0.0000 
    123 N          58.1164   78.7558   32.6208 N.2       2 ALA2        0.0000 
    124 N          57.4250   77.6591   31.8662 N.2       2 ALA2        0.0000 
    125 O          54.1066   86.5712   33.8817 O.2       2 ALA2        0.0000 
    126 OG         55.3923   85.8009   33.8232 O.2       1 SER1        0.0000 
    127 O          53.4152   85.4746   33.1271 O.2       2 ALA2        0.0000 
    128 NZ         54.7009   84.7042   33.0687 N.2       4 LYS4        0.0000 
    129 O          55.9867   83.9339   33.0102 O.2       2 ALA2        0.0000 
    130 CZ         57.2724   83.1635   32.9517 C.ar      5 PHE5        0.0000 
    131 NZ         54.0096   83.6076   32.3141 N.2       4 LYS4        0.0000 
    132 NZ         55.2953   82.8372   32.2556 N.2       4 LYS4        0.0000 
    133 CZ         56.5810   82.0669   32.1972 C.ar      5 PHE5        0.0000 
    134 NZ         54.6039   81.7406   31.5011 N.2       4 LYS4        0.0000 
    135 DU         55.8897   80.9702   31.4426 H         7 CUB7        0.0000 
    136 N          57.1754   80.1999   31.3842 N.2       2 ALA2        0.0000 
    137 N          53.9126   80.6439   30.7465 N.2       2 ALA2        0.0000 
    138 OD1        55.1983   79.8736   30.6881 O.3       3 ASP3        0.0000 
    139 N          56.4840   79.1032   30.6296 N.2       2 ALA2        0.0000 
@<TRIPOS>BOND
@<TRIPOS>SUBSTRUCTURE
     1 SER1       48 GROUP   
     2 ALA2       21 GROUP   
     3 ASP3       40 GROUP   
     4 LYS4       51 GROUP   
     5 PHE5        1 GROUP   
     6 GLY6        2 GROUP   
     7 CUB7        6 GROUP   
@<TRIPOS>SET

