#    Name: 4a1o_AMZ_2_INTS_M
#    Modification time : Tue Mar 25 04:50:26 2014

@<TRIPOS>MOLECULE
4a1o_AMZ_2_INTS_M
   57     0    12     0     0
SMALL
NO_CHARGES


@<TRIPOS>ATOM
      1 N          61.1495   77.7625   34.8965 N.am      2 SEC2        0.0000 
      2 N          59.7580   78.2550   34.7530 N.am     10 SEL2        0.0000 
      3 N          62.5410   77.2700   35.0400 N.am      6 SEP2        0.0000 
      4 O          60.4815   79.3505   37.2605 O.2       1 ALC1        0.0000 
      5 O          59.6250   79.9460   36.3740 O.2       9 ALL1        0.0000 
      6 O          61.3380   78.7550   38.1470 O.2       5 ALP1        0.0000 
      7 CA         60.3475   80.7000   34.6715 C.3       4 GLC5        0.0000 
      8 CA         58.2500   80.2560   34.4880 C.3      12 GLL5        0.0000 
      9 CA         62.4450   81.1440   34.8550 C.3       8 GLP5        0.0000 
     10 O          58.3190   78.7205   31.0930 O.2       1 ALC1        0.0000 
     11 O          57.8330   78.7630   32.4260 O.2       9 ALL1        0.0000 
     12 O          58.8050   78.6780   29.7600 O.2       5 ALP1        0.0000 
     13 CA         58.1030   81.4525   31.7840 C.3       4 GLC5        0.0000 
     14 CA         55.9840   80.9470   31.6610 C.3      12 GLL5        0.0000 
     15 CA         60.2220   81.9580   31.9070 C.3       8 GLP5        0.0000 
     16 O          52.8380   79.8950   29.8550 O.2       1 ALC1        0.0000 
     17 O          53.9450   80.7020   29.7940 O.2       9 ALL1        0.0000 
     18 O          51.7310   79.0880   29.9160 O.2       5 ALP1        0.0000 
     19 O          52.6100   81.7910   32.5435 O.2       1 ALC1        0.0000 
     20 O          53.5410   80.8890   32.4190 O.2       9 ALL1        0.0000 
     21 O          51.6790   82.6930   32.6680 O.2       5 ALP1        0.0000 
     22 CA         56.5980   84.7080   28.0930 C.3       4 GLC5        0.0000 
     23 CA         56.0670   83.8660   29.5920 C.3      12 GLL5        0.0000 
     24 CA         57.1290   85.5500   26.5940 C.3       8 GLP5        0.0000 
     25 NZ         58.4305   86.7925   30.7235 N.4       3 LYC4        0.0000 
     26 NZ         57.2250   86.4840   29.9640 N.4      11 LYL4        0.0000 
     27 NZ         59.9070   86.3380   32.5350 N.4       7 LYP4        0.0000 
     28 N          58.4305   86.7925   30.7235 N.am      2 SEC2        0.0000 
     29 N          57.2250   86.4840   29.9640 N.am     10 SEL2        0.0000 
     30 N          59.6360   87.1010   31.4830 N.am      6 SEP2        0.0000 
     31 N          58.1465   86.2075   28.9785 N.am      2 SEC2        0.0000 
     32 N          59.0680   85.9310   27.9930 N.am      6 SEP2        0.0000 
     33 N          57.2750   87.4630   29.0540 N.am      2 SEC2        0.0000 
     34 N          57.3250   88.4420   28.1440 N.am      6 SEP2        0.0000 
     35 NZ         53.9745   87.4845   31.0070 N.4       3 LYC4        0.0000 
     36 NZ         54.8180   86.6380   30.1820 N.4      11 LYL4        0.0000 
     37 NZ         52.3840   89.3970   31.5800 N.4       7 LYP4        0.0000 
     38 N          53.9745   87.4845   31.0070 N.am      2 SEC2        0.0000 
     39 N          54.8180   86.6380   30.1820 N.am     10 SEL2        0.0000 
     40 N          53.1310   88.3310   31.8320 N.am      6 SEP2        0.0000 
     41 N          54.5445   87.3985   29.1480 N.am      2 SEC2        0.0000 
     42 N          54.2710   88.1590   28.1140 N.am      6 SEP2        0.0000 
     43 N          53.6600   86.1215   30.5610 N.am      2 SEC2        0.0000 
     44 N          52.5020   85.6050   30.9400 N.am      6 SEP2        0.0000 
     45 NZ         57.5510   86.1820   32.7960 N.4       3 LYC4        0.0000 
     46 NZ         56.1980   86.5070   32.3250 N.4      11 LYL4        0.0000 
     47 N          57.5510   86.1820   32.7960 N.am      2 SEC2        0.0000 
     48 N          56.1980   86.5070   32.3250 N.am     10 SEL2        0.0000 
     49 N          58.9040   85.8570   33.2670 N.am      6 SEP2        0.0000 
     50 N          56.0200   87.6985   32.8745 N.am      2 SEC2        0.0000 
     51 N          55.8420   88.8900   33.4240 N.am      6 SEP2        0.0000 
     52 CA         52.4485   81.8773   30.8922 C.3       4 GLC5        0.0000 
     53 CA         54.5890   81.6870   31.7270 C.3      12 GLL5        0.0000 
     54 CA         50.4660   81.8910   30.7840 C.3       8 GLP5        0.0000 
     55 CA         57.8440   83.1097   30.4580 C.3       4 GLC5        0.0000 
     56 CA         55.7250   82.4010   29.7340 C.3      12 GLL5        0.0000 
     57 CA         59.7920   83.0860   31.2530 C.3       8 GLP5        0.0000 
@<TRIPOS>BOND
@<TRIPOS>SUBSTRUCTURE
     1 ALC1        4 GROUP        1 X    ALC  0     ROOT ALC X 1
     2 SEC2        1 GROUP        1 X    SEC  0     **** SEC X 2
     3 LYC4       25 GROUP        1 X    LYC  0     **** LYC X 4
     4 GLC5        7 GROUP        1 X    GLC  0     **** GLC X 6
     5 ALP1        6 GROUP        1 Y    ALP  0     ROOT ALP Y 8
     6 SEP2        3 GROUP        1 Y    SEP  0     **** SEP Y 9
     7 LYP4       27 GROUP        1 Y    LYP  0     **** LYP Y 11
     8 GLP5        9 GROUP        1 Y    GLP  0     **** GLP Y 13
     9 ALL1        5 GROUP        1 Z    ALL  0     ROOT ALL Z 15
    10 SEL2        2 GROUP        1 Z    SEL  0     **** SEL Z 16
    11 LYL4       26 GROUP        1 Z    LYL  0     **** LYL Z 18
    12 GLL5        8 GROUP        1 Z    GLL  0     **** GLL Z 20
@<TRIPOS>SET

