#    Name: 4a1o_AMZ_2_ligand
#    Modification time : Tue Mar 25 04:50:26 2014

@<TRIPOS>MOLECULE
4a1o_AMZ_2_ligand
   34    35     1     0     0
SMALL
NO_CHARGES


@<TRIPOS>ATOM
      1 O5         59.7580   78.2550   34.7530 O.2       1 AMZ1525     0.0000 
      2 C6         59.2730   79.4000   35.2130 C.2       1 AMZ1525     0.0000 
      3 N2         59.6250   79.9460   36.3740 N.am      1 AMZ1525     0.0000 
      4 C3A        58.2500   80.2560   34.4880 C.2       1 AMZ1525     0.0000 
      5 C7A        57.6430   79.9320   33.2290 C.2       1 AMZ1525     0.0000 
      6 N3         57.8330   78.7630   32.4260 N.pl3     1 AMZ1525     0.0000 
      7 N1         57.7220   81.4890   34.8820 N.2       1 AMZ1525     0.0000 
      8 C5         56.8760   81.8650   33.9120 C.2       1 AMZ1525     0.0000 
      9 N          56.8090   80.8970   32.8950 N.pl3     1 AMZ1525     0.0000 
     10 C1         55.9840   80.9470   31.6610 C.3       1 AMZ1525     0.0000 
     11 C2         54.5890   81.6870   31.7270 C.3       1 AMZ1525     0.0000 
     12 C3         54.2730   82.0400   30.2740 C.3       1 AMZ1525     0.0000 
     13 O2         53.9450   80.7020   29.7940 O.3       1 AMZ1525     0.0000 
     14 O1         53.5410   80.8890   32.4190 O.3       1 AMZ1525     0.0000 
     15 O          56.6690   81.8740   30.7140 O.3       1 AMZ1525     0.0000 
     16 C          55.7250   82.4010   29.7340 C.3       1 AMZ1525     0.0000 
     17 C4         56.0670   83.8660   29.5920 C.3       1 AMZ1525     0.0000 
     18 O3         55.9360   84.5370   30.9070 O.3       1 AMZ1525     0.0000 
     19 P          56.0240   86.0960   30.8730 P.3       1 AMZ1525     0.0000 
     20 OP1        57.2250   86.4840   29.9640 O.co2     1 AMZ1525     0.0000 
     21 O4         54.8180   86.6380   30.1820 O.co2     1 AMZ1525     0.0000 
     22 OP2        56.1980   86.5070   32.3250 O.co2     1 AMZ1525     0.0000 
     23 H          60.3317   79.4631   36.8911 H         1 AMZ1525     0.0000 
     24 H          59.1511   80.7901   36.6249 H         1 AMZ1525     0.0000 
     25 H          56.3601   82.6913   33.8830 H         1 AMZ1525     0.0000 
     26 H          55.8515   80.0289   31.1859 H         1 AMZ1525     0.0000 
     27 H          54.7827   82.6229   32.2546 H         1 AMZ1525     0.0000 
     28 H          53.6365   82.7357   30.1776 H         1 AMZ1525     0.0000 
     29 H          55.8697   81.8905   28.8023 H         1 AMZ1525     0.0000 
     30 H          55.3904   84.3210   28.8676 H         1 AMZ1525     0.0000 
     31 H          57.0886   83.9588   29.2216 H         1 AMZ1525     0.0000 
     32 H          58.1554   79.1051   31.5434 H         1 AMZ1525     0.0000 
     33 H          53.0382   80.5080   30.1682 H         1 AMZ1525     0.0000 
     34 H          52.6758   81.3183   32.1601 H         1 AMZ1525     0.0000 
@<TRIPOS>BOND
     1    2    1 2    
     2    3    2 am   
     3    4    2 1    
     4   23    3 1    
     5   24    3 1    
     6    5    4 2    
     7    7    4 1    
     8    6    5 1    
     9    9    5 1    
    10   32    6 1    
    11    8    7 2    
    12    9    8 1    
    13   25    8 1    
    14   10    9 1    
    15   11   10 1    
    16   15   10 1    
    17   26   10 1    
    18   12   11 1    
    19   14   11 1    
    20   27   11 1    
    21   13   12 1    
    22   16   12 1    
    23   28   12 1    
    24   33   13 1    
    25   34   14 1    
    26   16   15 1    
    27   17   16 1    
    28   29   16 1    
    29   18   17 1    
    30   30   17 1    
    31   31   17 1    
    32   19   18 1    
    33   20   19 ar   
    34   21   19 ar   
    35   22   19 ar   
@<TRIPOS>SUBSTRUCTURE
     1 AMZ1525     1 GROUP   
@<TRIPOS>SET

