#    Name: 4g2i_0VQ_1_INTS_M
#    Modification time : Mon Mar 24 21:14:42 2014

@<TRIPOS>MOLECULE
4g2i_0VQ_1_INTS_M
  142     0     9     0     0
SMALL
NO_CHARGES


@<TRIPOS>ATOM
      1 CA         11.4645   22.1200   31.6895 C.3       3 GLC5        0.0000 
      2 CA         13.5630   21.5940   32.2670 C.3       9 GLL5        0.0000 
      3 CA          9.3660   22.6460   31.1120 C.3       6 GLP5        0.0000 
      4 CA         15.6015   22.2500   32.4840 C.3       3 GLC5        0.0000 
      5 CA         17.6400   22.9060   32.7010 C.3       6 GLP5        0.0000 
      6 CA         14.3455   21.2510   30.3805 C.3       3 GLC5        0.0000 
      7 CA         15.1280   20.9080   28.4940 C.3       6 GLP5        0.0000 
      8 CA         11.8625   18.4290   33.1630 C.3       3 GLC5        0.0000 
      9 CA         12.9530   18.9070   34.9420 C.3       9 GLL5        0.0000 
     10 CA         10.7720   17.9510   31.3840 C.3       6 GLP5        0.0000 
     11 CA         12.6650   17.2740   33.2330 C.3       3 GLC5        0.0000 
     12 CA         14.0280   17.9930   34.8050 C.3       9 GLL5        0.0000 
     13 CA         11.3020   16.5550   31.6610 C.3       6 GLP5        0.0000 
     14 CA         13.3375   19.0475   31.7560 C.3       3 GLC5        0.0000 
     15 CA         14.9130   19.3500   32.9760 C.3       9 GLL5        0.0000 
     16 CA         11.7620   18.7450   30.5360 C.3       6 GLP5        0.0000 
     17 CA         16.3795   20.7900   32.1725 C.3       3 GLC5        0.0000 
     18 CA         17.8460   22.2300   31.3690 C.3       6 GLP5        0.0000 
     19 CA         10.4980   26.8165   38.0340 C.3       3 GLC5        0.0000 
     20 CA         10.0550   26.5700   35.8650 C.3       9 GLL5        0.0000 
     21 CA         10.9410   27.0630   40.2030 C.3       6 GLP5        0.0000 
     22 CA          8.1325   26.9380   36.8875 C.3       3 GLC5        0.0000 
     23 CA          6.2100   27.3060   37.9100 C.3       6 GLP5        0.0000 
     24 CA         10.4895   28.3365   33.3120 C.3       3 GLC5        0.0000 
     25 CA         10.3240   27.8620   35.0790 C.3       9 GLL5        0.0000 
     26 CA         10.6550   28.8110   31.5450 C.3       6 GLP5        0.0000 
     27 CA          8.5335   28.2955   33.9755 C.3       3 GLC5        0.0000 
     28 CA          6.7430   28.7290   32.8720 C.3       6 GLP5        0.0000 
     29 CA          6.7545   26.2675   36.2975 C.3       3 GLC5        0.0000 
     30 CA          7.2990   25.2290   34.6850 C.3       9 GLL5        0.0000 
     31 N           5.2595   27.1150   34.4070 N.am      2 SEC2        0.0000 
     32 N           4.5740   26.0500   34.9680 N.am      8 SEL2        0.0000 
     33 N           5.9450   28.1800   33.8460 N.am      5 SEP2        0.0000 
     34 N           4.9280   26.2000   36.2750 N.am      2 SEC2        0.0000 
     35 N           5.2820   26.3500   37.5820 N.am      5 SEP2        0.0000 
     36 CA          1.6225   25.0665   35.7545 C.3       3 GLC5        0.0000 
     37 CA          2.8070   23.8630   35.2490 C.3       9 GLL5        0.0000 
     38 CA          0.4380   26.2700   36.2600 C.3       6 GLP5        0.0000 
     39 CA          2.3595   23.2035   36.9390 C.3       3 GLC5        0.0000 
     40 CA          1.9120   22.5440   38.6290 C.3       6 GLP5        0.0000 
     41 CA          6.2260   23.5985   37.6390 C.3       3 GLC5        0.0000 
     42 CA          4.6340   23.5750   36.3200 C.3       9 GLL5        0.0000 
     43 CA          7.8180   23.6220   38.9580 C.3       6 GLP5        0.0000 
     44 CA          5.4220   25.4405   37.1150 C.3       3 GLC5        0.0000 
     45 CA          4.2230   21.4380   32.6605 C.3       3 GLC5        0.0000 
     46 CA          4.2640   22.4710   34.5240 C.3       9 GLL5        0.0000 
     47 CA          4.1820   20.4050   30.7970 C.3       6 GLP5        0.0000 
     48 CA          1.6710   25.7570   34.5535 C.3       3 GLC5        0.0000 
     49 CA          2.9040   25.2440   32.8470 C.3       9 GLL5        0.0000 
     50 CA          1.4520   24.3425   32.1540 C.3       3 GLC5        0.0000 
     51 CA          0.0000   23.4410   31.4610 C.3       6 GLP5        0.0000 
     52 CA          6.1995   23.5695   31.4070 C.3       3 GLC5        0.0000 
     53 CA          4.3670   23.8680   32.1020 C.3       9 GLL5        0.0000 
     54 CA          8.0320   23.2710   30.7120 C.3       6 GLP5        0.0000 
     55 CA          4.2745   22.1365   31.4495 C.3       3 GLC5        0.0000 
     56 CA          2.1835   23.6545   31.7815 C.3       3 GLC5        0.0000 
     57 CA          5.7205   26.5030   30.2890 C.3       3 GLC5        0.0000 
     58 CA          4.8040   25.9640   32.1880 C.3       9 GLL5        0.0000 
     59 CA          6.6370   27.0420   28.3900 C.3       6 GLP5        0.0000 
     60 CA          5.7735   27.3465   32.5300 C.3       3 GLC5        0.0000 
     61 CA         10.5475   23.4195   32.5960 C.3       3 GLC5        0.0000 
     62 CA         11.7290   24.1930   34.0800 C.3       9 GLL5        0.0000 
     63 CA         12.2890   24.6060   38.4750 C.3       3 GLC5        0.0000 
     64 CA         11.9600   24.3410   36.5460 C.3       9 GLL5        0.0000 
     65 CA         12.6180   24.8710   40.4040 C.3       6 GLP5        0.0000 
     66 CA         13.6640   23.2515   38.4540 C.3       3 GLC5        0.0000 
     67 CA         13.2790   23.7300   36.5450 C.3       9 GLL5        0.0000 
     68 CA         14.0490   22.7730   40.3630 C.3       6 GLP5        0.0000 
     69 CA         15.4405   23.6775   32.8705 C.3       3 GLC5        0.0000 
     70 CA         13.7260   23.1200   32.8190 C.3       9 GLL5        0.0000 
     71 CA         17.1550   24.2350   32.9220 C.3       6 GLP5        0.0000 
     72 CA         17.3050   15.7230   34.9305 C.3       3 GLC5        0.0000 
     73 CA         16.2140   17.1740   33.6810 C.3       9 GLL5        0.0000 
     74 CA         18.3960   14.2720   36.1800 C.3       6 GLP5        0.0000 
     75 CA         17.1520   15.7615   33.0380 C.3       3 GLC5        0.0000 
     76 CA         18.0900   14.3490   32.3950 C.3       6 GLP5        0.0000 
     77 CA         15.0830   15.9630   32.2290 C.3       3 GLC5        0.0000 
     78 CA         13.9520   14.7520   30.7770 C.3       6 GLP5        0.0000 
     79 CA         16.5760   18.3645   35.4490 C.3       3 GLC5        0.0000 
     80 CA         16.9380   19.5550   37.2170 C.3       6 GLP5        0.0000 
     81 CA         17.9165   17.6760   33.3010 C.3       3 GLC5        0.0000 
     82 CA         19.6190   18.1780   32.9210 C.3       6 GLP5        0.0000 
     83 CA         16.7445   17.4095   31.8255 C.3       3 GLC5        0.0000 
     84 CA         17.2750   17.6450   29.9700 C.3       6 GLP5        0.0000 
     85 N          17.9475   16.3515   35.0725 N.am      2 SEC2        0.0000 
     86 N          17.1060   17.3750   34.7500 N.am      8 SEL2        0.0000 
     87 N          18.7890   15.3280   35.3950 N.am      5 SEP2        0.0000 
     88 O          17.8885   18.2715   34.0120 O.2       1 ALC1        0.0000 
     89 O          17.1060   17.3750   34.7500 O.2       7 ALL1        0.0000 
     90 O          18.6710   19.1680   33.2740 O.2       4 ALP1        0.0000 
     91 CA         15.6390   15.5985   36.3660 C.3       3 GLC5        0.0000 
     92 CA         14.0230   16.8040   35.7760 C.3       9 GLL5        0.0000 
     93 CA         17.2550   14.3930   36.9560 C.3       6 GLP5        0.0000 
     94 CA         11.8705   16.4620   36.2055 C.3       3 GLC5        0.0000 
     95 CA          9.7180   16.1200   36.6350 C.3       6 GLP5        0.0000 
     96 CA         14.2295   16.8340   37.6500 C.3       3 GLC5        0.0000 
     97 CA         14.4360   16.8640   39.5240 C.3       6 GLP5        0.0000 
     98 CA         15.4805   18.1795   36.4965 C.3       3 GLC5        0.0000 
     99 N          13.0030   15.4145   37.2060 N.am      2 SEC2        0.0000 
    100 N          12.8360   16.7210   36.5210 N.am      8 SEL2        0.0000 
    101 N          13.1700   14.1080   37.8910 N.am      5 SEP2        0.0000 
    102 O          11.6470   16.4510   35.9770 O.2       1 ALC1        0.0000 
    103 O          12.8360   16.7210   36.5210 O.2       7 ALL1        0.0000 
    104 O          10.4580   16.1810   35.4330 O.2       4 ALP1        0.0000 
    105 CA         11.9485   19.8390   36.2660 C.3       3 GLC5        0.0000 
    106 CA         12.8430   20.0350   34.1140 C.3       9 GLL5        0.0000 
    107 CA         10.9990   20.2070   38.0040 C.3       6 GLP5        0.0000 
    108 CA         14.7347   19.5385   35.7828 C.3       3 GLC5        0.0000 
    109 CA         15.9790   20.6270   36.6920 C.3       6 GLP5        0.0000 
    110 CA         15.4860   19.6893   35.0443 C.3       3 GLC5        0.0000 
    111 CA         15.0730   18.1530   33.8170 C.3       9 GLL5        0.0000 
    112 CA         16.1340   18.1983   31.6833 C.3       3 GLC5        0.0000 
    113 CA         12.5125   19.6184   31.9688 C.3       3 GLC5        0.0000 
    114 CA         13.8030   20.3030   33.1110 C.3       9 GLL5        0.0000 
    115 CA         14.6510   20.3980   35.1522 C.3       3 GLC5        0.0000 
    116 CA          8.5188   24.2760   36.9835 C.3       3 GLC5        0.0000 
    117 CA          9.8010   25.2060   35.2560 C.3       9 GLL5        0.0000 
    118 CA          9.3827   28.8800   36.1685 C.3       3 GLC5        0.0000 
    119 CA          8.5760   30.5440   36.8650 C.3       6 GLP5        0.0000 
    120 CA         11.9317   27.4880   36.0240 C.3       3 GLC5        0.0000 
    121 CA         13.6740   27.7600   36.5760 C.3       6 GLP5        0.0000 
    122 CA          6.7675   26.8042   33.6470 C.3       3 GLC5        0.0000 
    123 CA          6.2850   24.5300   34.1590 C.3       9 GLL5        0.0000 
    124 CA          7.6219   24.7634   32.6081 C.3       3 GLC5        0.0000 
    125 CA          8.1170   24.7910   30.7750 C.3       6 GLP5        0.0000 
    126 CA          7.4049   22.8754   34.3996 C.3       3 GLC5        0.0000 
    127 CA          7.6830   21.0150   34.3580 C.3       6 GLP5        0.0000 
    128 CA          5.1955   21.5977   35.5926 C.3       3 GLC5        0.0000 
    129 CA          6.0740   20.1530   36.0670 C.3       6 GLP5        0.0000 
    130 CA          2.2156   22.2653   35.0157 C.3       3 GLC5        0.0000 
    131 CA          0.5710   21.4160   35.1810 C.3       6 GLP5        0.0000 
    132 CA          3.7395   22.4857   36.9166 C.3       3 GLC5        0.0000 
    133 CA          3.1620   21.9290   38.7150 C.3       6 GLP5        0.0000 
    134 CA          6.3090   25.1307   31.6410 C.3       3 GLC5        0.0000 
    135 CA          4.1980   24.9770   32.8260 C.3       9 GLL5        0.0000 
    136 CA          3.6307   25.1523   30.9193 C.3       3 GLC5        0.0000 
    137 CA          2.8800   25.0780   29.5100 C.3       6 GLP5        0.0000 
    138 CA          2.7782   26.7281   32.1386 C.3       3 GLC5        0.0000 
    139 CA          1.3790   27.9190   31.7650 C.3       6 GLP5        0.0000 
    140 CA         11.8093   22.1212   37.2747 C.3       3 GLC5        0.0000 
    141 CA         14.7495   22.0890   36.2960 C.3       3 GLC5        0.0000 
    142 CA         13.0485   25.9278   36.4065 C.3       3 GLC5        0.0000 
@<TRIPOS>BOND
@<TRIPOS>SUBSTRUCTURE
     1 ALC1       88 GROUP        1 X    ALC  0     ROOT ALC X 1
     2 SEC2       31 GROUP        1 X    SEC  0     **** SEC X 2
     3 GLC5        1 GROUP        1 X    GLC  0     **** GLC X 6
     4 ALP1       90 GROUP        1 Y    ALP  0     ROOT ALP Y 8
     5 SEP2       33 GROUP        1 Y    SEP  0     **** SEP Y 9
     6 GLP5        3 GROUP        1 Y    GLP  0     **** GLP Y 13
     7 ALL1       89 GROUP        1 Z    ALL  0     ROOT ALL Z 15
     8 SEL2       32 GROUP        1 Z    SEL  0     **** SEL Z 16
     9 GLL5        2 GROUP        1 Z    GLL  0     **** GLL Z 20
@<TRIPOS>SET

