#    Name: 4g2i_0VQ_1_ligand
#    Modification time : Mon Mar 24 21:14:42 2014

@<TRIPOS>MOLECULE
4g2i_0VQ_1_ligand
   60    61     1     0     0
SMALL
NO_CHARGES


@<TRIPOS>ATOM
      1 C10        13.5630   21.5940   32.2670 C.3       1 0VQ501      0.0000 
      2 C1         12.9530   18.9070   34.9420 C.ar      1 0VQ501      0.0000 
      3 C2         14.0280   17.9930   34.8050 C.ar      1 0VQ501      0.0000 
      4 C3         15.0730   18.1530   33.8170 C.ar      1 0VQ501      0.0000 
      5 C4         14.9130   19.3500   32.9760 C.ar      1 0VQ501      0.0000 
      6 C6         12.8430   20.0350   34.1140 C.ar      1 0VQ501      0.0000 
      7 C5         13.8030   20.3030   33.1110 C.ar      1 0VQ501      0.0000 
      8 C26         9.8010   25.2060   35.2560 C.2       1 0VQ501      0.0000 
      9 C27        10.0550   26.5700   35.8650 C.3       1 0VQ501      0.0000 
     10 C28        10.3240   27.8620   35.0790 C.3       1 0VQ501      0.0000 
     11 C34         8.6380   24.6540   34.7620 C.2       1 0VQ501      0.0000 
     12 C35         7.2990   25.2290   34.6850 C.2       1 0VQ501      0.0000 
     13 C37         6.2850   24.5300   34.1590 C.2       1 0VQ501      0.0000 
     14 C38         4.7900   24.8110   34.2820 C.3       1 0VQ501      0.0000 
     15 O39         4.5740   26.0500   34.9680 O.3       1 0VQ501      0.0000 
     16 C40         4.1060   23.6530   35.1050 C.3       1 0VQ501      0.0000 
     17 F41         2.8070   23.8630   35.2490 F         1 0VQ501      0.0000 
     18 F42         4.6340   23.5750   36.3200 F         1 0VQ501      0.0000 
     19 F43         4.2640   22.4710   34.5240 F         1 0VQ501      0.0000 
     20 C44         4.1980   24.9770   32.8260 C.3       1 0VQ501      0.0000 
     21 F45         2.9040   25.2440   32.8470 F         1 0VQ501      0.0000 
     22 F46         4.3670   23.8680   32.1020 F         1 0VQ501      0.0000 
     23 F47         4.8040   25.9640   32.1880 F         1 0VQ501      0.0000 
     24 C14        12.9870   23.6090   34.0810 C.ar      1 0VQ501      0.0000 
     25 C17        11.7290   24.1930   34.0800 C.ar      1 0VQ501      0.0000 
     26 C18        11.1740   24.5810   35.3120 C.ar      1 0VQ501      0.0000 
     27 C19        11.9600   24.3410   36.5460 C.ar      1 0VQ501      0.0000 
     28 C20        13.2790   23.7300   36.5450 C.ar      1 0VQ501      0.0000 
     29 C21        13.7610   23.3720   35.2550 C.ar      1 0VQ501      0.0000 
     30 C11        13.7260   23.1200   32.8190 C.3       1 0VQ501      0.0000 
     31 C48        16.2140   17.1740   33.6810 C.3       1 0VQ501      0.0000 
     32 O49        17.1060   17.3750   34.7500 O.3       1 0VQ501      0.0000 
     33 C52        14.0230   16.8040   35.7760 C.3       1 0VQ501      0.0000 
     34 O53        12.8360   16.7210   36.5210 O.3       1 0VQ501      0.0000 
     35 H          12.5124   21.5388   31.8216 H         1 0VQ501      0.0000 
     36 H          14.2151   21.5345   31.3308 H         1 0VQ501      0.0000 
     37 H          12.2400   18.7342   35.6669 H         1 0VQ501      0.0000 
     38 H          15.6219   19.5295   32.2498 H         1 0VQ501      0.0000 
     39 H          12.0502   20.6821   34.2356 H         1 0VQ501      0.0000 
     40 H          10.9199   26.4563   36.6263 H         1 0VQ501      0.0000 
     41 H           9.1812   26.7963   36.5901 H         1 0VQ501      0.0000 
     42 H           8.6982   23.6425   34.3651 H         1 0VQ501      0.0000 
     43 H           7.1866   26.1859   35.0531 H         1 0VQ501      0.0000 
     44 H           6.4767   23.6531   33.5672 H         1 0VQ501      0.0000 
     45 H          11.2157   24.3401   33.2176 H         1 0VQ501      0.0000 
     46 H          11.5417   24.6246   37.4399 H         1 0VQ501      0.0000 
     47 H          13.7787   23.5844   37.3669 H         1 0VQ501      0.0000 
     48 H          14.6854   22.9337   35.1662 H         1 0VQ501      0.0000 
     49 H          13.4619   23.7903   31.9521 H         1 0VQ501      0.0000 
     50 H          14.8335   23.2820   32.9523 H         1 0VQ501      0.0000 
     51 H          16.6901   17.3427   32.7085 H         1 0VQ501      0.0000 
     52 H          15.7930   16.1623   33.6790 H         1 0VQ501      0.0000 
     53 H          14.9171   16.9143   36.4254 H         1 0VQ501      0.0000 
     54 H          14.2000   15.8911   35.1688 H         1 0VQ501      0.0000 
     55 H          10.4621   28.6443   35.6864 H         1 0VQ501      0.0000 
     56 H          11.1416   27.7861   34.5083 H         1 0VQ501      0.0000 
     57 H           9.5634   28.0927   34.4722 H         1 0VQ501      0.0000 
     58 H           3.7889   26.6640   35.0503 H         1 0VQ501      0.0000 
     59 H          17.6586   18.1638   34.4809 H         1 0VQ501      0.0000 
     60 H          12.1227   16.5201   35.8496 H         1 0VQ501      0.0000 
@<TRIPOS>BOND
     1    7    1 1    
     2   30    1 1    
     3   35    1 1    
     4   36    1 1    
     5    3    2 ar   
     6    6    2 ar   
     7   37    2 1    
     8    4    3 ar   
     9   33    3 1    
    10    5    4 ar   
    11   31    4 1    
    12    7    5 ar   
    13   38    5 1    
    14    7    6 ar   
    15   39    6 1    
    16    9    8 1    
    17   11    8 2    
    18   26    8 1    
    19   10    9 1    
    20   40    9 1    
    21   41    9 1    
    22   55   10 1    
    23   56   10 1    
    24   57   10 1    
    25   12   11 1    
    26   42   11 1    
    27   13   12 2    
    28   43   12 1    
    29   14   13 1    
    30   44   13 1    
    31   15   14 1    
    32   16   14 1    
    33   20   14 1    
    34   58   15 1    
    35   17   16 1    
    36   18   16 1    
    37   19   16 1    
    38   21   20 1    
    39   22   20 1    
    40   23   20 1    
    41   25   24 ar   
    42   29   24 ar   
    43   30   24 1    
    44   26   25 ar   
    45   45   25 1    
    46   27   26 ar   
    47   28   27 ar   
    48   46   27 1    
    49   29   28 ar   
    50   47   28 1    
    51   48   29 1    
    52   49   30 1    
    53   50   30 1    
    54   32   31 1    
    55   51   31 1    
    56   52   31 1    
    57   59   32 1    
    58   34   33 1    
    59   53   33 1    
    60   54   33 1    
    61   60   34 1    
@<TRIPOS>SUBSTRUCTURE
     1 0VQ501      1 GROUP   
@<TRIPOS>SET

