#    Name: 3ddw_055_2_INTS_M
#    Modification time : Mon Mar 24 23:12:45 2014

@<TRIPOS>MOLECULE
3ddw_055_2_INTS_M
   78     0    12     0     0
SMALL
NO_CHARGES


@<TRIPOS>ATOM
      1 CA         81.9290  -94.3925  120.1120 C.3       4 GLC5        0.0000 
      2 CA         83.2230  -95.6760  120.6890 C.3      12 GLL5        0.0000 
      3 CA         80.6350  -93.1090  119.5350 C.3       8 GLP5        0.0000 
      4 CA         83.1395  -96.2605  118.9760 C.3       4 GLC5        0.0000 
      5 CA         83.0560  -96.8450  117.2630 C.3       8 GLP5        0.0000 
      6 CA         82.6145  -97.7370  120.6780 C.3       4 GLC5        0.0000 
      7 CA         82.0060  -99.7980  120.6670 C.3       8 GLP5        0.0000 
      8 CA         89.8490  -95.9600  122.8315 C.3       4 GLC5        0.0000 
      9 CA         88.2550  -96.6150  122.1070 C.3      12 GLL5        0.0000 
     10 CA         91.4430  -95.3050  123.5560 C.3       8 GLP5        0.0000 
     11 CA         88.6810  -98.5060  121.9000 C.3       4 GLC5        0.0000 
     12 CA         89.1070 -100.3970  121.6930 C.3       8 GLP5        0.0000 
     13 CA         89.2700  -96.5940  120.4920 C.3       4 GLC5        0.0000 
     14 CA         90.2850  -96.5730  118.8770 C.3       8 GLP5        0.0000 
     15 O          86.6040  -97.5385  119.7375 O.2       1 ALC1        0.0000 
     16 O          85.7730  -97.4560  120.9930 O.2       9 ALL1        0.0000 
     17 O          87.4350  -97.6210  118.4820 O.2       5 ALP1        0.0000 
     18 N          85.4795 -100.6430  120.3765 N.am      2 SEC2        0.0000 
     19 N          85.3220  -99.5680  121.3800 N.am     10 SEL2        0.0000 
     20 N          85.6370 -101.7180  119.3730 N.am      6 SEP2        0.0000 
     21 CA         85.9920 -101.1990  123.4445 C.3       4 GLC5        0.0000 
     22 CA         84.0650 -100.3760  123.6950 C.3      12 GLL5        0.0000 
     23 CA         87.9190 -102.0220  123.1940 C.3       8 GLP5        0.0000 
     24 CA         85.8400 -102.2980  123.9285 C.3       4 GLC5        0.0000 
     25 CA         83.7610 -102.5740  124.6630 C.3      12 GLL5        0.0000 
     26 CA         84.5875 -102.5470  126.3935 C.3       4 GLC5        0.0000 
     27 CA         85.4140 -102.5200  128.1240 C.3       8 GLP5        0.0000 
     28 CA         81.8280 -104.0665  123.8395 C.3       4 GLC5        0.0000 
     29 CA         83.1070 -103.4150  125.5570 C.3      12 GLL5        0.0000 
     30 CA         80.5490 -104.7180  122.1220 C.3       8 GLP5        0.0000 
     31 CA         81.2370 -100.6295  128.0735 C.3       4 GLC5        0.0000 
     32 CA         81.7350 -101.5690  126.3170 C.3      12 GLL5        0.0000 
     33 CA         80.7390  -99.6900  129.8300 C.3       8 GLP5        0.0000 
     34 N          83.8410  -95.3775  124.9945 N.am      2 SEC2        0.0000 
     35 N          83.1360  -96.2340  124.0990 N.am     10 SEL2        0.0000 
     36 N          84.5460  -94.5210  125.8900 N.am      6 SEP2        0.0000 
     37 NZ         81.2790  -91.7495  125.4685 N.4       3 LYC4        0.0000 
     38 NZ         81.4950  -93.4030  125.2710 N.4      11 LYL4        0.0000 
     39 NZ         80.6440  -90.3200  126.8970 N.4       7 LYP4        0.0000 
     40 N          81.0310  -92.4920  126.2930 N.am      2 SEC2        0.0000 
     41 N          81.4950  -93.4030  125.2710 N.am     10 SEL2        0.0000 
     42 N          80.5670  -91.5810  127.3150 N.am      6 SEP2        0.0000 
     43 N          81.2790  -91.7495  125.4685 N.am      2 SEC2        0.0000 
     44 N          81.0630  -90.0960  125.6660 N.am      6 SEP2        0.0000 
     45 CA         78.4935  -93.3385  126.7375 C.3       4 GLC5        0.0000 
     46 CA         78.3530  -94.1840  124.9160 C.3      12 GLL5        0.0000 
     47 CA         78.6340  -92.4930  128.5590 C.3       8 GLP5        0.0000 
     48 CA         76.6180  -92.8770  126.1295 C.3       4 GLC5        0.0000 
     49 CA         76.9750  -93.8130  124.3870 C.3      12 GLL5        0.0000 
     50 CA         76.2610  -91.9410  127.8720 C.3       8 GLP5        0.0000 
     51 CA         79.1705  -98.1920  122.6585 C.3       4 GLC5        0.0000 
     52 CA         78.4320  -96.2550  123.2990 C.3      12 GLL5        0.0000 
     53 CA         79.9090 -100.1290  122.0180 C.3       8 GLP5        0.0000 
     54 CA         86.3975  -95.1458  124.1780 C.3       4 GLC5        0.0000 
     55 CA         86.0110  -93.6110  122.6500 C.3      12 GLL5        0.0000 
     56 CA         86.2370  -96.2510  125.7020 C.3       8 GLP5        0.0000 
     57 CA         86.4980  -96.2054  123.7214 C.3       4 GLC5        0.0000 
     58 CA         87.0350  -95.7280  122.0580 C.3      12 GLL5        0.0000 
     59 CA         84.7888  -98.6058  124.9845 C.3       4 GLC5        0.0000 
     60 CA         83.7300  -99.0190  123.6070 C.3      12 GLL5        0.0000 
     61 CA         85.6800  -97.5140  126.3180 C.3       8 GLP5        0.0000 
     62 CA         82.8296 -100.1309  122.3953 C.3       4 GLC5        0.0000 
     63 CA         83.4090 -101.2300  124.5960 C.3      12 GLL5        0.0000 
     64 CA         84.3510 -102.4193  122.8136 C.3       4 GLC5        0.0000 
     65 CA         84.9530 -103.1500  121.2230 C.3       8 GLP5        0.0000 
     66 CA         83.6538 -103.4647  127.3215 C.3       4 GLC5        0.0000 
     67 CA         84.7080 -103.7680  128.6740 C.3       8 GLP5        0.0000 
     68 CA         83.5539 -101.2435  127.1402 C.3       4 GLC5        0.0000 
     69 CA         84.7870 -101.2110  128.6190 C.3       8 GLP5        0.0000 
     70 CA         84.0368  -98.2417  125.6068 C.3       4 GLC5        0.0000 
     71 CA         82.0620  -99.3960  125.3430 C.3      12 GLL5        0.0000 
     72 CA         81.1940  -99.7168  123.4659 C.3       4 GLC5        0.0000 
     73 CA         82.7250  -98.5430  124.4480 C.3      12 GLL5        0.0000 
     74 CA         75.3057  -92.6855  123.8605 C.3       4 GLC5        0.0000 
     75 CA         76.3440  -94.6390  123.2830 C.3      12 GLL5        0.0000 
     76 CA         73.9520  -91.1450  123.8860 C.3       8 GLP5        0.0000 
     77 CA         75.4352  -95.0310  125.3560 C.3       4 GLC5        0.0000 
     78 CA         74.2110  -95.8360  126.8770 C.3       8 GLP5        0.0000 
@<TRIPOS>BOND
@<TRIPOS>SUBSTRUCTURE
     1 ALC1       15 GROUP        1 X    ALC  0     ROOT ALC X 1
     2 SEC2       18 GROUP        1 X    SEC  0     **** SEC X 2
     3 LYC4       37 GROUP        1 X    LYC  0     **** LYC X 4
     4 GLC5        1 GROUP        1 X    GLC  0     **** GLC X 6
     5 ALP1       17 GROUP        1 Y    ALP  0     ROOT ALP Y 8
     6 SEP2       20 GROUP        1 Y    SEP  0     **** SEP Y 9
     7 LYP4       39 GROUP        1 Y    LYP  0     **** LYP Y 11
     8 GLP5        3 GROUP        1 Y    GLP  0     **** GLP Y 13
     9 ALL1       16 GROUP        1 Z    ALL  0     ROOT ALL Z 15
    10 SEL2       19 GROUP        1 Z    SEL  0     **** SEL Z 16
    11 LYL4       38 GROUP        1 Z    LYL  0     **** LYL Z 18
    12 GLL5        2 GROUP        1 Z    GLL  0     **** GLL Z 20
@<TRIPOS>SET

