#    Name: 3ddw_055_2_ligand
#    Modification time : Mon Mar 24 23:12:46 2014

@<TRIPOS>MOLECULE
3ddw_055_2_ligand
   56    59     1     0     0
SMALL
NO_CHARGES


@<TRIPOS>ATOM
      1 CL1        83.2230  -95.6760  120.6890 Cl        1 055905      0.0000 
      2 C30        84.7820  -95.2710  121.4370 C.ar      1 055905      0.0000 
      3 C29        84.8480  -94.0120  122.0370 C.ar      1 055905      0.0000 
      4 C28        86.0110  -93.6110  122.6500 C.ar      1 055905      0.0000 
      5 C27        87.1050  -94.4700  122.6580 C.ar      1 055905      0.0000 
      6 C26        87.0350  -95.7280  122.0580 C.ar      1 055905      0.0000 
      7 C31        88.2550  -96.6150  122.1070 C.3       1 055905      0.0000 
      8 C25        85.8730  -96.1480  121.3990 C.ar      1 055905      0.0000 
      9 N24        85.7730  -97.4560  120.9930 N.am      1 055905      0.0000 
     10 C23        85.0870  -98.3930  121.6880 C.2       1 055905      0.0000 
     11 O33        85.3220  -99.5680  121.3800 O.2       1 055905      0.0000 
     12 N22        84.2740  -98.1120  122.7100 N.am      1 055905      0.0000 
     13 C5         83.7300  -99.0190  123.6070 C.ar      1 055905      0.0000 
     14 C6         84.0650 -100.3760  123.6950 C.ar      1 055905      0.0000 
     15 C1         83.4090 -101.2300  124.5960 C.ar      1 055905      0.0000 
     16 C7         83.7610 -102.5740  124.6630 C.ar      1 055905      0.0000 
     17 C8         83.1070 -103.4150  125.5570 C.ar      1 055905      0.0000 
     18 C9         82.0920 -102.9080  126.3810 C.ar      1 055905      0.0000 
     19 C2         82.4040 -100.7360  125.4160 C.ar      1 055905      0.0000 
     20 C10        81.7350 -101.5690  126.3170 C.ar      1 055905      0.0000 
     21 C3         82.0620  -99.3960  125.3430 C.ar      1 055905      0.0000 
     22 C4         82.7250  -98.5430  124.4480 C.ar      1 055905      0.0000 
     23 C11        82.3240  -97.1050  124.3620 C.2       1 055905      0.0000 
     24 O14        83.1360  -96.2340  124.0990 O.2       1 055905      0.0000 
     25 N12        81.0440  -96.7860  124.5130 N.am      1 055905      0.0000 
     26 C13        80.5720  -95.4090  124.4020 C.3       1 055905      0.0000 
     27 C16        81.1190  -94.5620  125.5240 C.2       1 055905      0.0000 
     28 O21        81.4950  -93.4030  125.2710 O.co2     1 055905      0.0000 
     29 O20        81.1720  -95.0480  126.6770 O.co2     1 055905      0.0000 
     30 C46        79.0450  -95.4800  124.4740 C.ar      1 055905      0.0000 
     31 C47        78.3530  -94.1840  124.9160 C.ar      1 055905      0.0000 
     32 C48        76.9750  -93.8130  124.3870 C.ar      1 055905      0.0000 
     33 C49        76.3440  -94.6390  123.2830 C.ar      1 055905      0.0000 
     34 C50        77.0590  -95.8750  122.7670 C.ar      1 055905      0.0000 
     35 C51        78.4320  -96.2550  123.2990 C.ar      1 055905      0.0000 
     36 H          84.0260  -93.3956  122.0151 H         1 055905      0.0000 
     37 H          86.0789  -92.6912  123.0981 H         1 055905      0.0000 
     38 H          87.9844  -94.1738  123.1149 H         1 055905      0.0000 
     39 H          86.2573  -97.7358  120.0948 H         1 055905      0.0000 
     40 H          84.0002  -97.0754  122.8709 H         1 055905      0.0000 
     41 H          84.8078 -100.7569  123.0868 H         1 055905      0.0000 
     42 H          84.5007 -102.9437  124.0549 H         1 055905      0.0000 
     43 H          83.3633 -104.4067  125.6175 H         1 055905      0.0000 
     44 H          81.6112 -103.5407  127.0374 H         1 055905      0.0000 
     45 H          80.9987 -101.1948  126.9143 H         1 055905      0.0000 
     46 H          81.3184  -99.0161  125.9453 H         1 055905      0.0000 
     47 H          80.3109  -97.4988  124.7180 H         1 055905      0.0000 
     48 H          80.8437  -94.9941  123.4579 H         1 055905      0.0000 
     49 H          78.8135  -93.5841  125.5544 H         1 055905      0.0000 
     50 H          76.4970  -93.0390  124.7619 H         1 055905      0.0000 
     51 H          75.4760  -94.3762  122.9026 H         1 055905      0.0000 
     52 H          76.6279  -96.4399  122.0773 H         1 055905      0.0000 
     53 H          78.9333  -96.9979  122.8937 H         1 055905      0.0000 
     54 H          89.0423  -96.1886  121.6616 H         1 055905      0.0000 
     55 H          88.5264  -96.8217  123.0470 H         1 055905      0.0000 
     56 H          88.0970  -97.4895  121.6485 H         1 055905      0.0000 
@<TRIPOS>BOND
     1    2    1 1    
     2    3    2 ar   
     3    8    2 ar   
     4    4    3 ar   
     5   36    3 1    
     6    5    4 ar   
     7   37    4 1    
     8    6    5 ar   
     9   38    5 1    
    10    7    6 1    
    11    8    6 ar   
    12   54    7 1    
    13   55    7 1    
    14   56    7 1    
    15    9    8 1    
    16   10    9 am   
    17   39    9 1    
    18   11   10 2    
    19   12   10 am   
    20   13   12 1    
    21   40   12 1    
    22   14   13 ar   
    23   22   13 ar   
    24   15   14 ar   
    25   41   14 1    
    26   16   15 ar   
    27   19   15 ar   
    28   17   16 ar   
    29   42   16 1    
    30   18   17 ar   
    31   43   17 1    
    32   20   18 ar   
    33   44   18 1    
    34   20   19 ar   
    35   21   19 ar   
    36   45   20 1    
    37   22   21 ar   
    38   46   21 1    
    39   23   22 1    
    40   24   23 2    
    41   25   23 am   
    42   26   25 1    
    43   47   25 1    
    44   27   26 1    
    45   30   26 1    
    46   48   26 1    
    47   28   27 ar   
    48   29   27 ar   
    49   31   30 ar   
    50   35   30 ar   
    51   32   31 ar   
    52   49   31 1    
    53   33   32 ar   
    54   50   32 1    
    55   34   33 ar   
    56   51   33 1    
    57   35   34 ar   
    58   52   34 1    
    59   53   35 1    
@<TRIPOS>SUBSTRUCTURE
     1 055905      1 GROUP   
@<TRIPOS>SET

