#    Name: 4eak_ATP_1_INTS_M
#    Modification time : Tue Mar 25 10:50:16 2014

@<TRIPOS>MOLECULE
4eak_ATP_1_INTS_M
   74     0    12     0     0
SMALL
NO_CHARGES


@<TRIPOS>ATOM
      1 N         -11.5450  399.3765  -24.8235 N.am      2 SEC2        0.0000 
      2 N         -10.3720  399.1350  -25.8150 N.am     10 SEL2        0.0000 
      3 N         -12.7180  399.6180  -23.8320 N.am      6 SEP2        0.0000 
      4 NZ         -7.3595  398.0880  -23.8725 N.4       3 LYC4        0.0000 
      5 NZ         -8.3070  398.5920  -24.5470 N.4      11 LYL4        0.0000 
      6 NZ         -6.0670  396.5620  -23.9730 N.4       7 LYP4        0.0000 
      7 N          -7.3595  398.0880  -23.8725 N.am      2 SEC2        0.0000 
      8 N          -8.3070  398.5920  -24.5470 N.am     10 SEL2        0.0000 
      9 N          -6.4120  397.5840  -23.1980 N.am      6 SEP2        0.0000 
     10 N         -10.0675  404.1555  -26.1530 N.am      2 SEC2        0.0000 
     11 N          -9.3080  403.1160  -25.7930 N.am     10 SEL2        0.0000 
     12 N         -10.8270  405.1950  -26.5130 N.am      6 SEP2        0.0000 
     13 N          -8.1930  403.7575  -25.0810 N.am      2 SEC2        0.0000 
     14 N          -7.0780  404.3990  -24.3690 N.am      6 SEP2        0.0000 
     15 N          -8.6895  404.1905  -26.7260 N.am      2 SEC2        0.0000 
     16 N          -8.0710  405.2650  -27.6590 N.am      6 SEP2        0.0000 
     17 N         -11.4180  400.9695  -20.9905 N.am      2 SEC2        0.0000 
     18 N         -11.3090  402.1330  -21.8460 N.am     10 SEL2        0.0000 
     19 N         -11.5270  399.8060  -20.1350 N.am      6 SEP2        0.0000 
     20 N         -11.7120  400.8045  -23.9990 N.am      2 SEC2        0.0000 
     21 N         -10.7060  401.9910  -24.1660 N.am     10 SEL2        0.0000 
     22 CA        -10.2235  405.5235  -24.3905 C.3       4 GLC5        0.0000 
     23 CA        -10.5880  404.8360  -22.5580 C.3      12 GLL5        0.0000 
     24 CA         -9.8590  406.2110  -26.2230 C.3       8 GLP5        0.0000 
     25 CA        -10.2240  406.7395  -23.8680 C.3       4 GLC5        0.0000 
     26 CA         -9.8650  405.9770  -21.8620 C.3      12 GLL5        0.0000 
     27 CA        -10.5830  407.5020  -25.8740 C.3       8 GLP5        0.0000 
     28 CA         -7.3875  404.7175  -23.4700 C.3       4 GLC5        0.0000 
     29 CA         -8.4790  406.2190  -22.3680 C.3      12 GLL5        0.0000 
     30 CA         -6.2960  403.2160  -24.5720 C.3       8 GLP5        0.0000 
     31 CA         -9.1690  406.2150  -24.2955 C.3       4 GLC5        0.0000 
     32 O          -6.5870  407.3715  -22.9615 O.2       1 ALC1        0.0000 
     33 O          -8.2590  407.5920  -22.5720 O.2       9 ALL1        0.0000 
     34 O          -4.9150  407.1510  -23.3510 O.2       5 ALP1        0.0000 
     35 O          -7.2580  408.2385  -23.0230 O.2       1 ALC1        0.0000 
     36 O          -6.2570  408.8850  -23.4740 O.2       5 ALP1        0.0000 
     37 CA         -6.7865  404.1795  -22.2435 C.3       4 GLC5        0.0000 
     38 CA         -7.5810  405.7860  -21.2590 C.3      12 GLL5        0.0000 
     39 CA         -5.9920  402.5730  -23.2280 C.3       8 GLP5        0.0000 
     40 O          -5.7265  406.9300  -22.2360 O.2       1 ALC1        0.0000 
     41 O          -6.5380  406.7090  -21.1210 O.2       9 ALL1        0.0000 
     42 O          -6.3975  407.7970  -22.2975 O.2       1 ALC1        0.0000 
     43 CA         -9.9235  404.6550  -18.8970 C.3       4 GLC5        0.0000 
     44 CA         -8.4320  405.8310  -20.0490 C.3      12 GLL5        0.0000 
     45 CA        -11.4150  403.4790  -17.7450 C.3       8 GLP5        0.0000 
     46 CA         -8.2385  402.9905  -14.2860 C.3       4 GLC5        0.0000 
     47 CA         -7.3000  403.1040  -16.1620 C.3      12 GLL5        0.0000 
     48 CA         -9.1770  402.8770  -12.4100 C.3       8 GLP5        0.0000 
     49 CA         -8.9110  402.3190  -15.8675 C.3       4 GLC5        0.0000 
     50 CA        -10.5220  401.5340  -15.5730 C.3       8 GLP5        0.0000 
     51 O          -6.9045  401.5975  -14.2790 O.2       1 ALC1        0.0000 
     52 O          -7.0980  401.8890  -15.6560 O.2       9 ALL1        0.0000 
     53 O          -6.7110  401.3060  -12.9020 O.2       5 ALP1        0.0000 
     54 O          -7.6235  400.7130  -16.3225 O.2       1 ALC1        0.0000 
     55 O          -8.1490  399.5370  -16.9890 O.2       5 ALP1        0.0000 
     56 N          -7.1160  404.1545  -13.9365 N.am      2 SEC2        0.0000 
     57 N          -7.1980  404.1600  -15.3960 N.am     10 SEL2        0.0000 
     58 N          -7.0340  404.1490  -12.4770 N.am      6 SEP2        0.0000 
     59 CA         -9.2465  406.2815  -15.5255 C.3       4 GLC5        0.0000 
     60 CA         -7.3920  405.3880  -15.8180 C.3      12 GLL5        0.0000 
     61 CA        -11.1010  407.1750  -15.2330 C.3       8 GLP5        0.0000 
     62 CA         -6.4360  405.7015  -14.2240 C.3       4 GLC5        0.0000 
     63 CA         -5.4800  406.0150  -12.6300 C.3       8 GLP5        0.0000 
     64 CA         -8.6830  404.7780  -14.1595 C.3       4 GLC5        0.0000 
     65 CA         -9.9740  404.1680  -12.5010 C.3       8 GLP5        0.0000 
     66 CA         -5.9805  403.8235  -18.8110 C.3       4 GLC5        0.0000 
     67 CA         -7.8460  404.7020  -17.9520 C.3      12 GLL5        0.0000 
     68 CA         -4.1150  402.9450  -19.6700 C.3       8 GLP5        0.0000 
     69 CA         -9.2965  406.2350  -17.2695 C.3       4 GLC5        0.0000 
     70 CA        -10.7470  407.7680  -16.5870 C.3       8 GLP5        0.0000 
     71 CA         -5.8425  402.5913  -17.6883 C.3       4 GLC5        0.0000 
     72 CA         -7.6460  403.3370  -17.5590 C.3      12 GLL5        0.0000 
     73 CA         -4.2120  401.9620  -18.5160 C.3       8 GLP5        0.0000 
     74 CA         -9.5805  403.7493  -17.7503 C.3       4 GLC5        0.0000 
@<TRIPOS>BOND
@<TRIPOS>SUBSTRUCTURE
     1 ALC1       32 GROUP        1 X    ALC  0     ROOT ALC X 1
     2 SEC2        1 GROUP        1 X    SEC  0     **** SEC X 2
     3 LYC4        4 GROUP        1 X    LYC  0     **** LYC X 4
     4 GLC5       22 GROUP        1 X    GLC  0     **** GLC X 6
     5 ALP1       34 GROUP        1 Y    ALP  0     ROOT ALP Y 8
     6 SEP2        3 GROUP        1 Y    SEP  0     **** SEP Y 9
     7 LYP4        6 GROUP        1 Y    LYP  0     **** LYP Y 11
     8 GLP5       24 GROUP        1 Y    GLP  0     **** GLP Y 13
     9 ALL1       33 GROUP        1 Z    ALL  0     ROOT ALL Z 15
    10 SEL2        2 GROUP        1 Z    SEL  0     **** SEL Z 16
    11 LYL4        5 GROUP        1 Z    LYL  0     **** LYL Z 18
    12 GLL5       23 GROUP        1 Z    GLL  0     **** GLL Z 20
@<TRIPOS>SET

