#    Name: 4eak_ATP_1_ligand
#    Modification time : Tue Mar 25 10:50:16 2014

@<TRIPOS>MOLECULE
4eak_ATP_1_ligand
   43    45     1     0     0
SMALL
NO_CHARGES


@<TRIPOS>ATOM
      1 PG         -8.9360  399.3260  -25.6520 P.3       1 ATP401      0.0000 
      2 O1G        -8.1430  399.2470  -26.8730 O.co2     1 ATP401      0.0000 
      3 O2G       -10.3720  399.1350  -25.8150 O.co2     1 ATP401      0.0000 
      4 O3G        -8.3070  398.5920  -24.5470 O.co2     1 ATP401      0.0000 
      5 PB         -9.9620  401.8490  -25.5510 P.3       1 ATP401      0.0000 
      6 O1B       -10.9390  401.3160  -26.4970 O.co2     1 ATP401      0.0000 
      7 O2B        -9.3080  403.1160  -25.7930 O.co2     1 ATP401      0.0000 
      8 O3B        -8.8500  400.8110  -25.2060 O.3       1 ATP401      0.0000 
      9 PA        -10.1620  402.2590  -22.7130 P.3       1 ATP401      0.0000 
     10 O1A        -9.0480  401.4070  -22.4170 O.co2     1 ATP401      0.0000 
     11 O2A       -11.3090  402.1330  -21.8460 O.co2     1 ATP401      0.0000 
     12 O3A       -10.7060  401.9910  -24.1660 O.3       1 ATP401      0.0000 
     13 O5'        -9.7190  403.7500  -22.7810 O.3       1 ATP401      0.0000 
     14 C5'       -10.5880  404.8360  -22.5580 C.3       1 ATP401      0.0000 
     15 C4'        -9.8650  405.9770  -21.8620 C.3       1 ATP401      0.0000 
     16 O4'        -9.7450  405.6800  -20.5010 O.3       1 ATP401      0.0000 
     17 C3'        -8.4790  406.2190  -22.3680 C.3       1 ATP401      0.0000 
     18 O3'        -8.2590  407.5920  -22.5720 O.3       1 ATP401      0.0000 
     19 C2'        -7.5810  405.7860  -21.2590 C.3       1 ATP401      0.0000 
     20 O2'        -6.5380  406.7090  -21.1210 O.3       1 ATP401      0.0000 
     21 C1'        -8.4320  405.8310  -20.0490 C.3       1 ATP401      0.0000 
     22 N9         -8.1410  404.6680  -19.2180 N.pl3     1 ATP401      0.0000 
     23 C8         -8.1410  403.4250  -19.6260 C.2       1 ATP401      0.0000 
     24 N7         -7.8520  402.6050  -18.6380 N.2       1 ATP401      0.0000 
     25 C5         -7.6460  403.3370  -17.5590 C.ar      1 ATP401      0.0000 
     26 C6         -7.3000  403.1040  -16.1620 C.ar      1 ATP401      0.0000 
     27 N6         -7.0980  401.8890  -15.6560 N.pl3     1 ATP401      0.0000 
     28 N1         -7.1980  404.1600  -15.3960 N.ar      1 ATP401      0.0000 
     29 C2         -7.3920  405.3880  -15.8180 C.ar      1 ATP401      0.0000 
     30 N3         -7.7040  405.6720  -17.0560 N.ar      1 ATP401      0.0000 
     31 C4         -7.8460  404.7020  -17.9520 C.ar      1 ATP401      0.0000 
     32 H         -11.4487  404.5534  -21.9260 H         1 ATP401      0.0000 
     33 H         -11.0041  405.2325  -23.5012 H         1 ATP401      0.0000 
     34 H         -10.4458  406.8854  -21.9988 H         1 ATP401      0.0000 
     35 H          -8.2957  405.6267  -23.2158 H         1 ATP401      0.0000 
     36 H          -7.2594  404.7986  -21.4327 H         1 ATP401      0.0000 
     37 H          -8.2822  406.7247  -19.5262 H         1 ATP401      0.0000 
     38 H          -8.3335  403.1336  -20.5589 H         1 ATP401      0.0000 
     39 H          -6.4834  401.8367  -14.8689 H         1 ATP401      0.0000 
     40 H          -7.5791  401.1383  -16.1087 H         1 ATP401      0.0000 
     41 H          -7.2895  406.1929  -15.1144 H         1 ATP401      0.0000 
     42 H          -7.2687  407.7092  -22.4974 H         1 ATP401      0.0000 
     43 H          -6.1404  406.7886  -22.0351 H         1 ATP401      0.0000 
@<TRIPOS>BOND
     1    2    1 ar   
     2    3    1 ar   
     3    4    1 ar   
     4    8    1 1    
     5    6    5 ar   
     6    7    5 ar   
     7    8    5 1    
     8   12    5 1    
     9   10    9 ar   
    10   11    9 ar   
    11   12    9 1    
    12   13    9 1    
    13   14   13 1    
    14   15   14 1    
    15   32   14 1    
    16   33   14 1    
    17   16   15 1    
    18   17   15 1    
    19   34   15 1    
    20   21   16 1    
    21   18   17 1    
    22   19   17 1    
    23   35   17 1    
    24   42   18 1    
    25   20   19 1    
    26   21   19 1    
    27   36   19 1    
    28   43   20 1    
    29   22   21 1    
    30   37   21 1    
    31   23   22 1    
    32   31   22 1    
    33   24   23 2    
    34   38   23 1    
    35   25   24 1    
    36   26   25 ar   
    37   31   25 ar   
    38   27   26 1    
    39   28   26 ar   
    40   39   27 1    
    41   40   27 1    
    42   29   28 ar   
    43   30   29 ar   
    44   41   29 1    
    45   31   30 ar   
@<TRIPOS>SUBSTRUCTURE
     1 ATP401      1 GROUP   
@<TRIPOS>SET

