#    Name: 2q2q_NAD_1_INTS_M
#    Modification time : Mon Mar 24 20:29:23 2014

@<TRIPOS>MOLECULE
2q2q_NAD_1_INTS_M
   86     0     9     0     0
SMALL
NO_CHARGES


@<TRIPOS>ATOM
      1 CA         70.0185   41.4640   49.3800 C.3       3 GLC5        0.0000 
      2 CA         71.0510   40.1250   48.0320 C.3       9 GLL5        0.0000 
      3 CA         68.9860   42.8030   50.7280 C.3       6 GLP5        0.0000 
      4 N          69.9075   40.1805   50.6920 N.am      2 SEC2        0.0000 
      5 N          70.9170   39.7160   49.3790 N.am      8 SEL2        0.0000 
      6 N          68.8980   40.6450   52.0050 N.am      5 SEP2        0.0000 
      7 O          71.6945   39.8150   50.7060 O.2       1 ALC1        0.0000 
      8 O          70.9170   39.7160   49.3790 O.2       7 ALL1        0.0000 
      9 O          72.4720   39.9140   52.0330 O.2       4 ALP1        0.0000 
     10 N          74.5165   39.4950   49.6000 N.am      2 SEC2        0.0000 
     11 N          73.4860   40.0490   48.5840 N.am      8 SEL2        0.0000 
     12 N          75.5470   38.9410   50.6160 N.am      5 SEP2        0.0000 
     13 CA         71.2815   37.1480   47.8955 C.3       3 GLC5        0.0000 
     14 CA         72.3450   38.3400   47.1750 C.3       9 GLL5        0.0000 
     15 CA         70.2180   35.9560   48.6160 C.3       6 GLP5        0.0000 
     16 CA         73.3385   37.6145   49.0505 C.3       3 GLC5        0.0000 
     17 CA         74.3320   36.8890   50.9260 C.3       6 GLP5        0.0000 
     18 CA         74.3965   36.5980   43.5040 C.3       3 GLC5        0.0000 
     19 CA         75.0900   37.0820   45.2020 C.3       9 GLL5        0.0000 
     20 CA         73.7030   36.1140   41.8060 C.3       6 GLP5        0.0000 
     21 CA         77.6605   35.0450   45.8780 C.3       3 GLC5        0.0000 
     22 CA         76.0330   36.1340   44.9560 C.3       9 GLL5        0.0000 
     23 CA         79.2880   33.9560   46.8000 C.3       6 GLP5        0.0000 
     24 CA         75.2175   35.4375   43.3665 C.3       3 GLC5        0.0000 
     25 CA         74.4020   34.7410   41.7770 C.3       6 GLP5        0.0000 
     26 N          76.9120   33.7855   45.6925 N.am      2 SEC2        0.0000 
     27 N          76.1030   35.0240   45.7630 N.am      8 SEL2        0.0000 
     28 N          77.7210   32.5470   45.6220 N.am      5 SEP2        0.0000 
     29 CA         77.2695   34.4260   46.8265 C.3       3 GLC5        0.0000 
     30 CA         75.2510   34.8960   46.8530 C.3       9 GLL5        0.0000 
     31 CA         75.2115   33.1065   46.6535 C.3       3 GLC5        0.0000 
     32 CA         75.1720   31.3170   46.4540 C.3       6 GLP5        0.0000 
     33 CA         73.3230   34.5670   46.0770 C.3       3 GLC5        0.0000 
     34 CA         71.3950   34.2380   45.3010 C.3       6 GLP5        0.0000 
     35 CA         72.8115   35.5900   45.7925 C.3       3 GLC5        0.0000 
     36 CA         74.2280   36.9420   46.2840 C.3       9 GLL5        0.0000 
     37 N          64.7340   43.3690   43.8650 N.am      2 SEC2        0.0000 
     38 N          64.8280   41.9540   43.7830 N.am      8 SEL2        0.0000 
     39 N          64.6400   44.7840   43.9470 N.am      5 SEP2        0.0000 
     40 N          64.6495   40.7325   47.1505 N.am      2 SEC2        0.0000 
     41 N          65.5590   41.0160   45.9990 N.am      8 SEL2        0.0000 
     42 N          63.7400   40.4490   48.3020 N.am      5 SEP2        0.0000 
     43 CA         64.3420   38.6595   45.4595 C.3       3 GLC5        0.0000 
     44 CA         65.9760   38.3660   44.3300 C.3       9 GLL5        0.0000 
     45 CA         62.7080   38.9530   46.5890 C.3       6 GLP5        0.0000 
     46 CA         64.0370   36.0750   43.0355 C.3       3 GLC5        0.0000 
     47 CA         65.5530   37.3400   43.2680 C.3       9 GLL5        0.0000 
     48 CA         62.5210   34.8100   42.8030 C.3       6 GLP5        0.0000 
     49 CA         68.2990   37.0530   41.7785 C.3       3 GLC5        0.0000 
     50 CA         66.4370   37.3040   42.0120 C.3       9 GLL5        0.0000 
     51 CA         70.1610   36.8020   41.5450 C.3       6 GLP5        0.0000 
     52 N          66.3740   35.3055   40.4635 N.am      2 SEC2        0.0000 
     53 N          66.8260   36.0050   41.5720 N.am      8 SEL2        0.0000 
     54 N          65.9220   34.6060   39.3550 N.am      5 SEP2        0.0000 
     55 O          67.1555   35.4545   42.7070 O.2       1 ALC1        0.0000 
     56 O          66.8260   36.0050   41.5720 O.2       7 ALL1        0.0000 
     57 O          67.4850   34.9040   43.8420 O.2       4 ALP1        0.0000 
     58 N          65.9510   36.0690   39.5040 N.am      2 SEC2        0.0000 
     59 N          65.9800   37.5320   39.6530 N.am      8 SEL2        0.0000 
     60 O          65.6290   38.0720   38.5605 O.2       1 ALC1        0.0000 
     61 O          65.9800   37.5320   39.6530 O.2       7 ALL1        0.0000 
     62 O          65.2780   38.6120   37.4680 O.2       4 ALP1        0.0000 
     63 CA         63.0410   38.7595   42.9105 C.3       3 GLC5        0.0000 
     64 CA         64.2150   37.6200   41.4060 C.3       9 GLL5        0.0000 
     65 CA         61.8670   39.8990   44.4150 C.3       6 GLP5        0.0000 
     66 CA         63.3680   36.2150   42.1045 C.3       3 GLC5        0.0000 
     67 N          60.4740   43.4470   40.5805 N.am      2 SEC2        0.0000 
     68 N          61.7100   43.0820   39.9680 N.am      8 SEL2        0.0000 
     69 N          59.2380   43.8120   41.1930 N.am      5 SEP2        0.0000 
     70 O          64.0410   43.6295   42.7875 O.2       1 ALC1        0.0000 
     71 O          63.4420   42.4750   41.6280 O.2       7 ALL1        0.0000 
     72 O          64.6400   44.7840   43.9470 O.2       4 ALP1        0.0000 
     73 CA         62.4600   36.4025   41.2785 C.3       3 GLC5        0.0000 
     74 CA         62.3990   37.9950   39.7540 C.3       9 GLL5        0.0000 
     75 CA         70.4190   37.8205   48.0895 C.3       3 GLC5        0.0000 
     76 CA         70.1890   39.2450   47.0940 C.3       9 GLL5        0.0000 
     77 CA         62.2972   40.0778   42.6045 C.3       3 GLC5        0.0000 
     78 CA         63.1740   39.8230   41.1080 C.3       9 GLL5        0.0000 
     79 CA         60.4778   40.9958   41.4763 C.3       3 GLC5        0.0000 
     80 CA         62.2810   40.6900   40.4800 C.3       9 GLL5        0.0000 
     81 CA         59.0950   41.5470   42.9830 C.3       6 GLP5        0.0000 
     82 CA         62.1320   37.4470   37.9188 C.3       3 GLC5        0.0000 
     83 CA         61.4970   38.8410   39.0930 C.3       9 GLL5        0.0000 
     84 CA         62.3160   36.4760   36.4140 C.3       6 GLP5        0.0000 
     85 CA         60.6474   37.8723   40.3745 C.3       3 GLC5        0.0000 
     86 CA         59.3610   36.9870   41.2340 C.3       6 GLP5        0.0000 
@<TRIPOS>BOND
@<TRIPOS>SUBSTRUCTURE
     1 ALC1        7 GROUP        1 X    ALC  0     ROOT ALC X 1
     2 SEC2        4 GROUP        1 X    SEC  0     **** SEC X 2
     3 GLC5        1 GROUP        1 X    GLC  0     **** GLC X 6
     4 ALP1        9 GROUP        1 Y    ALP  0     ROOT ALP Y 8
     5 SEP2        6 GROUP        1 Y    SEP  0     **** SEP Y 9
     6 GLP5        3 GROUP        1 Y    GLP  0     **** GLP Y 13
     7 ALL1        8 GROUP        1 Z    ALL  0     ROOT ALL Z 15
     8 SEL2        5 GROUP        1 Z    SEL  0     **** SEL Z 16
     9 GLL5        2 GROUP        1 Z    GLL  0     **** GLL Z 20
@<TRIPOS>SET

