#    Name: 2q2q_NAD_1_ligand
#    Modification time : Mon Mar 24 20:29:23 2014

@<TRIPOS>MOLECULE
2q2q_NAD_1_ligand
   70    74     1     0     0
SMALL
NO_CHARGES


@<TRIPOS>ATOM
      1 PA         68.1910   42.3090   45.5090 P.3       1 NAD300      0.0000 
      2 O1A        69.4160   42.7410   44.7660 O.co2     1 NAD300      0.0000 
      3 O2A        67.3560   43.3120   46.2780 O.co2     1 NAD300      0.0000 
      4 O5B        68.6110   41.0240   46.4520 O.3       1 NAD300      0.0000 
      5 C5B        69.5190   40.0330   45.9670 C.3       1 NAD300      0.0000 
      6 C4B        70.1890   39.2450   47.0940 C.3       1 NAD300      0.0000 
      7 O4B        71.0520   38.2400   46.5470 O.3       1 NAD300      0.0000 
      8 C3B        71.0510   40.1250   48.0320 C.3       1 NAD300      0.0000 
      9 O3B        70.9170   39.7160   49.3790 O.3       1 NAD300      0.0000 
     10 C2B        72.4790   39.8140   47.5930 C.3       1 NAD300      0.0000 
     11 O2B        73.4860   40.0490   48.5840 O.3       1 NAD300      0.0000 
     12 C1B        72.3450   38.3400   47.1750 C.3       1 NAD300      0.0000 
     13 N9A        73.4080   38.0360   46.2380 N.pl3     1 NAD300      0.0000 
     14 C8A        73.7860   38.8380   45.1680 C.2       1 NAD300      0.0000 
     15 N7A        74.8230   38.2410   44.5230 N.2       1 NAD300      0.0000 
     16 C5A        75.0900   37.0820   45.2020 C.ar      1 NAD300      0.0000 
     17 C6A        76.0330   36.1340   44.9560 C.ar      1 NAD300      0.0000 
     18 N6A        76.9890   36.4580   44.0960 N.pl3     1 NAD300      0.0000 
     19 N1A        76.1030   35.0240   45.7630 N.ar      1 NAD300      0.0000 
     20 C2A        75.2510   34.8960   46.8530 C.ar      1 NAD300      0.0000 
     21 N3A        74.3150   35.8770   47.1210 N.ar      1 NAD300      0.0000 
     22 C4A        74.2280   36.9420   46.2840 C.ar      1 NAD300      0.0000 
     23 O3         67.2280   41.7710   44.2920 O.3       1 NAD300      0.0000 
     24 PN         65.7870   41.0710   44.5220 P.3       1 NAD300      0.0000 
     25 O1N        64.8280   41.9540   43.7830 O.co2     1 NAD300      0.0000 
     26 O2N        65.5590   41.0160   45.9990 O.co2     1 NAD300      0.0000 
     27 O5D        66.2270   39.6570   43.7990 O.3       1 NAD300      0.0000 
     28 C5D        65.9760   38.3660   44.3300 C.3       1 NAD300      0.0000 
     29 C4D        65.5530   37.3400   43.2680 C.3       1 NAD300      0.0000 
     30 O4D        64.2470   37.6650   42.8380 O.3       1 NAD300      0.0000 
     31 C3D        66.4370   37.3040   42.0120 C.3       1 NAD300      0.0000 
     32 O3D        66.8260   36.0050   41.5720 O.3       1 NAD300      0.0000 
     33 C2D        65.6130   37.9860   40.9340 C.3       1 NAD300      0.0000 
     34 O2D        65.9800   37.5320   39.6530 O.3       1 NAD300      0.0000 
     35 C1D        64.2150   37.6200   41.4060 C.3       1 NAD300      0.0000 
     36 N1N        63.2310   38.4950   40.7470 N.pl3     1 NAD300      0.0000 
     37 C2N        63.1740   39.8230   41.1080 C.ar      1 NAD300      0.0000 
     38 C3N        62.2810   40.6900   40.4800 C.ar      1 NAD300      0.0000 
     39 C7N        62.4960   42.1510   40.7080 C.2       1 NAD300      0.0000 
     40 O7N        61.7100   43.0820   39.9680 O.2       1 NAD300      0.0000 
     41 N7N        63.4420   42.4750   41.6280 N.am      1 NAD300      0.0000 
     42 C4N        61.4400   40.1990   39.4590 C.ar      1 NAD300      0.0000 
     43 C5N        61.4970   38.8410   39.0930 C.ar      1 NAD300      0.0000 
     44 C6N        62.3990   37.9950   39.7540 C.ar      1 NAD300      0.0000 
     45 H          70.3242   40.4865   45.3554 H         1 NAD300      0.0000 
     46 H          69.0071   39.3019   45.3101 H         1 NAD300      0.0000 
     47 H          69.4182   38.7822   47.7017 H         1 NAD300      0.0000 
     48 H          70.8480   41.1263   47.8461 H         1 NAD300      0.0000 
     49 H          72.6456   40.3693   46.6717 H         1 NAD300      0.0000 
     50 H          72.4011   37.7507   48.0508 H         1 NAD300      0.0000 
     51 H          73.3732   39.6705   44.9376 H         1 NAD300      0.0000 
     52 H          77.6787   35.7557   43.9196 H         1 NAD300      0.0000 
     53 H          76.9338   37.3753   43.7017 H         1 NAD300      0.0000 
     54 H          75.3196   34.0665   47.4611 H         1 NAD300      0.0000 
     55 H          65.1730   38.3874   45.0993 H         1 NAD300      0.0000 
     56 H          66.8715   37.9520   44.8435 H         1 NAD300      0.0000 
     57 H          65.5639   36.3550   43.7171 H         1 NAD300      0.0000 
     58 H          67.2917   37.9494   42.1996 H         1 NAD300      0.0000 
     59 H          65.7371   39.0436   41.0865 H         1 NAD300      0.0000 
     60 H          64.0577   36.5806   41.0715 H         1 NAD300      0.0000 
     61 H          63.7953   40.1869   41.8497 H         1 NAD300      0.0000 
     62 H          63.9078   41.7079   42.0691 H         1 NAD300      0.0000 
     63 H          63.5889   43.4520   41.7828 H         1 NAD300      0.0000 
     64 H          60.7902   40.8303   38.9862 H         1 NAD300      0.0000 
     65 H          60.8918   38.4810   38.3595 H         1 NAD300      0.0000 
     66 H          62.4400   36.9992   39.4975 H         1 NAD300      0.0000 
     67 H          71.8541   39.6197   49.7146 H         1 NAD300      0.0000 
     68 H          73.8285   40.9687   48.3918 H         1 NAD300      0.0000 
     69 H          66.6380   35.4021   42.3474 H         1 NAD300      0.0000 
     70 H          65.5339   38.1622   39.0176 H         1 NAD300      0.0000 
@<TRIPOS>BOND
     1    2    1 ar   
     2    3    1 ar   
     3    4    1 1    
     4   23    1 1    
     5    5    4 1    
     6    6    5 1    
     7   45    5 1    
     8   46    5 1    
     9    7    6 1    
    10    8    6 1    
    11   47    6 1    
    12   12    7 1    
    13    9    8 1    
    14   10    8 1    
    15   48    8 1    
    16   67    9 1    
    17   11   10 1    
    18   12   10 1    
    19   49   10 1    
    20   68   11 1    
    21   13   12 1    
    22   50   12 1    
    23   14   13 1    
    24   22   13 1    
    25   15   14 2    
    26   51   14 1    
    27   16   15 1    
    28   17   16 ar   
    29   22   16 ar   
    30   18   17 1    
    31   19   17 ar   
    32   52   18 1    
    33   53   18 1    
    34   20   19 ar   
    35   21   20 ar   
    36   54   20 1    
    37   22   21 ar   
    38   24   23 1    
    39   25   24 ar   
    40   26   24 ar   
    41   27   24 1    
    42   28   27 1    
    43   29   28 1    
    44   55   28 1    
    45   56   28 1    
    46   30   29 1    
    47   31   29 1    
    48   57   29 1    
    49   35   30 1    
    50   32   31 1    
    51   33   31 1    
    52   58   31 1    
    53   69   32 1    
    54   34   33 1    
    55   35   33 1    
    56   59   33 1    
    57   70   34 1    
    58   36   35 1    
    59   60   35 1    
    60   37   36 ar   
    61   44   36 ar   
    62   38   37 ar   
    63   61   37 1    
    64   39   38 1    
    65   42   38 ar   
    66   40   39 2    
    67   41   39 am   
    68   62   41 1    
    69   63   41 1    
    70   43   42 ar   
    71   64   42 1    
    72   44   43 ar   
    73   65   43 1    
    74   66   44 1    
@<TRIPOS>SUBSTRUCTURE
     1 NAD300      1 GROUP   
@<TRIPOS>SET

