#    Name: 3jy9_JZH_1_INTS_M
#    Modification time : Tue Mar 25 18:02:13 2014

@<TRIPOS>MOLECULE
3jy9_JZH_1_INTS_M
   73     0     9     0     0
SMALL
NO_CHARGES


@<TRIPOS>ATOM
      1 N          10.2830   18.9105   -0.2800 N.am      2 SEC2        0.0000 
      2 N           9.0030   18.0650    0.2540 N.am      8 SEL2        0.0000 
      3 N          11.5630   19.7560   -0.8140 N.am      5 SEP2        0.0000 
      4 O           8.7000   19.0145    1.0370 O.2       1 ALC1        0.0000 
      5 O           9.0030   18.0650    0.2540 O.2       7 ALL1        0.0000 
      6 O           8.3970   19.9640    1.8200 O.2       4 ALP1        0.0000 
      7 CA         11.0880   15.3615    4.5885 C.3       3 GLC5        0.0000 
      8 CA         10.8190   15.9780    2.6330 C.3       9 GLL5        0.0000 
      9 CA         11.3570   14.7450    6.5440 C.3       6 GLP5        0.0000 
     10 CA          8.2980   15.6975   -1.1145 C.3       3 GLC5        0.0000 
     11 CA         10.2250   16.0030   -0.0790 C.3       9 GLL5        0.0000 
     12 CA          6.3710   15.3920   -2.1500 C.3       6 GLP5        0.0000 
     13 N          13.7175   15.8920    0.0840 N.am      2 SEC2        0.0000 
     14 N          13.9770   14.6030    0.7850 N.am      8 SEL2        0.0000 
     15 N          13.4580   17.1810   -0.6170 N.am      5 SEP2        0.0000 
     16 CA         13.2335   13.1830    7.0400 C.3       3 GLC5        0.0000 
     17 CA         15.0760   13.0050    6.7510 C.3       9 GLL5        0.0000 
     18 CA         11.3910   13.3610    7.3290 C.3       6 GLP5        0.0000 
     19 N          12.7610    7.6435    1.3370 N.am      2 SEC2        0.0000 
     20 N          12.9430    8.9400    2.2500 N.am      8 SEL2        0.0000 
     21 N          12.5790    6.3470    0.4240 N.am      5 SEP2        0.0000 
     22 O          10.3565    9.4330    0.6965 O.2       1 ALC1        0.0000 
     23 O          11.3490   10.4070    1.0970 O.2       7 ALL1        0.0000 
     24 O           9.3640    8.4590    0.2960 O.2       4 ALP1        0.0000 
     25 CA         10.1205   10.5135    2.4195 C.3       3 GLC5        0.0000 
     26 CA         11.1840   11.7680    1.1420 C.3       9 GLL5        0.0000 
     27 CA          9.0570    9.2590    3.6970 C.3       6 GLP5        0.0000 
     28 CA         10.8410   11.6985   -0.7330 C.3       3 GLC5        0.0000 
     29 CA         10.4980   11.6290   -2.6080 C.3       6 GLP5        0.0000 
     30 CA          9.4305   12.8375    1.0705 C.3       3 GLC5        0.0000 
     31 CA          7.6770   13.9070    0.9990 C.3       6 GLP5        0.0000 
     32 CA          9.9710   13.0140    2.3965 C.3       3 GLC5        0.0000 
     33 CA         12.0420   12.3350    2.0560 C.3       9 GLL5        0.0000 
     34 CA          7.9000   13.6930    2.7370 C.3       6 GLP5        0.0000 
     35 CA         11.5335   17.6457    0.8380 C.3       3 GLC5        0.0000 
     36 CA          9.7370   17.0140    0.7780 C.3       9 GLL5        0.0000 
     37 CA         13.1800   18.2920    0.2180 C.3       6 GLP5        0.0000 
     38 CA          9.3070   17.3402    3.9282 C.3       3 GLC5        0.0000 
     39 CA         10.0370   16.9850    2.1380 C.3       9 GLL5        0.0000 
     40 CA          8.1860   18.1990    5.4710 C.3       6 GLP5        0.0000 
     41 CA          9.1640   15.0872    2.5613 C.3       3 GLC5        0.0000 
     42 CA         12.1167   16.8777    1.2160 C.3       3 GLC5        0.0000 
     43 CA          9.8275   14.0370    2.3518 C.3       3 GLC5        0.0000 
     44 CA         11.2880   14.9490    1.7950 C.3       9 GLL5        0.0000 
     45 CA         10.6305   14.7035   -1.5830 C.3       3 GLC5        0.0000 
     46 CA         11.0130   14.9690    0.4170 C.3       9 GLL5        0.0000 
     47 CA         10.6420   13.9210   -3.3350 C.3       6 GLP5        0.0000 
     48 CA          9.0870   14.8229    0.6911 C.3       3 GLC5        0.0000 
     49 CA         12.2195   15.6420   -1.1850 C.3       3 GLC5        0.0000 
     50 CA         13.8200   15.7980   -2.5390 C.3       6 GLP5        0.0000 
     51 CA         11.8995   16.8890    0.1935 C.3       3 GLC5        0.0000 
     52 CA         15.4223   13.7107    8.4243 C.3       3 GLC5        0.0000 
     53 CA         15.3810   14.3160    6.3280 C.3       9 GLL5        0.0000 
     54 CA         15.6160   13.7610   10.3090 C.3       6 GLP5        0.0000 
     55 CA         13.2828   14.4981    5.9798 C.3       3 GLC5        0.0000 
     56 CA         14.5085   11.1285    7.4367 C.3       3 GLC5        0.0000 
     57 CA         14.1600    9.7090    8.6060 C.3       6 GLP5        0.0000 
     58 CA         12.7632   12.2185    5.7605 C.3       3 GLC5        0.0000 
     59 CA         14.6380   12.0910    5.7840 C.3       9 GLL5        0.0000 
     60 CA         10.9460   12.1920    6.4360 C.3       6 GLP5        0.0000 
     61 CA         12.1965   11.7398    4.7518 C.3       3 GLC5        0.0000 
     62 CA         13.9840   11.2760    3.5240 C.3       9 GLL5        0.0000 
     63 CA         15.3033   11.0850    1.9560 C.3       3 GLC5        0.0000 
     64 CA         16.3670   11.5520    0.2820 C.3       6 GLP5        0.0000 
     65 CA         13.4725    8.8833    5.1883 C.3       3 GLC5        0.0000 
     66 CA         14.4950    9.9600    3.7360 C.3       9 GLL5        0.0000 
     67 CA         12.7100    8.3520    6.9610 C.3       6 GLP5        0.0000 
     68 CA         10.8562    9.9827    2.9940 C.3       3 GLC5        0.0000 
     69 CA         12.9100   11.2990    2.6110 C.3       9 GLL5        0.0000 
     70 CA         13.4537   11.0282    0.6565 C.3       3 GLC5        0.0000 
     71 CA         12.4010   10.1140    1.9710 C.3       9 GLL5        0.0000 
     72 CA         14.2520   11.3500   -0.9780 C.3       6 GLP5        0.0000 
     73 CA         12.9550   11.8855    0.3207 C.3       3 GLC5        0.0000 
@<TRIPOS>BOND
@<TRIPOS>SUBSTRUCTURE
     1 ALC1        4 GROUP        1 X    ALC  0     ROOT ALC X 1
     2 SEC2        1 GROUP        1 X    SEC  0     **** SEC X 2
     3 GLC5        7 GROUP        1 X    GLC  0     **** GLC X 6
     4 ALP1        6 GROUP        1 Y    ALP  0     ROOT ALP Y 8
     5 SEP2        3 GROUP        1 Y    SEP  0     **** SEP Y 9
     6 GLP5        9 GROUP        1 Y    GLP  0     **** GLP Y 13
     7 ALL1        5 GROUP        1 Z    ALL  0     ROOT ALL Z 15
     8 SEL2        2 GROUP        1 Z    SEL  0     **** SEL Z 16
     9 GLL5        8 GROUP        1 Z    GLL  0     **** GLL Z 20
@<TRIPOS>SET

