#    Name: 3jy9_JZH_1_ligand
#    Modification time : Tue Mar 25 18:02:13 2014

@<TRIPOS>MOLECULE
3jy9_JZH_1_ligand
   41    45     1     0     0
SMALL
NO_CHARGES


@<TRIPOS>ATOM
      1 O1          9.0030   18.0650    0.2540 O.3       1 JZH1        0.0000 
      2 C2          9.7370   17.0140    0.7780 C.ar      1 JZH1        0.0000 
      3 C3         10.0370   16.9850    2.1380 C.ar      1 JZH1        0.0000 
      4 C4         10.8190   15.9780    2.6330 C.ar      1 JZH1        0.0000 
      5 C5         11.2880   14.9490    1.7950 C.ar      1 JZH1        0.0000 
      6 C6         11.0130   14.9690    0.4170 C.ar      1 JZH1        0.0000 
      7 C7         10.2250   16.0030   -0.0790 C.ar      1 JZH1        0.0000 
      8 C8         12.2220   13.8130    2.1380 C.3       1 JZH1        0.0000 
      9 C9         13.6830   14.2370    1.9240 C.2       1 JZH1        0.0000 
     10 O10        13.9770   14.6030    0.7850 O.2       1 JZH1        0.0000 
     11 N11        14.7700   14.1490    2.7060 N.am      1 JZH1        0.0000 
     12 C12        14.8250   13.7160    4.0300 C.ar      1 JZH1        0.0000 
     13 C13        15.2470   14.6570    4.9760 C.ar      1 JZH1        0.0000 
     14 C14        15.3810   14.3160    6.3280 C.ar      1 JZH1        0.0000 
     15 C15        15.0760   13.0050    6.7510 C.ar      1 JZH1        0.0000 
     16 C16        14.6380   12.0910    5.7840 C.ar      1 JZH1        0.0000 
     17 C17        14.5230   12.3990    4.3860 C.ar      1 JZH1        0.0000 
     18 C18        13.9840   11.2760    3.5240 C.ar      1 JZH1        0.0000 
     19 C19        14.4950    9.9600    3.7360 C.ar      1 JZH1        0.0000 
     20 C20        13.9750    8.8690    3.0950 C.ar      1 JZH1        0.0000 
     21 N21        12.9430    8.9400    2.2500 N.ar      1 JZH1        0.0000 
     22 C22        12.4010   10.1140    1.9710 C.ar      1 JZH1        0.0000 
     23 N23        11.3490   10.4070    1.0970 N.pl3     1 JZH1        0.0000 
     24 C25        11.1840   11.7680    1.1420 C.2       1 JZH1        0.0000 
     25 C26        12.0420   12.3350    2.0560 C.2       1 JZH1        0.0000 
     26 C27        12.9100   11.2990    2.6110 C.ar      1 JZH1        0.0000 
     27 H           9.6681   17.7198    2.7551 H         1 JZH1        0.0000 
     28 H          11.0791   15.9567    3.6352 H         1 JZH1        0.0000 
     29 H          11.3807   14.2488   -0.1920 H         1 JZH1        0.0000 
     30 H           9.9899   16.0396   -1.0810 H         1 JZH1        0.0000 
     31 H          12.2531   13.9591    3.4181 H         1 JZH1        0.0000 
     32 H          15.7243   14.4440    2.2769 H         1 JZH1        0.0000 
     33 H          15.4637   15.6207    4.6723 H         1 JZH1        0.0000 
     34 H          15.6974   15.0092    7.0073 H         1 JZH1        0.0000 
     35 H          15.1717   12.7393    7.7186 H         1 JZH1        0.0000 
     36 H          14.3757   11.1228    6.0837 H         1 JZH1        0.0000 
     37 H          15.2865    9.8539    4.4025 H         1 JZH1        0.0000 
     38 H          14.4237    7.9245    3.2879 H         1 JZH1        0.0000 
     39 H          10.8643    9.7861    0.5896 H         1 JZH1        0.0000 
     40 H          10.5477   12.2665    0.6022 H         1 JZH1        0.0000 
     41 H           8.4563   18.4055    1.0190 H         1 JZH1        0.0000 
@<TRIPOS>BOND
     1    2    1 1    
     2   41    1 1    
     3    3    2 ar   
     4    7    2 ar   
     5    4    3 ar   
     6   27    3 1    
     7    5    4 ar   
     8   28    4 1    
     9    6    5 ar   
    10    8    5 1    
    11    7    6 ar   
    12   29    6 1    
    13   30    7 1    
    14    9    8 1    
    15   25    8 1    
    16   31    8 1    
    17   10    9 2    
    18   11    9 am   
    19   12   11 1    
    20   32   11 1    
    21   13   12 ar   
    22   17   12 ar   
    23   14   13 ar   
    24   33   13 1    
    25   15   14 ar   
    26   34   14 1    
    27   16   15 ar   
    28   35   15 1    
    29   17   16 ar   
    30   36   16 1    
    31   18   17 1    
    32   19   18 ar   
    33   26   18 ar   
    34   20   19 ar   
    35   37   19 1    
    36   21   20 ar   
    37   38   20 1    
    38   22   21 ar   
    39   23   22 1    
    40   26   22 ar   
    41   24   23 1    
    42   39   23 1    
    43   25   24 2    
    44   40   24 1    
    45   26   25 1    
@<TRIPOS>SUBSTRUCTURE
     1 JZH1        1 GROUP   
@<TRIPOS>SET

