#    Name: 1pfk_ADP_1_INTS_M
#    Modification time : Mon Mar 24 21:21:31 2014

@<TRIPOS>MOLECULE
1pfk_ADP_1_INTS_M
   54     0    12     0     0
SMALL
NO_CHARGES


@<TRIPOS>ATOM
      1 N           8.8500   22.3180   11.9770 N.am      2 SEC2        0.0000 
      2 N           7.8980   23.4210   12.3790 N.am     10 SEL2        0.0000 
      3 N           9.8020   21.2150   11.5750 N.am      6 SEP2        0.0000 
      4 N           8.8540   24.2155   13.1740 N.am      2 SEC2        0.0000 
      5 N           9.8100   25.0100   13.9690 N.am      6 SEP2        0.0000 
      6 N           8.2765   23.0365   13.5750 N.am      2 SEC2        0.0000 
      7 N           8.6550   22.6520   14.7710 N.am      6 SEP2        0.0000 
      8 Zn          7.3165   24.4745    9.0955 Zn        3 ZIC7        0.0000 
      9 Zn          7.5370   24.0610   10.0840 Zn       11 ZIL7        0.0000 
     10 Zn          7.0960   24.8880    8.1070 Zn        7 ZIP7        0.0000 
     11 N           8.6460   25.1530   10.7435 N.am      2 SEC2        0.0000 
     12 N           7.5370   24.0610   10.0840 N.am     10 SEL2        0.0000 
     13 N           9.7550   26.2450   11.4030 N.am      6 SEP2        0.0000 
     14 N           5.0900   21.4015   11.3595 N.am      2 SEC2        0.0000 
     15 N           6.1650   22.2560   11.0510 N.am     10 SEL2        0.0000 
     16 N           4.0150   20.5470   11.6680 N.am      6 SEP2        0.0000 
     17 N           3.4460   25.0625   11.7635 N.am      2 SEC2        0.0000 
     18 N           4.0080   26.2400   12.5100 N.am     10 SEL2        0.0000 
     19 N           2.8840   23.8850   11.0170 N.am      6 SEP2        0.0000 
     20 CA          5.4815   23.2430   14.2665 C.3       4 GLC5        0.0000 
     21 CA          5.9880   25.0840   14.8280 C.3      12 GLL5        0.0000 
     22 CA          4.9750   21.4020   13.7050 C.3       8 GLP5        0.0000 
     23 CA          7.5985   25.9970   13.7150 C.3       4 GLC5        0.0000 
     24 CA          9.2090   26.9100   12.6020 C.3       8 GLP5        0.0000 
     25 CA          8.1745   24.6840   14.9765 C.3       4 GLC5        0.0000 
     26 CA         10.3610   24.2840   15.1250 C.3       8 GLP5        0.0000 
     27 CA          7.1285   25.0915   18.0135 C.3       4 GLC5        0.0000 
     28 CA          6.1730   25.7500   16.1670 C.3      12 GLL5        0.0000 
     29 CA          8.0840   24.4330   19.8600 C.3       8 GLP5        0.0000 
     30 CA          4.2395   28.7630   18.1350 C.3       4 GLC5        0.0000 
     31 CA          5.9710   27.5060   17.6960 C.3      12 GLL5        0.0000 
     32 CA          2.5080   30.0200   18.5740 C.3       8 GLP5        0.0000 
     33 CA          6.3375   27.9545   19.6645 C.3       4 GLC5        0.0000 
     34 CA          6.7040   28.4030   21.6330 C.3       8 GLP5        0.0000 
     35 O           4.7335   27.3370   19.4460 O.2       1 ALC1        0.0000 
     36 O           5.6550   26.7440   18.8460 O.2       9 ALL1        0.0000 
     37 O           3.8120   27.9300   20.0460 O.2       5 ALP1        0.0000 
     38 CA          8.5865   31.8425   19.7565 C.3       4 GLC5        0.0000 
     39 CA          9.8600   30.6660   18.7710 C.3      12 GLL5        0.0000 
     40 CA          7.3130   33.0190   20.7420 C.3       8 GLP5        0.0000 
     41 CA         10.9450   29.0540   18.7815 C.3       4 GLC5        0.0000 
     42 CA         12.0300   27.4420   18.7920 C.3       8 GLP5        0.0000 
     43 CA         11.7745   31.2395   19.3005 C.3       4 GLC5        0.0000 
     44 CA         13.6890   31.8130   19.8300 C.3       8 GLP5        0.0000 
     45 CA         10.3740   28.5025   18.0290 C.3       4 GLC5        0.0000 
     46 CA          8.7180   29.5630   17.2660 C.3      12 GLL5        0.0000 
     47 CA          7.3990   25.9307   18.6807 C.3       4 GLC5        0.0000 
     48 CA          7.4570   27.3510   17.3070 C.3      12 GLL5        0.0000 
     49 CA          8.2473   32.4303   17.3788 C.3       4 GLC5        0.0000 
     50 CA          8.9230   30.5170   16.2890 C.3      12 GLL5        0.0000 
     51 CA          7.1940   33.7770   18.2870 C.3       8 GLP5        0.0000 
     52 CA         10.6256   30.0306   15.8646 C.3       4 GLC5        0.0000 
     53 CA          9.6780   31.6500   16.6520 C.3      12 GLL5        0.0000 
     54 CA         12.2420   29.7380   14.8610 C.3       8 GLP5        0.0000 
@<TRIPOS>BOND
@<TRIPOS>SUBSTRUCTURE
     1 ALC1       35 GROUP        1 X    ALC  0     ROOT ALC X 1
     2 SEC2        1 GROUP        1 X    SEC  0     **** SEC X 2
     3 ZIC7        8 GROUP        1 X    ZIC  0     **** ZIC X 5
     4 GLC5       20 GROUP        1 X    GLC  0     **** GLC X 6
     5 ALP1       37 GROUP        1 Y    ALP  0     ROOT ALP Y 8
     6 SEP2        3 GROUP        1 Y    SEP  0     **** SEP Y 9
     7 ZIP7       10 GROUP        1 Y    ZIP  0     **** ZIP Y 12
     8 GLP5       22 GROUP        1 Y    GLP  0     **** GLP Y 13
     9 ALL1       36 GROUP        1 Z    ALL  0     ROOT ALL Z 15
    10 SEL2        2 GROUP        1 Z    SEL  0     **** SEL Z 16
    11 ZIL7        9 GROUP        1 Z    ZIL  0     **** ZIL Z 19
    12 GLL5       21 GROUP        1 Z    GLL  0     **** GLL Z 20
@<TRIPOS>SET

