#    Name: 1pfk_ADP_1_ligand
#    Modification time : Mon Mar 24 21:21:32 2014

@<TRIPOS>MOLECULE
1pfk_ADP_1_ligand
   39    41     1     0     0
SMALL
NO_CHARGES


@<TRIPOS>ATOM
      1 PB          6.8900   23.5150   11.3020 P.3       1 ADP324      0.0000 
      2 O1B         7.8980   23.4210   12.3790 O.co2     1 ADP324      0.0000 
      3 O2B         7.5370   24.0610   10.0840 O.co2     1 ADP324      0.0000 
      4 O3B         6.1650   22.2560   11.0510 O.co2     1 ADP324      0.0000 
      5 PA          5.4590   25.9700   12.3170 P.3       1 ADP324      0.0000 
      6 O1A         6.0220   27.0480   11.4530 O.co2     1 ADP324      0.0000 
      7 O2A         4.0080   26.2400   12.5100 O.co2     1 ADP324      0.0000 
      8 O3A         5.7210   24.5110   11.7230 O.3       1 ADP324      0.0000 
      9 O5'         6.2100   25.9750   13.7120 O.3       1 ADP324      0.0000 
     10 C5'         5.9880   25.0840   14.8280 C.3       1 ADP324      0.0000 
     11 C4'         6.1730   25.7500   16.1670 C.3       1 ADP324      0.0000 
     12 O4'         7.5230   26.2710   16.3910 O.3       1 ADP324      0.0000 
     13 C3'         5.2890   26.9840   16.4270 C.3       1 ADP324      0.0000 
     14 O3'         3.9410   26.6220   16.6070 O.3       1 ADP324      0.0000 
     15 C2'         5.9710   27.5060   17.6960 C.3       1 ADP324      0.0000 
     16 O2'         5.6550   26.7440   18.8460 O.3       1 ADP324      0.0000 
     17 C1'         7.4570   27.3510   17.3070 C.3       1 ADP324      0.0000 
     18 N9          7.9620   28.5730   16.6640 N.pl3     1 ADP324      0.0000 
     19 C8          7.7480   28.9900   15.3740 C.2       1 ADP324      0.0000 
     20 N7          8.3110   30.1520   15.1120 N.2       1 ADP324      0.0000 
     21 C5          8.9230   30.5170   16.2890 C.ar      1 ADP324      0.0000 
     22 C6          9.6780   31.6500   16.6520 C.ar      1 ADP324      0.0000 
     23 N6          9.9580   32.6500   15.8270 N.pl3     1 ADP324      0.0000 
     24 N1         10.1540   31.6940   17.9190 N.ar      1 ADP324      0.0000 
     25 C2          9.8600   30.6660   18.7710 C.ar      1 ADP324      0.0000 
     26 N3          9.1640   29.5920   18.5440 N.ar      1 ADP324      0.0000 
     27 C4          8.7180   29.5630   17.2660 C.ar      1 ADP324      0.0000 
     28 H           6.6767   24.2139   14.7763 H         1 ADP324      0.0000 
     29 H           4.9619   24.6600   14.7914 H         1 ADP324      0.0000 
     30 H           5.9493   25.0415   16.9748 H         1 ADP324      0.0000 
     31 H           5.4847   27.6720   15.6485 H         1 ADP324      0.0000 
     32 H           5.7728   28.5423   17.7706 H         1 ADP324      0.0000 
     33 H           8.0048   27.1372   18.2003 H         1 ADP324      0.0000 
     34 H           7.2184   28.4496   14.7260 H         1 ADP324      0.0000 
     35 H          10.4717   33.4132   16.2190 H         1 ADP324      0.0000 
     36 H           9.6301   32.5504   14.8876 H         1 ADP324      0.0000 
     37 H          10.2840   30.7878   19.7880 H         1 ADP324      0.0000 
     38 H           3.8406   26.4802   17.5918 H         1 ADP324      0.0000 
     39 H           5.3782   27.4156   19.5333 H         1 ADP324      0.0000 
@<TRIPOS>BOND
     1    2    1 ar   
     2    3    1 ar   
     3    4    1 ar   
     4    8    1 1    
     5    6    5 ar   
     6    7    5 ar   
     7    8    5 1    
     8    9    5 1    
     9   10    9 1    
    10   11   10 1    
    11   28   10 1    
    12   29   10 1    
    13   12   11 1    
    14   13   11 1    
    15   30   11 1    
    16   17   12 1    
    17   14   13 1    
    18   15   13 1    
    19   31   13 1    
    20   38   14 1    
    21   16   15 1    
    22   17   15 1    
    23   32   15 1    
    24   39   16 1    
    25   18   17 1    
    26   33   17 1    
    27   19   18 1    
    28   27   18 1    
    29   20   19 2    
    30   34   19 1    
    31   21   20 1    
    32   22   21 ar   
    33   27   21 ar   
    34   23   22 1    
    35   24   22 ar   
    36   35   23 1    
    37   36   23 1    
    38   25   24 ar   
    39   26   25 ar   
    40   37   25 1    
    41   27   26 ar   
@<TRIPOS>SUBSTRUCTURE
     1 ADP324      1 GROUP   
@<TRIPOS>SET

