#    Name: 1azs_FKP_1_INTS_M
#    Modification time : Mon Mar 24 19:10:02 2014

@<TRIPOS>MOLECULE
1azs_FKP_1_INTS_M
   62     0     9     0     0
SMALL
NO_CHARGES


@<TRIPOS>ATOM
      1 CA         41.8285  -13.7275   50.4505 C.3       3 GLC5        0.0000 
      2 CA         42.9360  -12.5830   51.9940 C.3       9 GLL5        0.0000 
      3 CA         40.7210  -14.8720   48.9070 C.3       6 GLP5        0.0000 
      4 O          41.6650  -14.4205   51.7215 O.2       1 ALC1        0.0000 
      5 O          42.7970  -13.7340   51.1600 O.2       7 ALL1        0.0000 
      6 O          40.5330  -15.1070   52.2830 O.2       4 ALP1        0.0000 
      7 CA         41.6645  -12.9885   49.3705 C.3       3 GLC5        0.0000 
      8 CA         42.6080  -11.1050   49.8340 C.3       9 GLL5        0.0000 
      9 N          39.0375  -11.3360   51.4070 N.am      2 SEC2        0.0000 
     10 N          40.6180  -11.0690   51.2180 N.am      8 SEL2        0.0000 
     11 N          37.4570  -11.6030   51.5960 N.am      5 SEP2        0.0000 
     12 CA         38.4705   -9.9685   46.0565 C.3       3 GLC5        0.0000 
     13 CA         40.3360  -10.4300   46.7440 C.3       9 GLL5        0.0000 
     14 CA         36.6050   -9.5070   45.3690 C.3       6 GLP5        0.0000 
     15 CA         40.7870  -13.2375   47.6410 C.3       3 GLC5        0.0000 
     16 CA         40.8530  -11.6030   46.3750 C.3       9 GLL5        0.0000 
     17 CA         39.0330  -12.7630   46.1410 C.3       3 GLC5        0.0000 
     18 CA         37.2130  -13.9230   45.9070 C.3       6 GLP5        0.0000 
     19 CA         41.0965  -13.0745   44.8265 C.3       3 GLC5        0.0000 
     20 CA         41.3400  -14.5460   43.2780 C.3       6 GLP5        0.0000 
     21 CA         41.4455   -6.5180   46.8550 C.3       3 GLC5        0.0000 
     22 CA         40.6970   -8.1170   47.3800 C.3       9 GLL5        0.0000 
     23 CA         42.1940   -4.9190   46.3300 C.3       6 GLP5        0.0000 
     24 CA         39.2635   -7.7560   46.0505 C.3       3 GLC5        0.0000 
     25 CA         37.8300   -7.3950   44.7210 C.3       6 GLP5        0.0000 
     26 CA         42.6190   -7.1275   50.9670 C.3       3 GLC5        0.0000 
     27 CA         43.2610   -8.5600   49.6210 C.3       9 GLL5        0.0000 
     28 CA         41.9770   -5.6950   52.3130 C.3       6 GLP5        0.0000 
     29 CA         48.5150  -13.8935   52.1740 C.3       3 GLC5        0.0000 
     30 CA         47.2820  -12.6400   51.2870 C.3       9 GLL5        0.0000 
     31 CA         49.7480  -15.1470   53.0610 C.3       6 GLP5        0.0000 
     32 CA         48.5090  -13.4870   50.3240 C.3       3 GLC5        0.0000 
     33 CA         49.7360  -14.3340   49.3610 C.3       6 GLP5        0.0000 
     34 CA         45.5805  -11.6255   54.8015 C.3       3 GLC5        0.0000 
     35 CA         46.2430  -11.0970   52.8730 C.3       9 GLL5        0.0000 
     36 CA         44.9180  -12.1540   56.7300 C.3       6 GLP5        0.0000 
     37 CA         45.8075   -9.7285   54.5555 C.3       3 GLC5        0.0000 
     38 CA         45.3720   -8.3600   56.2380 C.3       6 GLP5        0.0000 
     39 CA         42.2580  -11.2090   53.5540 C.3       3 GLC5        0.0000 
     40 CA         43.5100  -10.1680   52.0760 C.3       9 GLL5        0.0000 
     41 CA         41.0060  -12.2500   55.0320 C.3       6 GLP5        0.0000 
     42 CA         42.4535   -8.7680   53.0965 C.3       3 GLC5        0.0000 
     43 CA         41.3970   -7.3680   54.1170 C.3       6 GLP5        0.0000 
     44 N          46.0965  -11.8445   45.7000 N.am      2 SEC2        0.0000 
     45 N          46.4960  -10.5550   46.5130 N.am      8 SEL2        0.0000 
     46 N          45.6970  -13.1340   44.8870 N.am      5 SEP2        0.0000 
     47 CA         50.4860  -13.1420   53.2385 C.3       3 GLC5        0.0000 
     48 CA         51.2240  -11.1370   53.4160 C.3       9 GLL5        0.0000 
     49 CA         50.8395  -11.9675   55.4530 C.3       3 GLC5        0.0000 
     50 CA         50.4550  -12.7980   57.4900 C.3       6 GLP5        0.0000 
     51 CA         50.7615  -11.5705   56.6240 C.3       3 GLC5        0.0000 
     52 CA         51.0680  -10.3430   55.7580 C.3       9 GLL5        0.0000 
     53 CA         42.2163  -12.5027   53.8015 C.3       3 GLC5        0.0000 
     54 CA         43.9170  -12.9280   53.1480 C.3       9 GLL5        0.0000 
     55 CA         44.7690  -12.6405   54.7995 C.3       3 GLC5        0.0000 
     56 CA         45.0080  -14.7370   53.9750 C.3       3 GLC5        0.0000 
     57 CA         45.3960  -16.3470   55.0810 C.3       6 GLP5        0.0000 
     58 CA         45.1810  -12.2809   48.2812 C.3       3 GLC5        0.0000 
     59 CA         44.9610  -11.7960   50.6100 C.3       9 GLL5        0.0000 
     60 CA         45.4370  -13.7610   47.2060 C.3       6 GLP5        0.0000 
     61 CA         40.2862  -10.8852   44.5892 C.3       3 GLC5        0.0000 
     62 CA         39.9780  -10.7540   42.6190 C.3       6 GLP5        0.0000 
@<TRIPOS>BOND
@<TRIPOS>SUBSTRUCTURE
     1 ALC1        4 GROUP        1 X    ALC  0     ROOT ALC X 1
     2 SEC2        9 GROUP        1 X    SEC  0     **** SEC X 2
     3 GLC5        1 GROUP        1 X    GLC  0     **** GLC X 6
     4 ALP1        6 GROUP        1 Y    ALP  0     ROOT ALP Y 8
     5 SEP2       11 GROUP        1 Y    SEP  0     **** SEP Y 9
     6 GLP5        3 GROUP        1 Y    GLP  0     **** GLP Y 13
     7 ALL1        5 GROUP        1 Z    ALL  0     ROOT ALL Z 15
     8 SEL2       10 GROUP        1 Z    SEL  0     **** SEL Z 16
     9 GLL5        2 GROUP        1 Z    GLL  0     **** GLL Z 20
@<TRIPOS>SET

