#    Name: 1azs_FKP_1_ligand
#    Modification time : Mon Mar 24 19:10:02 2014

@<TRIPOS>MOLECULE
1azs_FKP_1_ligand
   88    91     1     0     0
SMALL
NO_CHARGES


@<TRIPOS>ATOM
      1 C1         42.9360  -12.5830   51.9940 C.3       1 FKP1        0.0000 
      2 O2         42.7970  -13.7340   51.1600 O.3       1 FKP1        0.0000 
      3 C2         43.9170  -12.9280   53.1480 C.3       1 FKP1        0.0000 
      4 C3         45.3230  -13.3260   52.5900 C.3       1 FKP1        0.0000 
      5 C4         45.9250  -12.1370   51.7950 C.3       1 FKP1        0.0000 
      6 C5         44.9610  -11.7960   50.6100 C.3       1 FKP1        0.0000 
      7 C6         45.5790  -10.6370   49.7240 C.3       1 FKP1        0.0000 
      8 O3         45.8340   -9.4170   50.4320 O.3       1 FKP1        0.0000 
      9 C7         44.5800  -10.3850   48.5460 C.3       1 FKP1        0.0000 
     10 O4         45.0860   -9.3330   47.7200 O.3       1 FKP1        0.0000 
     11 C8         43.1520   -9.9590   48.9660 C.3       1 FKP1        0.0000 
     12 O1         42.3880   -9.8200   47.7550 O.3       1 FKP1        0.0000 
     13 C9         42.6080  -11.1050   49.8340 C.3       1 FKP1        0.0000 
     14 O6         42.5990  -12.2800   49.0050 O.3       1 FKP1        0.0000 
     15 C10        43.4790  -11.4060   51.1390 C.3       1 FKP1        0.0000 
     16 C11        41.1400  -10.7260   50.1700 C.2       1 FKP1        0.0000 
     17 O7         40.6180  -11.0690   51.2180 O.2       1 FKP1        0.0000 
     18 C12        40.3210   -9.8880   49.1580 C.3       1 FKP1        0.0000 
     19 C13        40.9850   -9.5690   47.7850 C.3       1 FKP1        0.0000 
     20 C14        40.3360  -10.4300   46.7440 C.2       1 FKP1        0.0000 
     21 C15        40.8530  -11.6030   46.3750 C.2       1 FKP1        0.0000 
     22 C16        40.6970   -8.1170   47.3800 C.3       1 FKP1        0.0000 
     23 C17        43.2610   -8.5600   49.6210 C.3       1 FKP1        0.0000 
     24 C18        47.2820  -12.6400   51.2870 C.3       1 FKP1        0.0000 
     25 C19        46.2430  -11.0970   52.8730 C.3       1 FKP1        0.0000 
     26 C20        43.5100  -10.1680   52.0760 C.3       1 FKP1        0.0000 
     27 C21        46.2850   -9.5550   47.1630 C.2       1 FKP1        0.0000 
     28 O5         46.4960  -10.5550   46.5130 O.2       1 FKP1        0.0000 
     29 C22        47.3460   -8.4590   47.4050 C.3       1 FKP1        0.0000 
     30 C23        47.9730   -8.3420   48.8520 C.3       1 FKP1        0.0000 
     31 C24        48.8480   -9.5730   49.2690 C.3       1 FKP1        0.0000 
     32 C25        50.0450   -9.2390   50.2270 C.3       1 FKP1        0.0000 
     33 N1         49.9420   -9.8890   51.5790 N.4       1 FKP1        0.0000 
     34 C26        49.7540   -8.7900   52.5740 C.3       1 FKP1        0.0000 
     35 C27        49.8000   -9.3110   54.0400 C.3       1 FKP1        0.0000 
     36 N2         51.0840   -9.9680   54.3360 N.3       1 FKP1        0.0000 
     37 C28        51.2240  -11.1370   53.4160 C.3       1 FKP1        0.0000 
     38 C29        51.1610  -10.7160   51.9060 C.3       1 FKP1        0.0000 
     39 C30        51.0680  -10.3430   55.7580 C.3       1 FKP1        0.0000 
     40 H          42.0035  -12.2879   52.4226 H         1 FKP1        0.0000 
     41 H          43.5196  -13.7594   53.7169 H         1 FKP1        0.0000 
     42 H          44.0289  -12.0637   53.7909 H         1 FKP1        0.0000 
     43 H          45.2107  -14.1736   51.9347 H         1 FKP1        0.0000 
     44 H          45.9704  -13.5674   53.4164 H         1 FKP1        0.0000 
     45 H          44.8586  -12.6716   49.9869 H         1 FKP1        0.0000 
     46 H          46.4805  -11.0454   49.2688 H         1 FKP1        0.0000 
     47 H          44.4998  -11.2992   47.9695 H         1 FKP1        0.0000 
     48 H          40.0436   -8.9242   49.6404 H         1 FKP1        0.0000 
     49 H          39.3583  -10.4115   48.9635 H         1 FKP1        0.0000 
     50 H          39.4637  -10.0417   46.3411 H         1 FKP1        0.0000 
     51 H          46.9060   -7.4688   47.1504 H         1 FKP1        0.0000 
     52 H          48.1849   -8.6048   46.6880 H         1 FKP1        0.0000 
     53 H          47.1580   -8.2280   49.5708 H         1 FKP1        0.0000 
     54 H          48.5908   -7.4414   48.8864 H         1 FKP1        0.0000 
     55 H          49.2495  -10.0406   48.3602 H         1 FKP1        0.0000 
     56 H          48.2016  -10.3101   49.7635 H         1 FKP1        0.0000 
     57 H          50.0891   -8.1447   50.3347 H         1 FKP1        0.0000 
     58 H          50.9714   -9.5549   49.7240 H         1 FKP1        0.0000 
     59 H          49.0630  -10.5189   51.5916 H         1 FKP1        0.0000 
     60 H          48.7870   -8.2988   52.4214 H         1 FKP1        0.0000 
     61 H          50.5387   -8.0344   52.4604 H         1 FKP1        0.0000 
     62 H          48.9646  -10.0060   54.1711 H         1 FKP1        0.0000 
     63 H          49.6363   -8.4544   54.7015 H         1 FKP1        0.0000 
     64 H          50.4230  -11.8621   53.5911 H         1 FKP1        0.0000 
     65 H          52.1813  -11.6421   53.5790 H         1 FKP1        0.0000 
     66 H          52.0718  -10.1522   51.6777 H         1 FKP1        0.0000 
     67 H          51.1694  -11.6305   51.3032 H         1 FKP1        0.0000 
     68 H          41.1422   -7.4650   47.9937 H         1 FKP1        0.0000 
     69 H          41.0217   -7.9180   46.4554 H         1 FKP1        0.0000 
     70 H          39.7180   -7.9139   47.3969 H         1 FKP1        0.0000 
     71 H          43.8550   -8.5718   50.4254 H         1 FKP1        0.0000 
     72 H          43.6369   -7.8823   48.9890 H         1 FKP1        0.0000 
     73 H          42.3696   -8.2194   49.9199 H         1 FKP1        0.0000 
     74 H          47.7630  -11.9407   50.7582 H         1 FKP1        0.0000 
     75 H          47.8851  -12.9052   52.0393 H         1 FKP1        0.0000 
     76 H          47.1836  -13.4395   50.6945 H         1 FKP1        0.0000 
     77 H          46.8912  -11.4485   53.5485 H         1 FKP1        0.0000 
     78 H          46.6462  -10.2692   52.4830 H         1 FKP1        0.0000 
     79 H          45.4230  -10.8166   53.3719 H         1 FKP1        0.0000 
     80 H          44.1011  -10.3169   52.8687 H         1 FKP1        0.0000 
     81 H          43.8507   -9.3543   51.6051 H         1 FKP1        0.0000 
     82 H          42.6005   -9.9446   52.4265 H         1 FKP1        0.0000 
     83 H          51.9151  -10.7986   56.0315 H         1 FKP1        0.0000 
     84 H          50.9595   -9.5453   56.3512 H         1 FKP1        0.0000 
     85 H          50.3173  -10.9692   55.9685 H         1 FKP1        0.0000 
     86 H          41.9821  -14.2032   51.5003 H         1 FKP1        0.0000 
     87 H          46.7959   -9.4697   50.7001 H         1 FKP1        0.0000 
     88 H          42.6375  -13.0480   49.6443 H         1 FKP1        0.0000 
@<TRIPOS>BOND
     1    2    1 1    
     2    3    1 1    
     3   15    1 1    
     4   40    1 1    
     5   86    2 1    
     6    4    3 1    
     7   41    3 1    
     8   42    3 1    
     9    5    4 1    
    10   43    4 1    
    11   44    4 1    
    12    6    5 1    
    13   24    5 1    
    14   25    5 1    
    15    7    6 1    
    16   15    6 1    
    17   45    6 1    
    18    8    7 1    
    19    9    7 1    
    20   46    7 1    
    21   87    8 1    
    22   10    9 1    
    23   11    9 1    
    24   47    9 1    
    25   27   10 1    
    26   12   11 1    
    27   13   11 1    
    28   23   11 1    
    29   19   12 1    
    30   14   13 1    
    31   15   13 1    
    32   16   13 1    
    33   88   14 1    
    34   26   15 1    
    35   17   16 2    
    36   18   16 1    
    37   19   18 1    
    38   48   18 1    
    39   49   18 1    
    40   20   19 1    
    41   22   19 1    
    42   21   20 2    
    43   50   20 1    
    44   68   22 1    
    45   69   22 1    
    46   70   22 1    
    47   71   23 1    
    48   72   23 1    
    49   73   23 1    
    50   74   24 1    
    51   75   24 1    
    52   76   24 1    
    53   77   25 1    
    54   78   25 1    
    55   79   25 1    
    56   80   26 1    
    57   81   26 1    
    58   82   26 1    
    59   28   27 2    
    60   29   27 1    
    61   30   29 1    
    62   51   29 1    
    63   52   29 1    
    64   31   30 1    
    65   53   30 1    
    66   54   30 1    
    67   32   31 1    
    68   55   31 1    
    69   56   31 1    
    70   33   32 1    
    71   57   32 1    
    72   58   32 1    
    73   34   33 1    
    74   38   33 1    
    75   59   33 1    
    76   35   34 1    
    77   60   34 1    
    78   61   34 1    
    79   36   35 1    
    80   62   35 1    
    81   63   35 1    
    82   37   36 1    
    83   39   36 1    
    84   38   37 1    
    85   64   37 1    
    86   65   37 1    
    87   66   38 1    
    88   67   38 1    
    89   83   39 1    
    90   84   39 1    
    91   85   39 1    
@<TRIPOS>SUBSTRUCTURE
     1 FKP1        1 GROUP   
@<TRIPOS>SET

