#    Name: 3btc_MGR_1_INTS_M
#    Modification time : Mon Mar 24 20:03:06 2014

@<TRIPOS>MOLECULE
3btc_MGR_1_INTS_M
   43     0     3     0     0
SMALL
NO_CHARGES


@<TRIPOS>ATOM
      1 CA        -69.4615  -41.6115    7.3635 C.3       1 GLC5        0.0000 
      2 CA        -71.0750  -43.0340    7.5550 C.3       3 GLL5        0.0000 
      3 CA        -67.8480  -40.1890    7.1720 C.3       2 GLP5        0.0000 
      4 CA        -74.7925  -44.5670    7.0685 C.3       1 GLC5        0.0000 
      5 CA        -73.0660  -43.7760    6.3760 C.3       3 GLL5        0.0000 
      6 CA        -76.5190  -45.3580    7.7610 C.3       2 GLP5        0.0000 
      7 CA        -63.6395  -43.1110    1.0625 C.3       1 GLC5        0.0000 
      8 CA        -65.0540  -44.1790    1.6750 C.3       3 GLL5        0.0000 
      9 CA        -62.2250  -42.0430    0.4500 C.3       2 GLP5        0.0000 
     10 CA        -65.8800  -47.1335    0.9485 C.3       1 GLC5        0.0000 
     11 CA        -64.4380  -46.5950    1.9930 C.3       3 GLL5        0.0000 
     12 CA        -67.3220  -47.6720   -0.0960 C.3       2 GLP5        0.0000 
     13 CA        -63.6515  -48.2585    2.2180 C.3       1 GLC5        0.0000 
     14 CA        -62.8650  -49.9220    2.4430 C.3       2 GLP5        0.0000 
     15 CA        -71.9335  -41.9145   10.3090 C.3       1 GLC5        0.0000 
     16 CA        -73.3680  -41.7070    9.2830 C.3       3 GLL5        0.0000 
     17 CA        -70.4990  -42.1220   11.3350 C.3       2 GLP5        0.0000 
     18 CA        -72.6020  -40.1470    8.3740 C.3       1 GLC5        0.0000 
     19 CA        -71.8360  -38.5870    7.4650 C.3       2 GLP5        0.0000 
     20 CA        -71.7420  -40.6955    6.2970 C.3       1 GLC5        0.0000 
     21 CA        -73.7540  -40.7890    7.0680 C.3       3 GLL5        0.0000 
     22 CA        -69.7300  -40.6020    5.5260 C.3       2 GLP5        0.0000 
     23 CA        -72.7950  -39.6880    7.2665 C.3       1 GLC5        0.0000 
     24 CA        -73.5870  -39.6045    6.1185 C.3       1 GLC5        0.0000 
     25 CA        -73.4200  -38.4200    5.1690 C.3       2 GLP5        0.0000 
     26 CA        -75.2345  -41.0510    5.8150 C.3       1 GLC5        0.0000 
     27 CA        -76.7150  -41.3130    4.5620 C.3       2 GLP5        0.0000 
     28 CA        -69.5420  -50.4762    7.1698 C.3       1 GLC5        0.0000 
     29 CA        -71.3170  -49.2820    7.4660 C.3       3 GLL5        0.0000 
     30 CA        -67.5840  -51.2210    7.3950 C.3       2 GLP5        0.0000 
     31 CA        -71.3335  -51.0697    8.6037 C.3       1 GLC5        0.0000 
     32 CA        -71.1670  -52.4080   10.2630 C.3       2 GLP5        0.0000 
     33 CA        -71.0875  -51.8092    4.9340 C.3       1 GLC5        0.0000 
     34 CA        -71.6830  -50.1810    6.4230 C.3       3 GLL5        0.0000 
     35 CA        -70.5530  -53.6530    4.1250 C.3       2 GLP5        0.0000 
     36 CA        -67.0203  -46.9727    1.6360 C.3       1 GLC5        0.0000 
     37 CA        -66.8980  -46.9060    3.6510 C.3       3 GLL5        0.0000 
     38 CA        -70.6453  -43.5872    9.2870 C.3       1 GLC5        0.0000 
     39 CA        -70.3560  -44.0770    6.9810 C.3       3 GLL5        0.0000 
     40 CA        -70.5750  -43.6190   11.3060 C.3       2 GLP5        0.0000 
     41 CA        -73.0637  -44.4154    4.4010 C.3       1 GLC5        0.0000 
     42 CA        -70.9620  -45.0260    6.0770 C.3       3 GLL5        0.0000 
     43 CA        -73.7660  -44.4810    2.6450 C.3       2 GLP5        0.0000 
@<TRIPOS>BOND
@<TRIPOS>SUBSTRUCTURE
     1 GLC5        1 GROUP        1 X    GLC  0     ROOT GLC X 6
     2 GLP5        3 GROUP        1 Y    GLP  0     ROOT GLP Y 13
     3 GLL5        2 GROUP        1 Z    GLL  0     ROOT GLL Z 20
@<TRIPOS>SET

