#    Name: 3btc_MGR_1_ligand
#    Modification time : Mon Mar 24 20:03:06 2014

@<TRIPOS>MOLECULE
3btc_MGR_1_ligand
   50    52     1     0     0
SMALL
NO_CHARGES


@<TRIPOS>ATOM
      1 C1        -70.1990  -46.1460    5.5050 C.2       1 MGR200      0.0000 
      2 C2        -70.7100  -47.5280    5.8090 C.ar      1 MGR200      0.0000 
      3 C3        -70.8520  -48.0000    7.1700 C.ar      1 MGR200      0.0000 
      4 C4        -71.3170  -49.2820    7.4660 C.ar      1 MGR200      0.0000 
      5 C5        -71.6830  -50.1810    6.4230 C.ar      1 MGR200      0.0000 
      6 C6        -71.5610  -49.7500    5.0630 C.ar      1 MGR200      0.0000 
      7 C7        -71.0960  -48.4620    4.7640 C.ar      1 MGR200      0.0000 
      8 C8        -68.9750  -45.9460    4.6850 C.ar      1 MGR200      0.0000 
      9 C9        -68.0300  -47.0390    4.4270 C.ar      1 MGR200      0.0000 
     10 C10       -66.8980  -46.9060    3.6510 C.ar      1 MGR200      0.0000 
     11 C11       -66.5390  -45.6410    3.0850 C.ar      1 MGR200      0.0000 
     12 C12       -67.4600  -44.5270    3.3150 C.ar      1 MGR200      0.0000 
     13 C13       -68.6050  -44.6850    4.1050 C.ar      1 MGR200      0.0000 
     14 C14       -70.9620  -45.0260    6.0770 C.2       1 MGR200      0.0000 
     15 C15       -70.3560  -44.0770    6.9810 C.2       1 MGR200      0.0000 
     16 C16       -71.0750  -43.0340    7.5550 C.2       1 MGR200      0.0000 
     17 C17       -72.4320  -42.8530    7.2810 C.2       1 MGR200      0.0000 
     18 C18       -73.0660  -43.7760    6.3760 C.2       1 MGR200      0.0000 
     19 C19       -72.3520  -44.8210    5.7990 C.2       1 MGR200      0.0000 
     20 C22       -65.0540  -44.1790    1.6750 C.3       1 MGR200      0.0000 
     21 C23       -64.4380  -46.5950    1.9930 C.3       1 MGR200      0.0000 
     22 C24       -73.3680  -41.7070    9.2830 C.3       1 MGR200      0.0000 
     23 C25       -73.7540  -40.7890    7.0680 C.3       1 MGR200      0.0000 
     24 N2        -65.4100  -45.5080    2.2910 N.pl3     1 MGR200      0.0000 
     25 N3        -73.1370  -41.8420    7.8530 N.2       1 MGR200      0.0000 
     26 H         -70.5951  -47.3502    7.9315 H         1 MGR200      0.0000 
     27 H         -71.4008  -49.5926    8.4408 H         1 MGR200      0.0000 
     28 H         -72.0226  -51.1058    6.6357 H         1 MGR200      0.0000 
     29 H         -71.8186  -50.3969    4.3133 H         1 MGR200      0.0000 
     30 H         -71.0179  -48.1488    3.7877 H         1 MGR200      0.0000 
     31 H         -68.2599  -47.9561    4.8728 H         1 MGR200      0.0000 
     32 H         -66.2874  -47.7139    3.4626 H         1 MGR200      0.0000 
     33 H         -67.2391  -43.6280    2.8789 H         1 MGR200      0.0000 
     34 H         -69.2195  -43.8695    4.2874 H         1 MGR200      0.0000 
     35 H         -69.3494  -44.1963    7.1954 H         1 MGR200      0.0000 
     36 H         -70.5967  -42.3777    8.1984 H         1 MGR200      0.0000 
     37 H         -74.0635  -43.6426    6.1663 H         1 MGR200      0.0000 
     38 H         -72.8204  -45.4757    5.1509 H         1 MGR200      0.0000 
     39 H         -64.9032  -43.4760    2.3700 H         1 MGR200      0.0000 
     40 H         -64.2184  -44.2349    1.1285 H         1 MGR200      0.0000 
     41 H         -65.7773  -43.8439    1.0712 H         1 MGR200      0.0000 
     42 H         -63.6960  -46.2781    1.4023 H         1 MGR200      0.0000 
     43 H         -64.0166  -46.9549    2.8254 H         1 MGR200      0.0000 
     44 H         -64.8738  -47.3658    1.5282 H         1 MGR200      0.0000 
     45 H         -72.5107  -41.6317    9.7922 H         1 MGR200      0.0000 
     46 H         -73.9083  -40.8931    9.4967 H         1 MGR200      0.0000 
     47 H         -73.8619  -42.4928    9.6552 H         1 MGR200      0.0000 
     48 H         -73.0785  -40.2771    6.5372 H         1 MGR200      0.0000 
     49 H         -74.4224  -41.1526    6.4191 H         1 MGR200      0.0000 
     50 H         -74.2348  -40.1288    7.6450 H         1 MGR200      0.0000 
@<TRIPOS>BOND
     1    2    1 1    
     2    8    1 1    
     3   14    1 2    
     4    3    2 ar   
     5    7    2 ar   
     6    4    3 ar   
     7   26    3 1    
     8    5    4 ar   
     9   27    4 1    
    10    6    5 ar   
    11   28    5 1    
    12    7    6 ar   
    13   29    6 1    
    14   30    7 1    
    15    9    8 ar   
    16   13    8 ar   
    17   10    9 ar   
    18   31    9 1    
    19   11   10 ar   
    20   32   10 1    
    21   12   11 ar   
    22   24   11 1    
    23   13   12 ar   
    24   33   12 1    
    25   34   13 1    
    26   15   14 1    
    27   19   14 1    
    28   16   15 2    
    29   35   15 1    
    30   17   16 1    
    31   36   16 1    
    32   18   17 1    
    33   25   17 2    
    34   19   18 2    
    35   37   18 1    
    36   38   19 1    
    37   24   20 1    
    38   39   20 1    
    39   40   20 1    
    40   41   20 1    
    41   24   21 1    
    42   42   21 1    
    43   43   21 1    
    44   44   21 1    
    45   25   22 1    
    46   45   22 1    
    47   46   22 1    
    48   47   22 1    
    49   25   23 1    
    50   48   23 1    
    51   49   23 1    
    52   50   23 1    
@<TRIPOS>SUBSTRUCTURE
     1 MGR200      1 GROUP   
@<TRIPOS>SET

