#    Name: 3ept_FDA_1_INTS_M
#    Modification time : Tue Mar 25 02:17:50 2014

@<TRIPOS>MOLECULE
3ept_FDA_1_INTS_M
  120     0     9     0     0
SMALL
NO_CHARGES


@<TRIPOS>ATOM
      1 N          -7.2425   27.0875   37.1380 N.am      2 SEC2        0.0000 
      2 N          -6.4510   28.4150   36.8370 N.am      8 SEL2        0.0000 
      3 N          -8.0340   25.7600   37.4390 N.am      5 SEP2        0.0000 
      4 CA         -6.3840   32.6895   35.5575 C.3       3 GLC5        0.0000 
      5 CA         -7.6410   31.3850   36.5480 C.3       9 GLL5        0.0000 
      6 CA         -5.1270   33.9940   34.5670 C.3       6 GLP5        0.0000 
      7 CA         -5.9940   30.8325   35.7195 C.3       3 GLC5        0.0000 
      8 CA         -4.3470   30.2800   34.8910 C.3       6 GLP5        0.0000 
      9 CA         -8.3315   34.3965   37.3380 C.3       3 GLC5        0.0000 
     10 CA         -8.7900   32.3830   36.7590 C.3       9 GLL5        0.0000 
     11 CA         -7.8730   36.4100   37.9170 C.3       6 GLP5        0.0000 
     12 CA         -8.7480   32.0685   38.9530 C.3       3 GLC5        0.0000 
     13 CA         -8.7060   31.7540   41.1470 C.3       6 GLP5        0.0000 
     14 O         -11.2795   33.4450   37.6235 O.2       1 ALC1        0.0000 
     15 O         -11.0750   32.1470   37.5170 O.2       7 ALL1        0.0000 
     16 O         -11.4840   34.7430   37.7300 O.2       4 ALP1        0.0000 
     17 N         -11.9150   33.1560   33.3690 N.am      2 SEC2        0.0000 
     18 N         -11.8960   32.6460   34.8010 N.am      8 SEL2        0.0000 
     19 N         -11.9340   33.6660   31.9370 N.am      5 SEP2        0.0000 
     20 O         -12.5520   33.2950   35.7115 O.2       1 ALC1        0.0000 
     21 O         -11.8960   32.6460   34.8010 O.2       7 ALL1        0.0000 
     22 O         -13.2080   33.9440   36.6220 O.2       4 ALP1        0.0000 
     23 CA         -8.8420   35.1180   36.5815 C.3       3 GLC5        0.0000 
     24 CA         -9.8110   33.8260   35.2460 C.3       9 GLL5        0.0000 
     25 CA        -11.2360   38.0670   30.5985 C.3       3 GLC5        0.0000 
     26 CA         -9.6320   37.1560   31.6750 C.3       9 GLL5        0.0000 
     27 CA        -12.8400   38.9780   29.5220 C.3       6 GLP5        0.0000 
     28 CA         -9.0530   39.2375   31.6370 C.3       3 GLC5        0.0000 
     29 CA         -8.4740   41.3190   31.5990 C.3       6 GLP5        0.0000 
     30 O          -9.3060   38.8630   29.7515 O.2       1 ALC1        0.0000 
     31 O          -9.0900   37.4690   30.4590 O.2       7 ALL1        0.0000 
     32 O          -9.5220   40.2570   29.0440 O.2       4 ALP1        0.0000 
     33 N         -10.6850   39.4255   31.8325 N.am      2 SEC2        0.0000 
     34 N         -10.4900   38.0370   32.2760 N.am      8 SEL2        0.0000 
     35 N         -10.8800   40.8140   31.3890 N.am      5 SEP2        0.0000 
     36 CA         -9.1690   38.4615   33.7255 C.3       3 GLC5        0.0000 
     37 CA        -11.0090   37.7210   33.4630 C.3       9 GLL5        0.0000 
     38 CA         -7.3290   39.2020   33.9880 C.3       6 GLP5        0.0000 
     39 CA        -11.9405   37.6165   35.4985 C.3       3 GLC5        0.0000 
     40 CA        -12.8720   37.5120   37.5340 C.3       6 GLP5        0.0000 
     41 CA        -12.5720   37.0365   33.2075 C.3       3 GLC5        0.0000 
     42 CA        -14.1350   36.3520   32.9520 C.3       6 GLP5        0.0000 
     43 CA        -12.1055   38.9565   32.6030 C.3       3 GLC5        0.0000 
     44 CA        -13.2020   40.1920   31.7430 C.3       6 GLP5        0.0000 
     45 N         -12.2650   36.7470   34.7675 N.am      2 SEC2        0.0000 
     46 N         -10.8060   36.5990   34.2070 N.am      8 SEL2        0.0000 
     47 N         -13.7240   36.8950   35.3280 N.am      5 SEP2        0.0000 
     48 CA        -11.8600   35.3045   33.2130 C.3       3 GLC5        0.0000 
     49 CA         -9.9210   35.7120   33.5640 C.3       9 GLL5        0.0000 
     50 CA        -13.7990   34.8970   32.8620 C.3       6 GLP5        0.0000 
     51 N          -2.1100   24.0785   45.9675 N.am      2 SEC2        0.0000 
     52 N          -3.1420   22.8840   45.6890 N.am      8 SEL2        0.0000 
     53 N          -1.0780   25.2730   46.2460 N.am      5 SEP2        0.0000 
     54 O          -4.6810   21.1660   47.2830 O.2       1 ALC1        0.0000 
     55 O          -4.5480   21.1140   45.6860 O.2       7 ALL1        0.0000 
     56 O          -4.8140   21.2180   48.8800 O.2       4 ALP1        0.0000 
     57 N          -7.3155   19.7520   45.9635 N.am      2 SEC2        0.0000 
     58 N          -5.9620   19.3110   45.7640 N.am      8 SEL2        0.0000 
     59 N          -8.6690   20.1930   46.1630 N.am      5 SEP2        0.0000 
     60 N          -6.5965   19.3805   47.0755 N.am      2 SEC2        0.0000 
     61 N          -7.2310   19.4500   48.3870 N.am      5 SEP2        0.0000 
     62 CA         -6.9330   20.9665   43.9930 C.3       3 GLC5        0.0000 
     63 CA         -5.3790   20.2040   43.6580 C.3       9 GLL5        0.0000 
     64 CA         -8.4870   21.7290   44.3280 C.3       6 GLP5        0.0000 
     65 CA         -7.3350   20.5335   42.9390 C.3       3 GLC5        0.0000 
     66 CA         -6.1830   19.3380   41.5500 C.3       9 GLL5        0.0000 
     67 CA         -8.6225   19.6545   40.9615 C.3       3 GLC5        0.0000 
     68 CA         -6.9290   18.4040   40.8360 C.3       9 GLL5        0.0000 
     69 CA        -10.3160   20.9050   41.0870 C.3       6 GLP5        0.0000 
     70 CA         -6.8370   16.1910   37.1995 C.3       3 GLC5        0.0000 
     71 CA         -7.8490   17.3340   38.7120 C.3       9 GLL5        0.0000 
     72 CA         -5.8250   15.0480   35.6870 C.3       6 GLP5        0.0000 
     73 CA         -5.8005   18.4815   35.7580 C.3       3 GLC5        0.0000 
     74 CA         -6.3030   19.4880   37.2060 C.3       9 GLL5        0.0000 
     75 CA         -5.2980   17.4750   34.3100 C.3       6 GLP5        0.0000 
     76 CA         -5.8300   22.5070   43.4765 C.3       3 GLC5        0.0000 
     77 CA         -4.6260   21.2510   42.9890 C.3       9 GLL5        0.0000 
     78 CA         -7.0340   23.7630   43.9640 C.3       6 GLP5        0.0000 
     79 CA         -2.0820   22.8205   41.6480 C.3       3 GLC5        0.0000 
     80 CA         -3.9410   22.4410   40.8930 C.3       9 GLL5        0.0000 
     81 CA         -0.2230   23.2000   42.4030 C.3       6 GLP5        0.0000 
     82 CA         -5.8725   23.7725   42.5615 C.3       3 GLC5        0.0000 
     83 CA         -4.7110   23.7820   41.1590 C.3       9 GLL5        0.0000 
     84 CA         -4.2320   24.7010   42.9780 C.3       3 GLC5        0.0000 
     85 CA         -3.7530   25.6200   44.7970 C.3       6 GLP5        0.0000 
     86 CA         -3.1855   25.3965   42.3545 C.3       3 GLC5        0.0000 
     87 CA         -4.0400   25.0060   40.4650 C.3       9 GLL5        0.0000 
     88 CA         -2.3310   25.7870   44.2440 C.3       6 GLP5        0.0000 
     89 O          -2.1415   25.7100   39.8220 O.2       1 ALC1        0.0000 
     90 O          -2.7020   25.0960   40.9280 O.2       7 ALL1        0.0000 
     91 O          -1.5810   26.3240   38.7160 O.2       4 ALP1        0.0000 
     92 CA         -4.2685   25.9610   42.7995 C.3       3 GLC5        0.0000 
     93 CA         -4.7840   26.3020   40.8020 C.3       9 GLL5        0.0000 
     94 CA         -3.4205   28.8220   41.4835 C.3       3 GLC5        0.0000 
     95 CA         -4.1810   27.4960   40.1810 C.3       9 GLL5        0.0000 
     96 CA         -2.6600   30.1480   42.7860 C.3       6 GLP5        0.0000 
     97 CA         -2.9925   27.5280   38.4495 C.3       3 GLC5        0.0000 
     98 CA         -1.8040   27.5600   36.7180 C.3       6 GLP5        0.0000 
     99 N          -2.1035   29.7330   39.0200 N.am      2 SEC2        0.0000 
    100 N          -3.4810   30.4080   39.7250 N.am      8 SEL2        0.0000 
    101 N          -0.7260   29.0580   38.3150 N.am      5 SEP2        0.0000 
    102 N          -5.3985   31.1125   42.2940 N.am      2 SEC2        0.0000 
    103 N          -5.7060   30.9140   40.8570 N.am      8 SEL2        0.0000 
    104 N          -5.0910   31.3110   43.7310 N.am      5 SEP2        0.0000 
    105 CA         -8.5143   37.6653   33.3858 C.3       3 GLC5        0.0000 
    106 CA         -9.3240   35.9340   32.3310 C.3       9 GLL5        0.0000 
    107 CA         -7.6525   20.8178   40.6677 C.3       3 GLC5        0.0000 
    108 CA         -5.4550   20.3630   40.8110 C.3       9 GLL5        0.0000 
    109 CA         -9.4860   21.7850   40.1550 C.3       6 GLP5        0.0000 
    110 CA         -4.8310   18.1115   40.5245 C.3       3 GLC5        0.0000 
    111 CA         -3.1060   17.3520   39.8560 C.3       6 GLP5        0.0000 
    112 CA         -8.4920   19.6285   38.8855 C.3       3 GLC5        0.0000 
    113 CA         -7.0010   18.4100   39.4580 C.3       9 GLL5        0.0000 
    114 CA         -9.5590   21.3850   38.6860 C.3       6 GLP5        0.0000 
    115 CA         -4.8762   18.1292   39.4705 C.3       3 GLC5        0.0000 
    116 CA         -7.2126   21.0119   38.2685 C.3       3 GLC5        0.0000 
    117 CA         -6.2920   19.4030   38.7120 C.3       9 GLL5        0.0000 
    118 CA         -8.5090   22.1220   37.8350 C.3       6 GLP5        0.0000 
    119 CA         -4.3005   18.8563   39.9920 C.3       3 GLC5        0.0000 
    120 CA         -5.5350   20.3580   39.4450 C.3       9 GLL5        0.0000 
@<TRIPOS>BOND
@<TRIPOS>SUBSTRUCTURE
     1 ALC1       14 GROUP        1 X    ALC  0     ROOT ALC X 1
     2 SEC2        1 GROUP        1 X    SEC  0     **** SEC X 2
     3 GLC5        4 GROUP        1 X    GLC  0     **** GLC X 6
     4 ALP1       16 GROUP        1 Y    ALP  0     ROOT ALP Y 8
     5 SEP2        3 GROUP        1 Y    SEP  0     **** SEP Y 9
     6 GLP5        6 GROUP        1 Y    GLP  0     **** GLP Y 13
     7 ALL1       15 GROUP        1 Z    ALL  0     ROOT ALL Z 15
     8 SEL2        2 GROUP        1 Z    SEL  0     **** SEL Z 16
     9 GLL5        5 GROUP        1 Z    GLL  0     **** GLL Z 20
@<TRIPOS>SET

