#    Name: 3ept_FDA_1_ligand
#    Modification time : Tue Mar 25 02:17:50 2014

@<TRIPOS>MOLECULE
3ept_FDA_1_ligand
   86    91     1     0     0
SMALL
NO_CHARGES


@<TRIPOS>ATOM
      1 PA         -6.8960   29.2190   38.0140 P.3       1 FDA710      0.0000 
      2 O1A        -7.5880   28.5350   39.1140 O.co2     1 FDA710      0.0000 
      3 O2A        -6.4510   28.4150   36.8370 O.co2     1 FDA710      0.0000 
      4 O5B        -7.8720   30.4090   37.6050 O.3       1 FDA710      0.0000 
      5 C5B        -7.6410   31.3850   36.5480 C.3       1 FDA710      0.0000 
      6 C4B        -8.7900   32.3830   36.7590 C.3       1 FDA710      0.0000 
      7 O4B        -8.5630   33.4620   35.8190 O.3       1 FDA710      0.0000 
      8 C3B       -10.1880   31.8720   36.4720 C.3       1 FDA710      0.0000 
      9 O3B       -11.0750   32.1470   37.5170 O.3       1 FDA710      0.0000 
     10 C2B       -10.5260   32.5280   35.1460 C.3       1 FDA710      0.0000 
     11 O2B       -11.8960   32.6460   34.8010 O.3       1 FDA710      0.0000 
     12 C1B        -9.8110   33.8260   35.2460 C.3       1 FDA710      0.0000 
     13 N9A        -9.4750   34.4990   33.9920 N.pl3     1 FDA710      0.0000 
     14 C8A        -8.6360   34.0410   33.0080 C.2       1 FDA710      0.0000 
     15 N7A        -8.5160   34.8750   31.9900 N.2       1 FDA710      0.0000 
     16 C5A        -9.3240   35.9340   32.3310 C.ar      1 FDA710      0.0000 
     17 C6A        -9.6320   37.1560   31.6750 C.ar      1 FDA710      0.0000 
     18 N6A        -9.0900   37.4690   30.4590 N.pl3     1 FDA710      0.0000 
     19 N1A       -10.4900   38.0370   32.2760 N.ar      1 FDA710      0.0000 
     20 C2A       -11.0090   37.7210   33.4630 C.ar      1 FDA710      0.0000 
     21 N3A       -10.8060   36.5990   34.2070 N.ar      1 FDA710      0.0000 
     22 C4A        -9.9210   35.7120   33.5640 C.ar      1 FDA710      0.0000 
     23 N1         -3.8850   22.1600   43.6570 N.am      1 FDA710      0.0000 
     24 C2         -3.8100   22.1030   44.9960 C.2       1 FDA710      0.0000 
     25 O2         -3.1420   22.8840   45.6890 O.2       1 FDA710      0.0000 
     26 N3         -4.5480   21.1140   45.6860 N.am      1 FDA710      0.0000 
     27 C4         -5.3460   20.1390   45.0600 C.2       1 FDA710      0.0000 
     28 O4         -5.9620   19.3110   45.7640 O.2       1 FDA710      0.0000 
     29 C4X        -5.3790   20.2040   43.6580 C.2       1 FDA710      0.0000 
     30 N5         -6.1570   19.2500   42.9460 N.pl3     1 FDA710      0.0000 
     31 C5X        -6.1830   19.3380   41.5500 C.ar      1 FDA710      0.0000 
     32 C6         -6.9290   18.4040   40.8360 C.ar      1 FDA710      0.0000 
     33 C7         -7.0010   18.4100   39.4580 C.ar      1 FDA710      0.0000 
     34 C7M        -7.8490   17.3340   38.7120 C.3       1 FDA710      0.0000 
     35 C8         -6.2920   19.4030   38.7120 C.ar      1 FDA710      0.0000 
     36 C8M        -6.3030   19.4880   37.2060 C.3       1 FDA710      0.0000 
     37 C9         -5.5350   20.3580   39.4450 C.ar      1 FDA710      0.0000 
     38 C9A        -5.4550   20.3630   40.8110 C.ar      1 FDA710      0.0000 
     39 N10        -4.6750   21.3330   41.5970 N.pl3     1 FDA710      0.0000 
     40 C10        -4.6260   21.2510   42.9890 C.2       1 FDA710      0.0000 
     41 C1'        -3.9410   22.4410   40.8930 C.3       1 FDA710      0.0000 
     42 C2'        -4.7110   23.7820   41.1590 C.3       1 FDA710      0.0000 
     43 O2'        -6.0450   23.6310   40.7340 O.3       1 FDA710      0.0000 
     44 C3'        -4.0400   25.0060   40.4650 C.3       1 FDA710      0.0000 
     45 O3'        -2.7020   25.0960   40.9280 O.3       1 FDA710      0.0000 
     46 C4'        -4.7840   26.3020   40.8020 C.3       1 FDA710      0.0000 
     47 O4'        -6.1190   26.2250   40.3610 O.3       1 FDA710      0.0000 
     48 C5'        -4.1810   27.4960   40.1810 C.3       1 FDA710      0.0000 
     49 O5'        -4.9080   28.6140   40.6610 O.3       1 FDA710      0.0000 
     50 P          -4.8940   30.0410   39.9980 P.3       1 FDA710      0.0000 
     51 O1P        -3.4810   30.4080   39.7250 O.co2     1 FDA710      0.0000 
     52 O2P        -5.7060   30.9140   40.8570 O.co2     1 FDA710      0.0000 
     53 O3P        -5.5820   29.9200   38.5660 O.3       1 FDA710      0.0000 
     54 H          -7.7412   30.9528   35.5819 H         1 FDA710      0.0000 
     55 H          -6.7190   31.8980   36.6781 H         1 FDA710      0.0000 
     56 H          -8.7421   32.7711   37.7573 H         1 FDA710      0.0000 
     57 H         -10.0803   30.8017   36.2719 H         1 FDA710      0.0000 
     58 H          -9.9620   31.9417   34.3791 H         1 FDA710      0.0000 
     59 H         -10.3257   34.4784   35.9150 H         1 FDA710      0.0000 
     60 H          -8.1728   33.1584   33.0790 H         1 FDA710      0.0000 
     61 H          -9.3347   38.3637   30.0854 H         1 FDA710      0.0000 
     62 H          -8.4966   36.7757   30.0502 H         1 FDA710      0.0000 
     63 H         -11.6945   38.4595   33.9096 H         1 FDA710      0.0000 
     64 H          -3.3749   22.9011   43.1328 H         1 FDA710      0.0000 
     65 H          -4.4951   21.1091   46.7373 H         1 FDA710      0.0000 
     66 H          -6.6689   18.5382   43.4406 H         1 FDA710      0.0000 
     67 H          -7.4534   17.6713   41.3698 H         1 FDA710      0.0000 
     68 H          -5.0201   21.0859   38.8905 H         1 FDA710      0.0000 
     69 H          -3.9222   22.2710   39.8309 H         1 FDA710      0.0000 
     70 H          -2.9436   22.5450   41.2825 H         1 FDA710      0.0000 
     71 H          -4.6639   23.9557   42.2388 H         1 FDA710      0.0000 
     72 H          -4.0848   24.8452   39.4064 H         1 FDA710      0.0000 
     73 H          -4.7579   26.4234   41.8889 H         1 FDA710      0.0000 
     74 H          -4.2501   27.4093   39.0963 H         1 FDA710      0.0000 
     75 H          -3.1287   27.5527   40.4608 H         1 FDA710      0.0000 
     76 H          -7.8132   17.4551   37.7200 H         1 FDA710      0.0000 
     77 H          -7.5270   16.4073   38.9060 H         1 FDA710      0.0000 
     78 H          -8.8125   17.3711   38.9772 H         1 FDA710      0.0000 
     79 H          -5.7438   20.2471   36.8728 H         1 FDA710      0.0000 
     80 H          -5.9466   18.6542   36.7843 H         1 FDA710      0.0000 
     81 H          -7.2268   19.6254   36.8485 H         1 FDA710      0.0000 
     82 H         -11.1338   33.1447   37.5506 H         1 FDA710      0.0000 
     83 H         -12.3781   32.7106   35.6748 H         1 FDA710      0.0000 
     84 H          -6.3464   24.5541   40.4950 H         1 FDA710      0.0000 
     85 H          -2.1984   25.5299   40.1809 H         1 FDA710      0.0000 
     86 H          -6.1849   26.8913   39.6183 H         1 FDA710      0.0000 
@<TRIPOS>BOND
     1    2    1 ar   
     2    3    1 ar   
     3    4    1 1    
     4   53    1 1    
     5    5    4 1    
     6    6    5 1    
     7   54    5 1    
     8   55    5 1    
     9    7    6 1    
    10    8    6 1    
    11   56    6 1    
    12   12    7 1    
    13    9    8 1    
    14   10    8 1    
    15   57    8 1    
    16   82    9 1    
    17   11   10 1    
    18   12   10 1    
    19   58   10 1    
    20   83   11 1    
    21   13   12 1    
    22   59   12 1    
    23   14   13 1    
    24   22   13 1    
    25   15   14 2    
    26   60   14 1    
    27   16   15 1    
    28   17   16 ar   
    29   22   16 ar   
    30   18   17 1    
    31   19   17 ar   
    32   61   18 1    
    33   62   18 1    
    34   20   19 ar   
    35   21   20 ar   
    36   63   20 1    
    37   22   21 ar   
    38   24   23 am   
    39   40   23 1    
    40   64   23 1    
    41   25   24 2    
    42   26   24 am   
    43   27   26 am   
    44   65   26 1    
    45   28   27 2    
    46   29   27 1    
    47   30   29 1    
    48   40   29 2    
    49   31   30 1    
    50   66   30 1    
    51   32   31 ar   
    52   38   31 ar   
    53   33   32 ar   
    54   67   32 1    
    55   34   33 1    
    56   35   33 ar   
    57   76   34 1    
    58   77   34 1    
    59   78   34 1    
    60   36   35 1    
    61   37   35 ar   
    62   79   36 1    
    63   80   36 1    
    64   81   36 1    
    65   38   37 ar   
    66   68   37 1    
    67   39   38 1    
    68   40   39 1    
    69   41   39 1    
    70   42   41 1    
    71   69   41 1    
    72   70   41 1    
    73   43   42 1    
    74   44   42 1    
    75   71   42 1    
    76   84   43 1    
    77   45   44 1    
    78   46   44 1    
    79   72   44 1    
    80   85   45 1    
    81   47   46 1    
    82   48   46 1    
    83   73   46 1    
    84   86   47 1    
    85   49   48 1    
    86   74   48 1    
    87   75   48 1    
    88   50   49 1    
    89   51   50 ar   
    90   52   50 ar   
    91   53   50 1    
@<TRIPOS>SUBSTRUCTURE
     1 FDA710      1 GROUP   
@<TRIPOS>SET

