#    Name: 4h1e_10J_1_INTS_M
#    Modification time : Tue Mar 25 00:05:05 2014

@<TRIPOS>MOLECULE
4h1e_10J_1_INTS_M
   62     0     9     0     0
SMALL
NO_CHARGES


@<TRIPOS>ATOM
      1 CA         20.5115   13.3890   21.0550 C.3       3 GLC5        0.0000 
      2 CA         20.6780   11.7260   22.0090 C.3       9 GLL5        0.0000 
      3 CA         20.3450   15.0520   20.1010 C.3       6 GLP5        0.0000 
      4 OD1        22.3050    8.0685   23.2380 O.co2     2 ASC3        0.0000 
      5 OD1        22.3550   10.0100   23.6130 O.co2     8 ASL3        0.0000 
      6 OD1        23.0130    6.5150   23.8070 O.co2     5 ASP3        0.0000 
      7 OD1        21.8070    7.0190   22.0310 O.co2     5 ASP3        0.0000 
      8 OD1        23.1940    9.3040   25.8040 O.co2     2 ASC3        0.0000 
      9 OD1        23.5850    9.4900   27.1630 O.co2     5 ASP3        0.0000 
     10 O          21.7390    8.2985   22.2510 O.2       1 ALC1        0.0000 
     11 O          21.6710    9.5780   22.4710 O.2       7 ALL1        0.0000 
     12 O          21.8070    7.0190   22.0310 O.2       4 ALP1        0.0000 
     13 CA         19.3175    8.2880   21.5230 C.3       3 GLC5        0.0000 
     14 CA         20.0420    9.8310   20.6890 C.3       9 GLL5        0.0000 
     15 CA         18.5930    6.7450   22.3570 C.3       6 GLP5        0.0000 
     16 CA         18.6415   12.9900   21.6685 C.3       3 GLC5        0.0000 
     17 CA         19.3400   11.2520   22.5220 C.3       9 GLL5        0.0000 
     18 CA         17.9430   14.7280   20.8150 C.3       6 GLP5        0.0000 
     19 CA         22.2295    9.3305   18.7770 C.3       3 GLC5        0.0000 
     20 CA         22.2100   11.4320   18.8810 C.3       9 GLL5        0.0000 
     21 CA         22.2490    7.2290   18.6730 C.3       6 GLP5        0.0000 
     22 CA         27.4700    8.9140   22.9575 C.3       3 GLC5        0.0000 
     23 CA         28.8210    9.9810   21.8990 C.3       9 GLL5        0.0000 
     24 CA         26.1190    7.8470   24.0160 C.3       6 GLP5        0.0000 
     25 O          22.9080    7.8165   24.1260 O.2       1 ALC1        0.0000 
     26 O          22.8030    9.1180   24.4450 O.2       7 ALL1        0.0000 
     27 O          23.0130    6.5150   23.8070 O.2       4 ALP1        0.0000 
     28 O          22.3050    8.0685   23.2380 O.2       1 ALC1        0.0000 
     29 O          23.1940    9.3040   25.8040 O.2       1 ALC1        0.0000 
     30 O          23.5850    9.4900   27.1630 O.2       4 ALP1        0.0000 
     31 CA         26.4335    9.1445   22.3675 C.3       3 GLC5        0.0000 
     32 CA         26.7480   10.4420   20.7190 C.3       9 GLL5        0.0000 
     33 CA         30.9475   10.4660   19.1870 C.3       3 GLC5        0.0000 
     34 CA         28.8860   10.4860   19.5030 C.3       9 GLL5        0.0000 
     35 CA         33.0090   10.4460   18.8710 C.3       6 GLP5        0.0000 
     36 CA         24.9950   11.5305   26.2040 C.3       3 GLC5        0.0000 
     37 CA         23.2970   11.9490   24.9150 C.3       9 GLL5        0.0000 
     38 CA         26.6930   11.1120   27.4930 C.3       6 GLP5        0.0000 
     39 CA         21.6004    8.7214   19.7349 C.3       3 GLC5        0.0000 
     40 CA         21.2890   10.4510   21.3730 C.3       9 GLL5        0.0000 
     41 CA         25.2160    8.9900   19.4200 C.3       3 GLC5        0.0000 
     42 CA         23.7820   10.5090   20.6280 C.3       9 GLL5        0.0000 
     43 CA         26.2320    7.2670   18.7470 C.3       6 GLP5        0.0000 
     44 CA         23.2245    8.9710   19.3830 C.3       3 GLC5        0.0000 
     45 CA         24.6180   10.9170   19.5580 C.3       9 GLL5        0.0000 
     46 CA         26.8415    8.8223   19.7280 C.3       3 GLC5        0.0000 
     47 CA         28.1540   10.3130   20.6990 C.3       9 GLL5        0.0000 
     48 CA         17.6280    8.3242   22.6585 C.3       3 GLC5        0.0000 
     49 CA         16.6140   10.1430   22.2860 C.3       9 GLL5        0.0000 
     50 CA         26.3340    9.0667   18.8312 C.3       3 GLC5        0.0000 
     51 CA         26.0600   10.7850   19.5220 C.3       9 GLL5        0.0000 
     52 CA         30.0234    8.8652   20.4730 C.3       3 GLC5        0.0000 
     53 CA         31.3600    7.4140   20.5450 C.3       6 GLP5        0.0000 
     54 CA         27.3900    8.9520   18.8225 C.3       3 GLC5        0.0000 
     55 CA         15.8400    8.1288   25.2833 C.3       3 GLC5        0.0000 
     56 CA         16.7120    9.6640   23.6340 C.3       9 GLL5        0.0000 
     57 CA         15.4820    6.4300   26.4740 C.3       6 GLP5        0.0000 
     58 CA         15.1099   10.8904   20.3711 C.3       3 GLC5        0.0000 
     59 CA         14.4800   11.2520   22.7490 C.3       9 GLL5        0.0000 
     60 CA         14.9520   10.8800   18.3370 C.3       6 GLP5        0.0000 
     61 CA         13.1246   10.2310   22.1692 C.3       3 GLC5        0.0000 
     62 CA         11.4730    9.5300   21.1380 C.3       6 GLP5        0.0000 
@<TRIPOS>BOND
@<TRIPOS>SUBSTRUCTURE
     1 ALC1       10 GROUP        1 X    ALC  0     ROOT ALC X 1
     2 ASC3        4 GROUP        1 X    ASC  0     **** ASC X 3
     3 GLC5        1 GROUP        1 X    GLC  0     **** GLC X 6
     4 ALP1       12 GROUP        1 Y    ALP  0     ROOT ALP Y 8
     5 ASP3        6 GROUP        1 Y    ASP  0     **** ASP Y 10
     6 GLP5        3 GROUP        1 Y    GLP  0     **** GLP Y 13
     7 ALL1       11 GROUP        1 Z    ALL  0     ROOT ALL Z 15
     8 ASL3        5 GROUP        1 Z    ASL  0     **** ASL Z 17
     9 GLL5        2 GROUP        1 Z    GLL  0     **** GLL Z 20
@<TRIPOS>SET

