#    Name: 4h1e_10J_1_ligand
#    Modification time : Tue Mar 25 00:05:05 2014

@<TRIPOS>MOLECULE
4h1e_10J_1_ligand
   55    59     1     0     0
SMALL
NO_CHARGES


@<TRIPOS>ATOM
      1 C1         21.2890   10.4510   21.3730 C.3       1 10J501      0.0000 
      2 C2         20.6780   11.7260   22.0090 C.3       1 10J501      0.0000 
      3 N3         22.4000   11.3990   23.8450 N.am      1 10J501      0.0000 
      4 C4         22.3550   10.0100   23.6130 C.cat     1 10J501      0.0000 
      5 C5         21.5860   12.3130   23.1020 C.2       1 10J501      0.0000 
      6 N6         21.6710    9.5780   22.4710 N.pl3     1 10J501      0.0000 
      7 N7         18.9010   10.3740   21.4430 N.am      1 10J501      0.0000 
      8 C8         22.4340   10.7420   20.4360 C.2       1 10J501      0.0000 
      9 C9         20.0420    9.8310   20.6890 C.3       1 10J501      0.0000 
     10 C10        17.6260    9.8650   21.2580 C.2       1 10J501      0.0000 
     11 C11        19.3400   11.2520   22.5220 C.3       1 10J501      0.0000 
     12 C12        23.7820   10.5090   20.6280 C.2       1 10J501      0.0000 
     13 C13        24.6180   10.9170   19.5580 C.2       1 10J501      0.0000 
     14 S14        22.2100   11.4320   18.8810 S.3       1 10J501      0.0000 
     15 C15        23.8680   11.4350   18.5130 C.2       1 10J501      0.0000 
     16 C16        28.1540   10.3130   20.6990 C.ar      1 10J501      0.0000 
     17 C17        16.6140   10.1430   22.2860 C.ar      1 10J501      0.0000 
     18 C18        26.0600   10.7850   19.5220 C.ar      1 10J501      0.0000 
     19 N19        29.3610    9.7120   22.8720 N.1       1 10J501      0.0000 
     20 C20        28.8210    9.9810   21.8990 C.1       1 10J501      0.0000 
     21 N21        22.8030    9.1180   24.4450 N.pl3     1 10J501      0.0000 
     22 C22        26.7480   10.4420   20.7190 C.ar      1 10J501      0.0000 
     23 O23        21.5390   13.5390   23.2410 O.2       1 10J501      0.0000 
     24 C24        28.8860   10.4860   19.5030 C.ar      1 10J501      0.0000 
     25 O25        17.3020    9.2510   20.2320 O.2       1 10J501      0.0000 
     26 C26        16.7120    9.6640   23.6340 C.ar      1 10J501      0.0000 
     27 C27        26.8120   10.9480   18.3090 C.ar      1 10J501      0.0000 
     28 C28        28.2100   10.7880   18.2930 C.ar      1 10J501      0.0000 
     29 C29        23.2970   11.9490   24.9150 C.3       1 10J501      0.0000 
     30 C30        15.6840    9.9910   24.5510 C.ar      1 10J501      0.0000 
     31 C31        15.4970   10.9560   21.8370 C.ar      1 10J501      0.0000 
     32 C32        14.4800   11.2520   22.7490 C.ar      1 10J501      0.0000 
     33 C33        14.5640   10.7600   24.1080 C.ar      1 10J501      0.0000 
     34 H          20.5229   12.4332   21.2237 H         1 10J501      0.0000 
     35 H          21.4089    8.5698   22.3814 H         1 10J501      0.0000 
     36 H          20.1030    8.7695   20.7802 H         1 10J501      0.0000 
     37 H          20.0260   10.1488   19.6704 H         1 10J501      0.0000 
     38 H          18.6901   12.0858   22.6329 H         1 10J501      0.0000 
     39 H          19.4809   10.7137   23.4277 H         1 10J501      0.0000 
     40 H          24.1543   10.0900   21.4444 H         1 10J501      0.0000 
     41 H          24.0807   11.7720   17.6805 H         1 10J501      0.0000 
     42 H          22.7192    8.1646   24.1552 H         1 10J501      0.0000 
     43 H          23.1902    9.4673   25.2982 H         1 10J501      0.0000 
     44 H          26.2280   10.2922   21.5782 H         1 10J501      0.0000 
     45 H          29.9023   10.3941   19.5070 H         1 10J501      0.0000 
     46 H          17.5024    9.1047   23.9158 H         1 10J501      0.0000 
     47 H          26.3097   11.1851   17.4464 H         1 10J501      0.0000 
     48 H          28.7331   10.8865   17.4285 H         1 10J501      0.0000 
     49 H          15.7366    9.6845   25.5163 H         1 10J501      0.0000 
     50 H          15.4791   11.2861   20.8870 H         1 10J501      0.0000 
     51 H          13.6735   11.8101   22.4802 H         1 10J501      0.0000 
     52 H          13.8035   10.9710   24.7569 H         1 10J501      0.0000 
     53 H          24.2570   11.7259   24.7458 H         1 10J501      0.0000 
     54 H          23.2341   12.9451   24.9766 H         1 10J501      0.0000 
     55 H          23.0659   11.5844   25.8170 H         1 10J501      0.0000 
@<TRIPOS>BOND
     1    2    1 1    
     2    6    1 1    
     3    8    1 1    
     4    9    1 1    
     5    5    2 1    
     6   11    2 1    
     7   34    2 1    
     8    4    3 ar   
     9    5    3 am   
    10   29    3 1    
    11    6    4 ar   
    12   21    4 ar   
    13   23    5 2    
    14   35    6 1    
    15    9    7 1    
    16   10    7 am   
    17   11    7 1    
    18   12    8 2    
    19   14    8 1    
    20   36    9 1    
    21   37    9 1    
    22   17   10 1    
    23   25   10 2    
    24   38   11 1    
    25   39   11 1    
    26   13   12 1    
    27   40   12 1    
    28   15   13 2    
    29   18   13 1    
    30   15   14 1    
    31   41   15 1    
    32   20   16 1    
    33   22   16 ar   
    34   24   16 ar   
    35   26   17 ar   
    36   31   17 ar   
    37   22   18 ar   
    38   27   18 ar   
    39   20   19 3    
    40   42   21 1    
    41   43   21 1    
    42   44   22 1    
    43   28   24 ar   
    44   45   24 1    
    45   30   26 ar   
    46   46   26 1    
    47   28   27 ar   
    48   47   27 1    
    49   48   28 1    
    50   53   29 1    
    51   54   29 1    
    52   55   29 1    
    53   33   30 ar   
    54   49   30 1    
    55   32   31 ar   
    56   50   31 1    
    57   33   32 ar   
    58   51   32 1    
    59   52   33 1    
@<TRIPOS>SUBSTRUCTURE
     1 10J501      1 GROUP   
@<TRIPOS>SET

