#    Name: 2is0_I03_1_INTS_M
#    Modification time : Tue Mar 25 18:33:57 2014

@<TRIPOS>MOLECULE
2is0_I03_1_INTS_M
  110     0    12     0     0
SMALL
NO_CHARGES


@<TRIPOS>ATOM
      1 CA         32.1145   42.7320    6.4750 C.3       4 GLC5        0.0000 
      2 CA         32.2120   44.6970    6.2880 C.3      12 GLL5        0.0000 
      3 CA         32.0170   40.7670    6.6620 C.3       8 GLP5        0.0000 
      4 CA         30.5345   43.4515    5.6920 C.3       4 GLC5        0.0000 
      5 CA         28.8570   42.2060    5.0960 C.3       8 GLP5        0.0000 
      6 CA         32.7125   49.5715    6.8665 C.3       4 GLC5        0.0000 
      7 CA         32.1020   47.6220    6.5340 C.3      12 GLL5        0.0000 
      8 CA         33.3230   51.5210    7.1990 C.3       8 GLP5        0.0000 
      9 CA         30.2450   48.0170    5.8400 C.3       4 GLC5        0.0000 
     10 CA         28.3880   48.4120    5.1460 C.3       8 GLP5        0.0000 
     11 O          31.7720   42.9150    3.8250 O.2       1 ALC1        0.0000 
     12 O          32.0340   44.2360    3.1800 O.2       9 ALL1        0.0000 
     13 O          31.5100   41.5940    4.4700 O.2       5 ALP1        0.0000 
     14 CA         28.9470   43.2505    3.1265 C.3       4 GLC5        0.0000 
     15 CA         29.0370   44.2950    1.1570 C.3      12 GLL5        0.0000 
     16 CA         28.7320   45.6475    2.8265 C.3       4 GLC5        0.0000 
     17 CA         28.4270   47.0000    4.4960 C.3       8 GLP5        0.0000 
     18 CA         24.8195   42.7705    0.5465 C.3       4 GLC5        0.0000 
     19 CA         26.0660   43.6160   -0.9820 C.3      12 GLL5        0.0000 
     20 CA         23.5730   41.9250    2.0750 C.3       8 GLP5        0.0000 
     21 N          31.7240   45.0770    0.1820 N.am      2 SEC2        0.0000 
     22 N          31.4640   45.8050    1.6560 N.am     10 SEL2        0.0000 
     23 N          31.9840   44.3490   -1.2920 N.am      6 SEP2        0.0000 
     24 N          26.1240   45.5240    3.8375 N.am      2 SEC2        0.0000 
     25 N          26.4930   45.2170    2.4100 N.am     10 SEL2        0.0000 
     26 N          25.7550   45.8310    5.2650 N.am      6 SEP2        0.0000 
     27 CA         35.6070   43.4130    5.4145 C.3       4 GLC5        0.0000 
     28 CA         34.3150   44.1500    4.0690 C.3      12 GLL5        0.0000 
     29 CA         36.8990   42.6760    6.7600 C.3       8 GLP5        0.0000 
     30 CA         36.1245   43.9435    3.3375 C.3       4 GLC5        0.0000 
     31 CA         37.9340   43.7370    2.6060 C.3       8 GLP5        0.0000 
     32 CA         32.2420   47.1570   10.2620 C.3       4 GLC5        0.0000 
     33 CA         31.5540   47.2300    8.8200 C.3      12 GLL5        0.0000 
     34 CA         32.9300   47.0840   11.7040 C.3       8 GLP5        0.0000 
     35 N          29.1695   39.5230   -1.7475 N.am      2 SEC2        0.0000 
     36 N          28.7810   39.4840   -0.1960 N.am     10 SEL2        0.0000 
     37 N          29.5580   39.5620   -3.2990 N.am      6 SEP2        0.0000 
     38 CA         30.9650   37.2830   -0.1535 C.3       4 GLC5        0.0000 
     39 CA         30.4240   37.9460    1.5350 C.3      12 GLL5        0.0000 
     40 CA         31.5060   36.6200   -1.8420 C.3       8 GLP5        0.0000 
     41 OD1        32.4565   38.3570    4.5050 O.co2     3 ASC3        0.0000 
     42 OD1        31.3970   38.4940    3.6730 O.co2    11 ASL3        0.0000 
     43 OD1        33.5160   38.2200    5.3370 O.co2     7 ASP3        0.0000 
     44 OD1        32.7775   37.0385    4.5900 O.co2     3 ASC3        0.0000 
     45 OD1        32.8420   36.2810    6.1270 O.co2     7 ASP3        0.0000 
     46 OD1        30.7900   38.1855    5.2770 O.co2     3 ASC3        0.0000 
     47 OD1        30.1830   37.8770    6.8810 O.co2     7 ASP3        0.0000 
     48 OD1        30.1660   38.3375    4.3880 O.co2     3 ASC3        0.0000 
     49 OD1        28.9350   38.1810    5.1030 O.co2     7 ASP3        0.0000 
     50 O          32.4565   38.3570    4.5050 O.2       1 ALC1        0.0000 
     51 O          31.3970   38.4940    3.6730 O.2       9 ALL1        0.0000 
     52 O          33.5160   38.2200    5.3370 O.2       5 ALP1        0.0000 
     53 O          30.7900   38.1855    5.2770 O.2       1 ALC1        0.0000 
     54 O          30.1830   37.8770    6.8810 O.2       5 ALP1        0.0000 
     55 O          30.1660   38.3375    4.3880 O.2       1 ALC1        0.0000 
     56 O          28.9350   38.1810    5.1030 O.2       5 ALP1        0.0000 
     57 O          31.4535   40.0440    4.0715 O.2       1 ALC1        0.0000 
     58 CA         30.6265   35.3930    4.8055 C.3       4 GLC5        0.0000 
     59 CA         31.2340   36.2150    2.8920 C.3      12 GLL5        0.0000 
     60 CA         30.0190   34.5710    6.7190 C.3       8 GLP5        0.0000 
     61 CA         32.2720   34.5570    3.4255 C.3       4 GLC5        0.0000 
     62 CA         33.3100   32.8990    3.9590 C.3       8 GLP5        0.0000 
     63 CA         32.8355   36.9335    0.3670 C.3       4 GLC5        0.0000 
     64 CA         32.9490   37.8260    1.9000 C.3      12 GLL5        0.0000 
     65 CA         32.7220   36.0410   -1.1660 C.3       8 GLP5        0.0000 
     66 CA         31.9680   41.4260   -1.4690 C.3       4 GLC5        0.0000 
     67 CA         33.6730   41.0130   -0.1910 C.3      12 GLL5        0.0000 
     68 CA         30.2630   41.8390   -2.7470 C.3       8 GLP5        0.0000 
     69 CA         32.2990   38.1845   -0.8160 C.3       4 GLC5        0.0000 
     70 CA         33.0920   39.7490    0.2100 C.3      12 GLL5        0.0000 
     71 N          33.0900   34.8990    4.1345 N.am      2 SEC2        0.0000 
     72 N          32.0390   35.8570    3.8430 N.am     10 SEL2        0.0000 
     73 N          34.1410   33.9410    4.4260 N.am      6 SEP2        0.0000 
     74 O          32.7775   37.0385    4.5900 O.2       1 ALC1        0.0000 
     75 O          32.0390   35.8570    3.8430 O.2       9 ALL1        0.0000 
     76 CA         34.0970   45.6223    6.4757 C.3       4 GLC5        0.0000 
     77 CA         35.8040   46.0970    7.2140 C.3       8 GLP5        0.0000 
     78 CA         30.4838   46.6605    4.8643 C.3       4 GLC5        0.0000 
     79 CA         32.5680   45.5980    5.1870 C.3      12 GLL5        0.0000 
     80 CA         33.8503   48.2530    5.4710 C.3       4 GLC5        0.0000 
     81 CA         32.5130   47.0440    5.2780 C.3      12 GLL5        0.0000 
     82 CA         35.3930   49.1730    5.0360 C.3       8 GLP5        0.0000 
     83 CA         34.0558   46.7150    6.5600 C.3       4 GLC5        0.0000 
     84 CA         33.8360   46.0455    7.4002 C.3       4 GLC5        0.0000 
     85 CA         31.8440   46.7160    7.6250 C.3      12 GLL5        0.0000 
     86 CA         30.0545   45.8796    6.4128 C.3       4 GLC5        0.0000 
     87 CA         28.1610   45.9090    5.5540 C.3       8 GLP5        0.0000 
     88 CA         34.7413   45.3450    5.5930 C.3       4 GLC5        0.0000 
     89 CA         33.0420   45.0360    3.8750 C.3      12 GLL5        0.0000 
     90 CA         34.6187   45.4765    2.4595 C.3       4 GLC5        0.0000 
     91 CA         35.5590   46.3600    0.9470 C.3       8 GLP5        0.0000 
     92 CA         30.0870   41.8590   -0.7950 C.3       4 GLC5        0.0000 
     93 CA         30.4610   42.2830    1.4070 C.3      12 GLL5        0.0000 
     94 CA         29.3631   42.2228    3.1439 C.3       4 GLC5        0.0000 
     95 CA         29.3610   41.4750    0.9070 C.3      12 GLL5        0.0000 
     96 CA         29.1485   42.3133   -1.0597 C.3       4 GLC5        0.0000 
     97 CA         28.1300   42.0850    0.5790 C.3      12 GLL5        0.0000 
     98 CA         27.2105   42.4547    2.5592 C.3       4 GLC5        0.0000 
     99 CA         26.3870   42.1220    4.4910 C.3       8 GLP5        0.0000 
    100 CA         30.2850   46.3890    9.0226 C.3       4 GLC5        0.0000 
    101 CA         31.8920   45.2720    7.5480 C.3      12 GLL5        0.0000 
    102 CA         28.8590   46.1660    9.8420 C.3       8 GLP5        0.0000 
    103 CA         31.9982   35.9600    1.2195 C.3       4 GLC5        0.0000 
    104 CA         31.5390   37.6370    2.4940 C.3      12 GLL5        0.0000 
    105 CA         32.6100   34.9940   -0.2540 C.3       8 GLP5        0.0000 
    106 CA         35.4525   40.7127    3.7200 C.3       4 GLC5        0.0000 
    107 CA         34.2500   39.9410    2.4860 C.3      12 GLL5        0.0000 
    108 CA         36.3620   40.8500    5.1580 C.3       8 GLP5        0.0000 
    109 CA         35.0666   38.0271    2.9198 C.3       4 GLC5        0.0000 
    110 CA         36.4160   36.8240    3.7380 C.3       8 GLP5        0.0000 
@<TRIPOS>BOND
@<TRIPOS>SUBSTRUCTURE
     1 ALC1       11 GROUP        1 X    ALC  0     ROOT ALC X 1
     2 SEC2       21 GROUP        1 X    SEC  0     **** SEC X 2
     3 ASC3       41 GROUP        1 X    ASC  0     **** ASC X 3
     4 GLC5        1 GROUP        1 X    GLC  0     **** GLC X 6
     5 ALP1       13 GROUP        1 Y    ALP  0     ROOT ALP Y 8
     6 SEP2       23 GROUP        1 Y    SEP  0     **** SEP Y 9
     7 ASP3       43 GROUP        1 Y    ASP  0     **** ASP Y 10
     8 GLP5        3 GROUP        1 Y    GLP  0     **** GLP Y 13
     9 ALL1       12 GROUP        1 Z    ALL  0     ROOT ALL Z 15
    10 SEL2       22 GROUP        1 Z    SEL  0     **** SEL Z 16
    11 ASL3       42 GROUP        1 Z    ASL  0     **** ASL Z 17
    12 GLL5        2 GROUP        1 Z    GLL  0     **** GLL Z 20
@<TRIPOS>SET

