#    Name: 2is0_I03_1_ligand
#    Modification time : Tue Mar 25 18:33:57 2014

@<TRIPOS>MOLECULE
2is0_I03_1_ligand
   72    74     1     0     0
SMALL
NO_CHARGES


@<TRIPOS>ATOM
      1 C1         32.2120   44.6970    6.2880 C.ar      1 I03386      0.0000 
      2 C2         32.5680   45.5980    5.1870 C.ar      1 I03386      0.0000 
      3 C3         32.5130   47.0440    5.2780 C.ar      1 I03386      0.0000 
      4 C4         32.1020   47.6220    6.5340 C.ar      1 I03386      0.0000 
      5 C5         31.8440   46.7160    7.6250 C.ar      1 I03386      0.0000 
      6 C6         31.8920   45.2720    7.5480 C.ar      1 I03386      0.0000 
      7 C7         33.0420   45.0360    3.8750 C.3       1 I03386      0.0000 
      8 N1         32.0340   44.2360    3.1800 N.am      1 I03386      0.0000 
      9 C8         31.2980   44.6760    2.1100 C.2       1 I03386      0.0000 
     10 C9         30.2940   43.7250    1.5460 C.ar      1 I03386      0.0000 
     11 C10        30.4610   42.2830    1.4070 C.ar      1 I03386      0.0000 
     12 C11        29.3610   41.4750    0.9070 C.ar      1 I03386      0.0000 
     13 C12        28.1300   42.0850    0.5790 C.ar      1 I03386      0.0000 
     14 C13        27.9380   43.4900    0.6760 C.ar      1 I03386      0.0000 
     15 C14        29.0370   44.2950    1.1570 C.ar      1 I03386      0.0000 
     16 N2         26.7020   43.9860    0.2950 N.pl3     1 I03386      0.0000 
     17 S1         25.9190   45.1560    1.1060 S.o2      1 I03386      0.0000 
     18 C15        26.2010   46.7160    0.2850 C.3       1 I03386      0.0000 
     19 C16        26.0660   43.6160   -0.9820 C.3       1 I03386      0.0000 
     20 O1         31.4640   45.8050    1.6560 O.2       1 I03386      0.0000 
     21 O2         26.4930   45.2170    2.4100 O.2       1 I03386      0.0000 
     22 O3         24.5350   44.8250    0.9440 O.2       1 I03386      0.0000 
     23 C17        34.3150   44.1500    4.0690 C.3       1 I03386      0.0000 
     24 F1         31.5540   47.2300    8.8200 F         1 I03386      0.0000 
     25 C18        29.4230   40.0400    0.6400 C.2       1 I03386      0.0000 
     26 O4         30.2830   39.4230    1.4720 O.3       1 I03386      0.0000 
     27 O5         28.7810   39.4840   -0.1960 O.2       1 I03386      0.0000 
     28 C19        30.4240   37.9460    1.5350 C.3       1 I03386      0.0000 
     29 C20        31.5390   37.6370    2.4940 C.3       1 I03386      0.0000 
     30 N3         31.3970   38.4940    3.6730 N.4       1 I03386      0.0000 
     31 C21        31.2340   36.2150    2.8920 C.3       1 I03386      0.0000 
     32 C22        32.9490   37.8260    1.9000 C.3       1 I03386      0.0000 
     33 C23        34.5490   41.7140    0.7390 C.ar      1 I03386      0.0000 
     34 C24        33.6730   41.0130   -0.1910 C.ar      1 I03386      0.0000 
     35 C25        33.0920   39.7490    0.2100 C.ar      1 I03386      0.0000 
     36 C26        33.4200   39.2130    1.5340 C.ar      1 I03386      0.0000 
     37 C27        34.2500   39.9410    2.4860 C.ar      1 I03386      0.0000 
     38 C28        34.8360   41.2100    2.0780 C.ar      1 I03386      0.0000 
     39 O6         32.0390   35.8570    3.8430 O.3       1 I03386      0.0000 
     40 H          32.2007   43.7115    6.1361 H         1 I03386      0.0000 
     41 H          32.7509   47.6140    4.5002 H         1 I03386      0.0000 
     42 H          32.0012   48.6024    6.6420 H         1 I03386      0.0000 
     43 H          31.7068   44.7150    8.3506 H         1 I03386      0.0000 
     44 H          33.3557   45.8658    3.2268 H         1 I03386      0.0000 
     45 H          31.8909   43.2629    3.5535 H         1 I03386      0.0000 
     46 H          31.3333   41.8519    1.6563 H         1 I03386      0.0000 
     47 H          27.3438   41.4959    0.2588 H         1 I03386      0.0000 
     48 H          28.9086   45.3144    1.2212 H         1 I03386      0.0000 
     49 H          30.6690   37.5514    0.5568 H         1 I03386      0.0000 
     50 H          29.5054   37.4973    1.8921 H         1 I03386      0.0000 
     51 H          31.3149   35.6091    1.9605 H         1 I03386      0.0000 
     52 H          30.1537   36.1950    3.1640 H         1 I03386      0.0000 
     53 H          33.0268   37.1639    0.9901 H         1 I03386      0.0000 
     54 H          33.6865   37.3705    2.6217 H         1 I03386      0.0000 
     55 H          34.9803   42.5945    0.4421 H         1 I03386      0.0000 
     56 H          33.4788   41.4026   -1.0914 H         1 I03386      0.0000 
     57 H          32.4805   39.2474   -0.3962 H         1 I03386      0.0000 
     58 H          34.4130   39.5760    3.3996 H         1 I03386      0.0000 
     59 H          35.4206   41.7243    2.6988 H         1 I03386      0.0000 
     60 H          27.1735   46.9461    0.2486 H         1 I03386      0.0000 
     61 H          25.8668   46.7054   -0.6575 H         1 I03386      0.0000 
     62 H          25.7387   47.4701    0.7515 H         1 I03386      0.0000 
     63 H          26.6281   43.8780   -1.7665 H         1 I03386      0.0000 
     64 H          25.9118   42.6302   -1.0482 H         1 I03386      0.0000 
     65 H          25.1774   44.0601   -1.0967 H         1 I03386      0.0000 
     66 H          34.6390   43.7706    3.2024 H         1 I03386      0.0000 
     67 H          35.0729   44.6700    4.4629 H         1 I03386      0.0000 
     68 H          34.1405   43.3779    4.6800 H         1 I03386      0.0000 
     69 H          32.1180   38.3240    4.3447 H         1 I03386      0.0000 
     70 H          31.4415   39.4641    3.4345 H         1 I03386      0.0000 
     71 H          30.5235   38.3459    4.1367 H         1 I03386      0.0000 
     72 H          32.3808   36.7139    4.2289 H         1 I03386      0.0000 
@<TRIPOS>BOND
     1    2    1 ar   
     2    6    1 ar   
     3   40    1 1    
     4    3    2 ar   
     5    7    2 1    
     6    4    3 ar   
     7   41    3 1    
     8    5    4 ar   
     9   42    4 1    
    10    6    5 ar   
    11   24    5 1    
    12   43    6 1    
    13    8    7 1    
    14   23    7 1    
    15   44    7 1    
    16    9    8 am   
    17   45    8 1    
    18   10    9 1    
    19   20    9 2    
    20   11   10 ar   
    21   15   10 ar   
    22   12   11 ar   
    23   46   11 1    
    24   13   12 ar   
    25   25   12 1    
    26   14   13 ar   
    27   47   13 1    
    28   15   14 ar   
    29   16   14 1    
    30   48   15 1    
    31   17   16 1    
    32   19   16 1    
    33   18   17 1    
    34   21   17 2    
    35   22   17 2    
    36   60   18 1    
    37   61   18 1    
    38   62   18 1    
    39   63   19 1    
    40   64   19 1    
    41   65   19 1    
    42   66   23 1    
    43   67   23 1    
    44   68   23 1    
    45   26   25 1    
    46   27   25 2    
    47   28   26 1    
    48   29   28 1    
    49   49   28 1    
    50   50   28 1    
    51   30   29 1    
    52   31   29 1    
    53   32   29 1    
    54   69   30 1    
    55   70   30 1    
    56   71   30 1    
    57   39   31 1    
    58   51   31 1    
    59   52   31 1    
    60   36   32 1    
    61   53   32 1    
    62   54   32 1    
    63   34   33 ar   
    64   38   33 ar   
    65   55   33 1    
    66   35   34 ar   
    67   56   34 1    
    68   36   35 ar   
    69   57   35 1    
    70   37   36 ar   
    71   38   37 ar   
    72   58   37 1    
    73   59   38 1    
    74   72   39 1    
@<TRIPOS>SUBSTRUCTURE
     1 I03386      1 GROUP   
@<TRIPOS>SET

