#    Name: 2XI4_1_CAVITY_N1_ALL.mol2
#    Modification time : Mon Mar 10 23:34:48 2014

@<TRIPOS>MOLECULE
2XI4_1_CAVITY_N1_ALL.mol2
  113     0     6     0     0
SMALL
NO_CHARGES


@<TRIPOS>ATOM
      1 OG         96.8011   53.3061   23.2246 O.2       1 SER1        0.0000 
      2 N          98.8679   59.3542   27.4256 N.2       2 ALA2        0.0000 
      3 CA         99.5598   57.3537   27.2875 C.3       5 GLY6        0.0000 
      4 N          99.3527   58.4741   26.3119 N.2       2 ALA2        0.0000 
      5 N         100.4587   54.2327   28.1250 N.2       2 ALA2        0.0000 
      6 CA        100.2516   55.3531   27.1494 C.3       5 GLY6        0.0000 
      7 DU        100.0445   56.4735   26.1738 H         6 CUB7        0.0000 
      8 CZ         99.8375   57.5939   25.1982 C.ar      4 PHE5        0.0000 
      9 CA        100.7363   54.4729   26.0357 C.3       5 GLY6        0.0000 
     10 CA        100.5293   55.5933   25.0601 C.3       5 GLY6        0.0000 
     11 CZ        100.3222   56.7137   24.0845 C.ar      4 PHE5        0.0000 
     12 CZ        100.1152   57.8341   23.1089 C.ar      4 PHE5        0.0000 
     13 CA        101.0140   54.7132   23.9464 C.3       5 GLY6        0.0000 
     14 DU        100.8070   55.8336   22.9708 H         6 CUB7        0.0000 
     15 CZ        100.5999   56.9540   21.9952 C.ar      4 PHE5        0.0000 
     16 CZ        101.2917   54.9534   21.8571 C.ar      4 PHE5        0.0000 
     17 CZ        101.0847   56.0738   20.8815 C.ar      4 PHE5        0.0000 
     18 CZ        101.7765   54.0732   20.7434 C.ar      4 PHE5        0.0000 
     19 N         100.2723   59.8233   27.6661 N.2       2 ALA2        0.0000 
     20 CA        100.0652   60.9437   26.6905 C.3       5 GLY6        0.0000 
     21 CA        101.1712   56.7023   28.5037 C.3       5 GLY6        0.0000 
     22 N         100.9641   57.8227   27.5281 N.2       2 ALA2        0.0000 
     23 N         100.7570   58.9431   26.5524 N.2       2 ALA2        0.0000 
     24 CZ        100.5500   60.0635   25.5768 C.ar      4 PHE5        0.0000 
     25 CA        101.6559   55.8221   27.3900 C.3       5 GLY6        0.0000 
     26 DU        101.4488   56.9425   26.4144 H         6 CUB7        0.0000 
     27 DU        101.2418   58.0629   25.4388 H         6 CUB7        0.0000 
     28 CZ        101.0347   59.1833   24.4631 C.ar      4 PHE5        0.0000 
     29 CA        102.1407   54.9420   26.2763 C.3       5 GLY6        0.0000 
     30 CA        101.9336   56.0624   25.3007 C.3       5 GLY6        0.0000 
     31 DU        101.7265   57.1828   24.3251 H         6 CUB7        0.0000 
     32 CZ        101.5195   58.3032   23.3495 C.ar      4 PHE5        0.0000 
     33 CA        102.4184   55.1822   24.1870 C.3       5 GLY6        0.0000 
     34 DU        102.2113   56.3026   23.2114 H         6 CUB7        0.0000 
     35 CZ        102.0042   57.4230   22.2358 C.ar      4 PHE5        0.0000 
     36 CZ        101.7972   58.5434   21.2602 C.ar      4 PHE5        0.0000 
     37 CZ        102.9031   54.3020   23.0733 C.ar      4 PHE5        0.0000 
     38 OG        102.6961   55.4224   22.0977 O.2       1 SER1        0.0000 
     39 OG        102.4890   56.5428   21.1221 O.2       1 SER1        0.0000 
     40 OG        103.1808   54.5423   20.9840 O.2       1 SER1        0.0000 
     41 O          98.1554   56.8846   27.0469 O.2       2 ALA2        0.0000 
     42 N          97.9484   58.0050   26.0713 N.2       2 ALA2        0.0000 
     43 CZ         98.8473   54.8841   26.9088 C.ar      4 PHE5        0.0000 
     44 O          98.6402   56.0045   25.9332 O.2       2 ALA2        0.0000 
     45 CZ         98.4331   57.1249   24.9576 C.ar      4 PHE5        0.0000 
     46 CZ         99.3320   54.0039   25.7951 C.ar      4 PHE5        0.0000 
     47 DU         99.1250   55.1243   24.8195 H         6 CUB7        0.0000 
     48 CZ         98.9179   56.2447   23.8439 C.ar      4 PHE5        0.0000 
     49 CA         99.8168   53.1237   24.6814 C.3       5 GLY6        0.0000 
     50 CA         99.6097   54.2441   23.7058 C.3       5 GLY6        0.0000 
     51 OG         99.4027   55.3645   22.7302 O.2       1 SER1        0.0000 
     52 CZ         99.1956   56.4849   21.7546 C.ar      4 PHE5        0.0000 
     53 CZ        100.0945   53.3640   22.5921 C.ar      4 PHE5        0.0000 
     54 OG         99.8874   54.4844   21.6165 O.2       1 SER1        0.0000 
     55 CZ         99.6803   55.6048   20.6409 C.ar      4 PHE5        0.0000 
     56 CA        100.3722   53.6042   20.5028 C.3       5 GLY6        0.0000 
     57 O         102.5961   61.6415   29.2610 O.2       2 ALA2        0.0000 
     58 N         102.3891   62.7619   28.2854 N.2       2 ALA2        0.0000 
     59 N         102.1820   63.8823   27.3098 N.2       2 ALA2        0.0000 
     60 N         103.2880   59.6409   29.1229 N.2       2 ALA2        0.0000 
     61 N         103.0809   60.7613   28.1473 N.2       2 ALA2        0.0000 
     62 DU        102.8738   61.8817   27.1717 H         6 CUB7        0.0000 
     63 N         102.6668   63.0021   26.1961 N.2       2 ALA2        0.0000 
     64 N         103.9798   57.6403   28.9848 N.2       2 ALA2        0.0000 
     65 N         103.7727   58.7608   28.0092 N.2       2 ALA2        0.0000 
     66 DU        103.5657   59.8812   27.0336 H         6 CUB7        0.0000 
     67 DU        103.3586   61.0016   26.0580 H         6 CUB7        0.0000 
     68 CA        103.1515   62.1220   25.0824 C.3       5 GLY6        0.0000 
     69 CA        104.4646   56.7602   27.8711 C.3       5 GLY6        0.0000 
     70 DU        104.2575   57.8806   26.8955 H         6 CUB7        0.0000 
     71 DU        103.8434   60.1214   24.9443 H         6 CUB7        0.0000 
     72 N         104.9493   55.8800   26.7574 N.2       2 ALA2        0.0000 
     73 N         104.7423   57.0004   25.7818 N.2       2 ALA2        0.0000 
     74 DU        104.3281   59.2412   23.8306 H         6 CUB7        0.0000 
     75 CA        104.0005   62.1105   29.5016 C.3       5 GLY6        0.0000 
     76 NZ        103.7934   63.2309   28.5260 N.2       3 LYS4        0.0000 
     77 DU        104.4852   61.2304   28.3879 H         6 CUB7        0.0000 
     78 DU        104.2782   62.3508   27.4123 H         6 CUB7        0.0000 
     79 N         103.8640   64.5916   25.4611 N.2       2 ALA2        0.0000 
     80 CZ         97.2359   55.5354   25.6926 C.ar      4 PHE5        0.0000 
     81 CZ         97.7206   54.6553   24.5789 C.ar      4 PHE5        0.0000 
     82 CZ         97.5136   55.7757   23.6033 C.ar      4 PHE5        0.0000 
     83 CZ         98.4125   52.6547   24.4408 C.ar      4 PHE5        0.0000 
     84 OG         98.2054   53.7751   23.4652 O.2       1 SER1        0.0000 
     85 OG         98.6902   52.8949   22.3515 O.2       1 SER1        0.0000 
     86 OG        101.1918   61.1725   29.0204 O.2       1 SER1        0.0000 
     87 N         100.9848   62.2929   28.0448 N.2       2 ALA2        0.0000 
     88 N         101.6766   60.2923   27.9067 N.2       2 ALA2        0.0000 
     89 CA        101.4695   61.4127   26.9311 C.3       5 GLY6        0.0000 
     90 CA        101.2625   62.5331   25.9555 C.3       5 GLY6        0.0000 
     91 N         102.5755   57.1713   28.7442 N.2       2 ALA2        0.0000 
     92 N         102.3684   58.2917   27.7686 N.2       2 ALA2        0.0000 
     93 N         102.1613   59.4121   26.7930 N.2       2 ALA2        0.0000 
     94 CZ        101.9543   60.5325   25.8174 C.ar      4 PHE5        0.0000 
     95 CA        101.7472   61.6530   24.8418 C.3       5 GLY6        0.0000 
     96 CA        103.0602   56.2911   27.6306 C.3       5 GLY6        0.0000 
     97 DU        102.8532   57.4116   26.6549 H         6 CUB7        0.0000 
     98 DU        102.6461   58.5320   25.6793 H         6 CUB7        0.0000 
     99 CZ        102.4390   59.6524   24.7037 C.ar      4 PHE5        0.0000 
    100 CA        102.2320   60.7728   23.7281 C.3       5 GLY6        0.0000 
    101 N         106.1965   54.3599   22.4408 N.2       2 ALA2        0.0000 
    102 N         103.5450   55.4110   26.5169 N.2       2 ALA2        0.0000 
    103 N         103.3379   56.5314   25.5413 N.2       2 ALA2        0.0000 
    104 DU        102.9238   58.7722   23.5900 H         6 CUB7        0.0000 
    105 CA        102.7167   59.8926   22.6144 C.3       5 GLY6        0.0000 
    106 N         103.8227   55.6512   24.4276 N.2       2 ALA2        0.0000 
    107 DU        103.6156   56.7716   23.4520 H         6 CUB7        0.0000 
    108 OG        103.4086   57.8920   22.4764 O.2       1 SER1        0.0000 
    109 CZ        104.3075   54.7711   23.3139 C.ar      4 PHE5        0.0000 
    110 OG        104.1004   55.8915   22.3383 O.2       1 SER1        0.0000 
    111 OG        103.8933   57.0119   21.3627 O.2       1 SER1        0.0000 
    112 CZ        104.7922   53.8909   22.2002 C.ar      4 PHE5        0.0000 
    113 OG        104.5852   55.0113   21.2246 O.2       1 SER1        0.0000 
@<TRIPOS>BOND
@<TRIPOS>SUBSTRUCTURE
     1 SER1        1 GROUP   
     2 ALA2        2 GROUP   
     3 LYS4       76 GROUP   
     4 PHE5        8 GROUP   
     5 GLY6        3 GROUP   
     6 CUB7        7 GROUP   
@<TRIPOS>SET

