#    Name: 2xi4_AFT_1_INTS_M
#    Modification time : Tue Mar 25 06:02:34 2014

@<TRIPOS>MOLECULE
2xi4_AFT_1_INTS_M
   41     0     6     0     0
SMALL
NO_CHARGES


@<TRIPOS>ATOM
      1 CA        100.4325   55.2515   19.6050 C.3       2 GLC5        0.0000 
      2 CA         99.6410   54.2390   21.1320 C.3       6 GLL5        0.0000 
      3 CA        101.2240   56.2640   18.0780 C.3       4 GLP5        0.0000 
      4 CA        101.1600   53.0240   22.1085 C.3       2 GLC5        0.0000 
      5 CA        102.6790   51.8090   23.0850 C.3       4 GLP5        0.0000 
      6 CA        102.2615   60.3685   21.7570 C.3       2 GLC5        0.0000 
      7 CA        103.5390   58.9970   22.1750 C.3       6 GLL5        0.0000 
      8 CA        100.9840   61.7400   21.3390 C.3       4 GLP5        0.0000 
      9 N          97.4225   56.5565   28.0475 N.am      1 SEC2        0.0000 
     10 N          97.8500   56.8270   26.7780 N.am      5 SEL2        0.0000 
     11 N          96.9950   56.2860   29.3170 N.am      3 SEP2        0.0000 
     12 N          96.7745   57.6820   27.6460 N.am      1 SEC2        0.0000 
     13 N          95.6990   58.5370   28.5140 N.am      3 SEP2        0.0000 
     14 CA         99.3335   57.5340   28.3835 C.3       2 GLC5        0.0000 
     15 CA         99.6700   58.1120   26.2870 C.3       6 GLL5        0.0000 
     16 CA         98.9970   56.9560   30.4800 C.3       4 GLP5        0.0000 
     17 CA         99.7275   61.5070   26.7395 C.3       2 GLC5        0.0000 
     18 CA        100.8610   60.0360   27.1520 C.3       6 GLL5        0.0000 
     19 CA         98.5940   62.9780   26.3270 C.3       4 GLP5        0.0000 
     20 CA         98.5735   56.7100   22.3365 C.3       2 GLC5        0.0000 
     21 CA         99.1040   54.5780   22.5350 C.3       6 GLL5        0.0000 
     22 CA         98.0430   58.8420   22.1380 C.3       4 GLP5        0.0000 
     23 CA         97.8915   53.0210   25.0795 C.3       2 GLC5        0.0000 
     24 CA         99.2440   53.2890   23.3230 C.3       6 GLL5        0.0000 
     25 CA         96.5390   52.7530   26.8360 C.3       4 GLP5        0.0000 
     26 N          98.8605   60.0730   29.1685 N.am      1 SEC2        0.0000 
     27 N          98.8420   59.1000   28.2290 N.am      5 SEL2        0.0000 
     28 N          98.8790   61.0460   30.1080 N.am      3 SEP2        0.0000 
     29 N          97.2705   58.8185   28.3715 N.am      1 SEC2        0.0000 
     30 CA         98.5817   51.3145   23.0538 C.3       2 GLC5        0.0000 
     31 CA         97.7470   49.8070   23.2320 C.3       4 GLP5        0.0000 
     32 CA        101.0478   52.3155   22.9803 C.3       2 GLC5        0.0000 
     33 CA         99.5890   52.3550   22.4280 C.3       6 GLL5        0.0000 
     34 CA         97.6928   55.1167   21.1022 C.3       2 GLC5        0.0000 
     35 CA         96.0130   55.8250   20.3710 C.3       4 GLP5        0.0000 
     36 CA         99.2600   58.9813   24.5213 C.3       2 GLC5        0.0000 
     37 CA        100.7580   58.3390   25.4180 C.3       6 GLL5        0.0000 
     38 CA         98.3060   59.7370   23.1900 C.3       4 GLP5        0.0000 
     39 CA        100.2390   60.2858   24.7763 C.3       2 GLC5        0.0000 
     40 CA        101.5690   59.5730   25.8750 C.3       6 GLL5        0.0000 
     41 CA         99.2630   60.7670   23.0390 C.3       4 GLP5        0.0000 
@<TRIPOS>BOND
@<TRIPOS>SUBSTRUCTURE
     1 SEC2        9 GROUP        1 X    SEC  0     ROOT SEC X 2
     2 GLC5        1 GROUP        1 X    GLC  0     **** GLC X 6
     3 SEP2       11 GROUP        1 Y    SEP  0     ROOT SEP Y 9
     4 GLP5        3 GROUP        1 Y    GLP  0     **** GLP Y 13
     5 SEL2       10 GROUP        1 Z    SEL  0     ROOT SEL Z 16
     6 GLL5        2 GROUP        1 Z    GLL  0     **** GLL Z 20
@<TRIPOS>SET

