#    Name: 2xi4_AFT_1_ligand
#    Modification time : Tue Mar 25 06:02:34 2014

@<TRIPOS>MOLECULE
2xi4_AFT_1_ligand
   35    39     1     0     0
SMALL
NO_CHARGES


@<TRIPOS>ATOM
      1 C8A        99.5890   52.3550   22.4280 C.2       1 AFT1000     0.0000 
      2 C9B       100.0260   55.6970   22.9690 C.ar      1 AFT1000     0.0000 
      3 O7         99.8060   52.8060   21.1330 O.3       1 AFT1000     0.0000 
      4 C6A        99.6410   54.2390   21.1320 C.3       1 AFT1000     0.0000 
      5 O6A       100.8960   54.9280   20.9910 O.3       1 AFT1000     0.0000 
      6 C5A       101.0190   55.8590   22.0030 C.ar      1 AFT1000     0.0000 
      7 C5B       101.9620   56.8640   22.1850 C.ar      1 AFT1000     0.0000 
      8 C4B       101.9140   57.7080   23.2980 C.ar      1 AFT1000     0.0000 
      9 O4        102.8680   58.6730   23.4220 O.3       1 AFT1000     0.0000 
     10 CM        103.5390   58.9970   22.1750 C.3       1 AFT1000     0.0000 
     11 C4A       100.9040   57.5350   24.2700 C.ar      1 AFT1000     0.0000 
     12 C10        99.9520   56.5230   24.0700 C.ar      1 AFT1000     0.0000 
     13 O10        98.9250   56.2680   24.9260 O.3       1 AFT1000     0.0000 
     14 C11        98.7890   57.0590   26.0220 C.2       1 AFT1000     0.0000 
     15 O11        97.8500   56.8270   26.7780 O.2       1 AFT1000     0.0000 
     16 C12        99.6700   58.1120   26.2870 C.2       1 AFT1000     0.0000 
     17 C3A       100.7580   58.3390   25.4180 C.2       1 AFT1000     0.0000 
     18 C3        101.5690   59.5730   25.8750 C.3       1 AFT1000     0.0000 
     19 C2A       100.8610   60.0360   27.1520 C.3       1 AFT1000     0.0000 
     20 C9A        99.1040   54.5780   22.5350 C.3       1 AFT1000     0.0000 
     21 C1         99.6830   59.0510   27.3220 C.2       1 AFT1000     0.0000 
     22 C9         99.2440   53.2890   23.3230 C.2       1 AFT1000     0.0000 
     23 O1         98.8420   59.1000   28.2290 O.2       1 AFT1000     0.0000 
     24 H          99.6915   51.3767   22.6564 H         1 AFT1000     0.0000 
     25 H          98.9201   54.5553   20.4323 H         1 AFT1000     0.0000 
     26 H         102.7146   56.9922   21.4855 H         1 AFT1000     0.0000 
     27 H         101.5087   60.3277   25.1340 H         1 AFT1000     0.0000 
     28 H         102.5618   59.2785   26.0984 H         1 AFT1000     0.0000 
     29 H         100.4826   61.0183   27.0199 H         1 AFT1000     0.0000 
     30 H         101.5166   59.9476   27.9814 H         1 AFT1000     0.0000 
     31 H          98.1263   54.8896   22.4435 H         1 AFT1000     0.0000 
     32 H          99.0982   53.2647   24.2314 H         1 AFT1000     0.0000 
     33 H         104.2347   59.7043   22.3005 H         1 AFT1000     0.0000 
     34 H         103.9985   58.2002   21.7826 H         1 AFT1000     0.0000 
     35 H         102.8984   59.3350   21.4855 H         1 AFT1000     0.0000 
@<TRIPOS>BOND
     1    3    1 1    
     2   22    1 2    
     3   24    1 1    
     4    6    2 ar   
     5   12    2 ar   
     6   20    2 1    
     7    4    3 1    
     8    5    4 1    
     9   20    4 1    
    10   25    4 1    
    11    6    5 1    
    12    7    6 ar   
    13    8    7 ar   
    14   26    7 1    
    15    9    8 1    
    16   11    8 ar   
    17   10    9 1    
    18   33   10 1    
    19   34   10 1    
    20   35   10 1    
    21   12   11 ar   
    22   17   11 1    
    23   13   12 1    
    24   14   13 1    
    25   15   14 2    
    26   16   14 1    
    27   17   16 2    
    28   21   16 1    
    29   18   17 1    
    30   19   18 1    
    31   27   18 1    
    32   28   18 1    
    33   21   19 1    
    34   29   19 1    
    35   30   19 1    
    36   22   20 1    
    37   31   20 1    
    38   23   21 2    
    39   32   22 1    
@<TRIPOS>SUBSTRUCTURE
     1 AFT1000     1 GROUP   
@<TRIPOS>SET

