#    Name: 3GRJ_3_CAVITY_N1_6.mol2
#    Modification time : Mon Mar 10 20:03:15 2014

@<TRIPOS>MOLECULE
3GRJ_3_CAVITY_N1_6.mol2
  130     0     6     0     0
SMALL
NO_CHARGES


@<TRIPOS>ATOM
      1 N          22.7414    8.0826   40.7844 N.2       2 ALA2        0.0000 
      2 CA         24.1002    7.4879   39.2678 C.3       5 GLY6        0.0000 
      3 NZ         24.4129    7.9606   37.8790 N.2       3 LYS4        0.0000 
      4 NZ         23.3667    9.0279   38.0067 N.2       3 LYS4        0.0000 
      5 NZ         21.5871   11.6353   36.8734 N.2       3 LYS4        0.0000 
      6 OG         16.2812    5.8681   23.9956 O.2       1 SER1        0.0000 
      7 OG         16.5938    6.3408   22.6068 O.2       1 SER1        0.0000 
      8 CA         15.5477    7.4081   22.7346 C.3       5 GLY6        0.0000 
      9 CZ         14.2065    5.9935   23.5713 C.ar      4 PHE5        0.0000 
     10 N          22.7591    6.0732   40.1045 N.2       2 ALA2        0.0000 
     11 CA         24.1179    5.4785   38.5879 C.3       5 GLY6        0.0000 
     12 N          23.0717    6.5459   38.7157 N.2       2 ALA2        0.0000 
     13 NZ         22.0256    7.6133   38.8434 N.2       3 LYS4        0.0000 
     14 NZ         20.9794    8.6806   38.9712 N.2       3 LYS4        0.0000 
     15 O          25.4767    4.8839   37.0713 O.2       2 ALA2        0.0000 
     16 DU         24.4306    5.9512   37.1991 H         6 CUB7        0.0000 
     17 DU         23.3844    7.0186   37.3268 H         6 CUB7        0.0000 
     18 NZ         22.3382    8.0859   37.4546 N.2       3 LYS4        0.0000 
     19 NZ         21.2921    9.1533   37.5823 N.2       3 LYS4        0.0000 
     20 NZ         20.2459   10.2206   37.7101 N.2       3 LYS4        0.0000 
     21 DU         24.7432    6.4239   35.8103 H         6 CUB7        0.0000 
     22 DU         22.6509    8.5586   36.0658 H         6 CUB7        0.0000 
     23 N          21.6048    9.6260   36.1935 N.2       2 ALA2        0.0000 
     24 N          20.5586   10.6933   36.3213 N.2       2 ALA2        0.0000 
     25 O          22.8178    5.9647   23.8800 O.2       2 ALA2        0.0000 
     26 O          19.8052    4.6720   27.6220 O.2       2 ALA2        0.0000 
     27 OG         18.7590    5.7394   27.7498 O.2       1 SER1        0.0000 
     28 CZ         17.7129    6.8067   27.8776 C.ar      4 PHE5        0.0000 
     29 CA         20.1178    5.1447   26.2332 C.3       5 GLY6        0.0000 
     30 DU         19.0717    6.2121   26.3610 H         6 CUB7        0.0000 
     31 CZ         18.0255    7.2794   26.4887 C.ar      4 PHE5        0.0000 
     32 N          21.4766    4.5500   24.7167 N.2       2 ALA2        0.0000 
     33 O          20.4305    5.6174   24.8444 O.2       2 ALA2        0.0000 
     34 N          19.3843    6.6847   24.9722 N.2       2 ALA2        0.0000 
     35 CA         18.3382    7.7521   25.0999 C.3       5 GLY6        0.0000 
     36 CA         19.0893    4.2027   25.6811 C.3       5 GLY6        0.0000 
     37 OG         18.0432    5.2701   25.8088 O.2       1 SER1        0.0000 
     38 CZ         16.9970    6.3374   25.9366 C.ar      4 PHE5        0.0000 
     39 O          19.4020    4.6754   24.2923 O.2       2 ALA2        0.0000 
     40 OG         18.3558    5.7427   24.4200 O.2       1 SER1        0.0000 
     41 CZ         17.3097    6.8101   24.5478 C.ar      4 PHE5        0.0000 
     42 CZ         16.2635    7.8775   24.6755 C.ar      4 PHE5        0.0000 
     43 O          18.6685    6.2154   23.0312 O.2       2 ALA2        0.0000 
     44 CA         17.6223    7.2828   23.1590 C.3       5 GLY6        0.0000 
     45 CA         16.5762    8.3501   23.2867 C.3       5 GLY6        0.0000 
     46 CA         21.6577    3.5979   34.1539 C.3       5 GLY6        0.0000 
     47 CZ         20.6116    4.6653   34.2816 C.ar      4 PHE5        0.0000 
     48 CZ         19.5654    5.7327   34.4094 C.ar      4 PHE5        0.0000 
     49 CA         21.9704    4.0706   32.7650 C.3       5 GLY6        0.0000 
     50 N          20.9242    5.1380   32.8928 N.2       2 ALA2        0.0000 
     51 CZ         19.8781    6.2053   33.0205 C.ar      4 PHE5        0.0000 
     52 N          22.2830    4.5433   31.3762 N.2       2 ALA2        0.0000 
     53 N          21.2369    5.6106   31.5040 N.2       2 ALA2        0.0000 
     54 O          20.1907    6.6780   31.6317 O.2       2 ALA2        0.0000 
     55 O          19.1446    7.7454   31.7595 O.2       2 ALA2        0.0000 
     56 N          22.5957    5.0160   29.9874 N.2       2 ALA2        0.0000 
     57 N          21.5495    6.0833   30.1151 N.2       2 ALA2        0.0000 
     58 O          20.5034    7.1507   30.2429 O.2       2 ALA2        0.0000 
     59 O          19.4572    8.2180   30.3706 O.2       2 ALA2        0.0000 
     60 CA         22.9083    5.4886   28.5986 C.3       5 GLY6        0.0000 
     61 DU         21.8622    6.5560   28.7263 H         6 CUB7        0.0000 
     62 O          20.8160    7.6233   28.8541 O.2       2 ALA2        0.0000 
     63 O          19.7699    8.6907   28.9818 O.2       2 ALA2        0.0000 
     64 O          23.2210    5.9613   27.2097 O.2       2 ALA2        0.0000 
     65 DU         22.1748    7.0287   27.3375 H         6 CUB7        0.0000 
     66 DU         21.1287    8.0960   27.4652 H         6 CUB7        0.0000 
     67 CA         20.0825    9.1634   27.5930 C.3       5 GLY6        0.0000 
     68 O          23.5336    6.4340   25.8209 O.2       2 ALA2        0.0000 
     69 O          22.4875    7.5013   25.9487 O.2       2 ALA2        0.0000 
     70 O          21.4413    8.5687   26.0764 O.2       2 ALA2        0.0000 
     71 N          19.8957    4.1960   32.3406 N.2       2 ALA2        0.0000 
     72 OG         19.1622    5.7360   31.0796 O.2       1 SER1        0.0000 
     73 O          18.1161    6.8034   31.2073 O.2       2 ALA2        0.0000 
     74 N          20.5210    5.1413   29.5630 N.2       2 ALA2        0.0000 
     75 OG         19.4749    6.2087   29.6908 O.2       1 SER1        0.0000 
     76 O          18.4287    7.2760   29.8185 O.2       2 ALA2        0.0000 
     77 O          17.3826    8.3434   29.9463 O.2       2 ALA2        0.0000 
     78 CA         20.8337    5.6140   28.1742 C.3       5 GLY6        0.0000 
     79 OG         19.7875    6.6814   28.3019 O.2       1 SER1        0.0000 
     80 CZ         18.7414    7.7487   28.4297 C.ar      4 PHE5        0.0000 
     81 CA         17.6952    8.8161   28.5574 C.3       5 GLY6        0.0000 
     82 CA         21.1463    6.0867   26.7854 C.3       5 GLY6        0.0000 
     83 DU         20.1002    7.1540   26.9131 H         6 CUB7        0.0000 
     84 CA         19.0540    8.2214   27.0409 C.3       5 GLY6        0.0000 
     85 N          23.5513    4.4247   25.1410 N.2       2 ALA2        0.0000 
     86 CA         22.5051    5.4920   25.2688 C.3       5 GLY6        0.0000 
     87 O          21.4590    6.5594   25.3965 O.2       2 ALA2        0.0000 
     88 N          20.4128    7.6267   25.5243 N.2       2 ALA2        0.0000 
     89 CA         23.7876    7.0152   40.6566 C.3       5 GLY6        0.0000 
     90 CZ         21.3274    5.1346   36.2226 C.ar      4 PHE5        0.0000 
     91 O          23.7324    3.4726   34.5782 O.2       2 ALA2        0.0000 
     92 CA         22.6862    4.5399   34.7060 C.3       5 GLY6        0.0000 
     93 CZ         21.6401    5.6073   34.8337 C.ar      4 PHE5        0.0000 
     94 CZ         20.5939    6.6746   34.9615 C.ar      4 PHE5        0.0000 
     95 N          19.5478    7.7420   35.0892 N.2       2 ALA2        0.0000 
     96 O          22.9989    5.0126   33.3172 O.2       2 ALA2        0.0000 
     97 DU         21.9527    6.0800   33.4449 H         6 CUB7        0.0000 
     98 O          20.9066    7.1473   33.5727 O.2       2 ALA2        0.0000 
     99 O          23.3115    5.4853   31.9283 O.2       2 ALA2        0.0000 
    100 DU         22.2654    6.5526   32.0561 H         6 CUB7        0.0000 
    101 O          21.2192    7.6200   32.1839 O.2       2 ALA2        0.0000 
    102 N          24.6703    4.8906   30.4118 N.2       2 ALA2        0.0000 
    103 O          23.6242    5.9579   30.5395 O.2       2 ALA2        0.0000 
    104 DU         22.5780    7.0253   30.6673 H         6 CUB7        0.0000 
    105 O          21.5319    8.0927   30.7950 O.2       2 ALA2        0.0000 
    106 O          23.9368    6.4306   29.1507 O.2       2 ALA2        0.0000 
    107 DU         22.8907    7.4980   29.2785 H         6 CUB7        0.0000 
    108 O          21.8445    8.5653   29.4062 O.2       2 ALA2        0.0000 
    109 O          20.7984    9.6327   29.5340 O.2       2 ALA2        0.0000 
    110 O          24.2495    6.9033   27.7619 O.2       2 ALA2        0.0000 
    111 DU         23.2033    7.9707   27.8896 H         6 CUB7        0.0000 
    112 DU         22.1572    9.0380   28.0174 H         6 CUB7        0.0000 
    113 CA         21.1110   10.1054   28.1451 C.3       5 GLY6        0.0000 
    114 O          22.4698    9.5107   26.6286 O.2       2 ALA2        0.0000 
    115 O          23.0894    4.5366   38.0358 O.2       2 ALA2        0.0000 
    116 N          22.0432    5.6039   38.1635 N.2       2 ALA2        0.0000 
    117 CA         23.4021    5.0092   36.6469 C.3       5 GLY6        0.0000 
    118 OG         22.3559    6.0766   36.7747 O.2       1 SER1        0.0000 
    119 OG         21.3097    7.1439   36.9025 O.2       1 SER1        0.0000 
    120 OG         20.2636    8.2113   37.0302 O.2       1 SER1        0.0000 
    121 OG         19.2174    9.2787   37.1580 O.2       1 SER1        0.0000 
    122 DU         23.7147    5.4819   35.2581 H         6 CUB7        0.0000 
    123 DU         22.6686    6.5493   35.3859 H         6 CUB7        0.0000 
    124 N          21.6224    7.6166   35.5136 N.2       2 ALA2        0.0000 
    125 N          20.5763    8.6840   35.6414 N.2       2 ALA2        0.0000 
    126 O          24.0274    5.9546   33.8693 O.2       2 ALA2        0.0000 
    127 DU         22.9812    7.0219   33.9971 H         6 CUB7        0.0000 
    128 O          21.9351    8.0893   34.1248 O.2       2 ALA2        0.0000 
    129 DU         23.2939    7.4946   32.6082 H         6 CUB7        0.0000 
    130 O          21.8269   10.5747   30.0861 O.2       2 ALA2        0.0000 
@<TRIPOS>BOND
@<TRIPOS>SUBSTRUCTURE
     1 SER1        6 GROUP   
     2 ALA2        1 GROUP   
     3 LYS4        3 GROUP   
     4 PHE5        9 GROUP   
     5 GLY6        2 GROUP   
     6 CUB7       16 GROUP   
@<TRIPOS>SET

