#    Name: 3grj_G14_3_INTS_M
#    Modification time : Tue Mar 25 12:53:20 2014

@<TRIPOS>MOLECULE
3grj_G14_3_INTS_M
    8     0     3     0     0
SMALL
NO_CHARGES


@<TRIPOS>ATOM
      1 CA         17.2305    4.6515   29.3135 C.3       1 GLC5        0.0000 
      2 CA         18.4760    5.9910   30.2710 C.3       3 GLL5        0.0000 
      3 CA         15.9850    3.3120   28.3560 C.3       2 GLP5        0.0000 
      4 CA         21.9735    3.8742   35.9360 C.3       1 GLC5        0.0000 
      5 CA         22.1320    5.1800   34.5250 C.3       3 GLL5        0.0000 
      6 CA         21.8360    2.0260   36.8940 C.3       2 GLP5        0.0000 
      7 CA         22.4395    3.6103   32.8097 C.3       1 GLC5        0.0000 
      8 CA         23.0920    1.9960   31.7040 C.3       2 GLP5        0.0000 
@<TRIPOS>BOND
@<TRIPOS>SUBSTRUCTURE
     1 GLC5        1 GROUP        1 X    GLC  0     ROOT GLC X 6
     2 GLP5        3 GROUP        1 Y    GLP  0     ROOT GLP Y 13
     3 GLL5        2 GROUP        1 Z    GLL  0     ROOT GLL Z 20
@<TRIPOS>SET

