#    Name: 3grj_G14_3_ligand
#    Modification time : Tue Mar 25 12:53:20 2014

@<TRIPOS>MOLECULE
3grj_G14_3_ligand
   22    23     1     0     0
SMALL
NO_CHARGES


@<TRIPOS>ATOM
      1 O14        20.0020    8.3090   27.7980 O.co2     1 G14363      0.0000 
      2 C12        19.1350    7.5270   28.3130 C.2       1 G14363      0.0000 
      3 O13        18.1320    7.1260   27.6580 O.co2     1 G14363      0.0000 
      4 C10        19.2830    6.9780   29.6890 C.2       1 G14363      0.0000 
      5 C9         18.4760    5.9910   30.2710 C.2       1 G14363      0.0000 
      6 N8         18.9480    5.7120   31.5300 N.pl3     1 G14363      0.0000 
      7 C7         20.0080    6.5240   31.7010 C.2       1 G14363      0.0000 
      8 N11        20.2470    7.2980   30.5920 N.pl3     1 G14363      0.0000 
      9 C6         20.7160    6.4130   33.0060 C.ar      1 G14363      0.0000 
     10 C1         20.6970    7.4790   33.8950 C.ar      1 G14363      0.0000 
     11 C2         21.3620    7.4210   35.1290 C.ar      1 G14363      0.0000 
     12 C3         22.0900    6.2650   35.4310 C.ar      1 G14363      0.0000 
     13 C4         22.1320    5.1800   34.5250 C.ar      1 G14363      0.0000 
     14 C5         21.4420    5.2690   33.3060 C.ar      1 G14363      0.0000 
     15 H          17.7219    5.5871   29.8466 H         1 G14363      0.0000 
     16 H          18.5930    5.0820   32.1340 H         1 G14363      0.0000 
     17 H          20.9457    7.9262   30.4862 H         1 G14363      0.0000 
     18 H          20.1792    8.3441   33.6462 H         1 G14363      0.0000 
     19 H          21.3154    8.1933   35.7801 H         1 G14363      0.0000 
     20 H          22.6024    6.1972   36.3198 H         1 G14363      0.0000 
     21 H          22.6609    4.3413   34.7600 H         1 G14363      0.0000 
     22 H          21.4787    4.4871   32.6438 H         1 G14363      0.0000 
@<TRIPOS>BOND
     1    2    1 ar   
     2    3    2 ar   
     3    4    2 1    
     4    5    4 2    
     5    8    4 1    
     6    6    5 1    
     7   15    5 1    
     8    7    6 2    
     9   16    6 1    
    10    8    7 1    
    11    9    7 1    
    12   17    8 1    
    13   10    9 ar   
    14   14    9 ar   
    15   11   10 ar   
    16   18   10 1    
    17   12   11 ar   
    18   19   11 1    
    19   13   12 ar   
    20   20   12 1    
    21   14   13 ar   
    22   21   13 1    
    23   22   14 1    
@<TRIPOS>SUBSTRUCTURE
     1 G14363      1 GROUP   
@<TRIPOS>SET

