#    Name: 1yw2_PGJ_1_INTS_M
#    Modification time : Tue Mar 25 11:17:10 2014

@<TRIPOS>MOLECULE
1yw2_PGJ_1_INTS_M
   73     0     6     0     0
SMALL
NO_CHARGES


@<TRIPOS>ATOM
      1 CA         20.3265   41.2460   19.8940 C.3       2 GLC5        0.0000 
      2 CA         18.3990   41.6210   19.2220 C.3       6 GLL5        0.0000 
      3 CA         22.2540   40.8710   20.5660 C.3       4 GLP5        0.0000 
      4 CA         20.2125   45.2280   20.9170 C.3       2 GLC5        0.0000 
      5 CA         18.9580   43.9990   19.9310 C.3       6 GLL5        0.0000 
      6 CA         21.4670   46.4570   21.9030 C.3       4 GLP5        0.0000 
      7 CA         20.0665   39.7545   12.6265 C.3       2 GLC5        0.0000 
      8 CA         18.9870   39.1840   14.3120 C.3       6 GLL5        0.0000 
      9 CA         21.1460   40.3250   10.9410 C.3       4 GLP5        0.0000 
     10 CA         17.7515   39.2290   12.6665 C.3       2 GLC5        0.0000 
     11 CA         16.5160   39.2740   11.0210 C.3       4 GLP5        0.0000 
     12 N          18.9490   40.8060   12.5465 N.am      1 SEC2        0.0000 
     13 N          19.0150   40.4630   13.9340 N.am      5 SEL2        0.0000 
     14 N          18.8830   41.1490   11.1590 N.am      3 SEP2        0.0000 
     15 CA         20.7965   40.6220   14.7925 C.3       2 GLC5        0.0000 
     16 CA         18.9890   41.4940   14.8530 C.3       6 GLL5        0.0000 
     17 CA         22.6040   39.7500   14.7320 C.3       4 GLP5        0.0000 
     18 CA         20.5465   42.1700   13.8040 C.3       2 GLC5        0.0000 
     19 CA         22.1040   42.8460   12.7550 C.3       4 GLP5        0.0000 
     20 N          18.5055   43.1690   13.0895 N.am      1 SEC2        0.0000 
     21 N          18.9560   42.7830   14.4180 N.am      5 SEL2        0.0000 
     22 N          18.0550   43.5550   11.7610 N.am      3 SEP2        0.0000 
     23 CA         17.6185   44.2635   13.8110 C.3       2 GLC5        0.0000 
     24 CA         16.9650   43.5790   15.5880 C.3       6 GLL5        0.0000 
     25 CA         18.2720   44.9480   12.0340 C.3       4 GLP5        0.0000 
     26 CA         20.7950   32.9850   18.8960 C.3       2 GLC5        0.0000 
     27 CA         20.7810   35.0530   18.0590 C.3       6 GLL5        0.0000 
     28 CA         20.8090   30.9170   19.7330 C.3       4 GLP5        0.0000 
     29 CA         22.3270   39.6375   17.9605 C.3       2 GLC5        0.0000 
     30 CA         21.5920   37.6960   17.6380 C.3       6 GLL5        0.0000 
     31 CA         23.0620   41.5790   18.2830 C.3       4 GLP5        0.0000 
     32 CA         23.1910   32.4600   17.0235 C.3       2 GLC5        0.0000 
     33 CA         22.8030   34.3150   17.1900 C.3       6 GLL5        0.0000 
     34 CA         23.5790   30.6050   16.8570 C.3       4 GLP5        0.0000 
     35 CA         24.2740   34.2520   16.0910 C.3       2 GLC5        0.0000 
     36 CA         25.7450   34.1890   14.9920 C.3       4 GLP5        0.0000 
     37 CA         22.0780   34.4015   15.4140 C.3       2 GLC5        0.0000 
     38 CA         21.3530   34.4880   13.6380 C.3       4 GLP5        0.0000 
     39 N          19.5760   36.8825   22.0645 N.am      1 SEC2        0.0000 
     40 N          19.1420   37.5410   20.8230 N.am      5 SEL2        0.0000 
     41 N          20.0100   36.2240   23.3060 N.am      3 SEP2        0.0000 
     42 CA         20.7228   39.9360   19.4585 C.3       2 GLC5        0.0000 
     43 CA         19.4550   38.4770   18.6750 C.3       6 GLL5        0.0000 
     44 CA         20.9542   37.2082   20.1247 C.3       2 GLC5        0.0000 
     45 CA         21.9910   36.4670   21.7830 C.3       4 GLP5        0.0000 
     46 CA         17.6965   37.3785   14.4677 C.3       2 GLC5        0.0000 
     47 CA         18.9530   38.8140   15.6490 C.3       6 GLL5        0.0000 
     48 CA         16.4230   35.7580   13.9550 C.3       4 GLP5        0.0000 
     49 CA         19.9235   37.4170   14.5822 C.3       2 GLC5        0.0000 
     50 CA         20.8770   35.8350   14.1840 C.3       4 GLP5        0.0000 
     51 CA         20.7862   39.5005   14.9752 C.3       2 GLC5        0.0000 
     52 CA         20.6163   45.8118   16.6033 C.3       2 GLC5        0.0000 
     53 CA         18.9840   44.8820   15.5540 C.3       6 GLL5        0.0000 
     54 CA         22.5570   46.2520   17.2680 C.3       4 GLP5        0.0000 
     55 CA         18.3879   45.0165   13.9402 C.3       2 GLC5        0.0000 
     56 CA         18.3670   45.8610   16.3230 C.3       6 GLL5        0.0000 
     57 CA         20.5243   36.2983   16.2707 C.3       2 GLC5        0.0000 
     58 CA         20.3800   37.4220   18.2580 C.3       6 GLL5        0.0000 
     59 CA         21.1815   36.0220   20.0205 C.3       2 GLC5        0.0000 
     60 CA         18.9870   34.6770   16.9840 C.3       2 GLC5        0.0000 
     61 CA         19.9630   36.1010   18.4570 C.3       6 GLL5        0.0000 
     62 CA         17.6020   33.7770   15.7100 C.3       4 GLP5        0.0000 
     63 CA         21.1385   35.5185   15.9830 C.3       2 GLC5        0.0000 
     64 CA         23.5395   33.9700   18.3633 C.3       2 GLC5        0.0000 
     65 CA         22.0190   35.3510   17.5050 C.3       6 GLL5        0.0000 
     66 CA         24.6680   33.1070   19.3790 C.3       4 GLP5        0.0000 
     67 CA         22.3170   38.4610   16.1115 C.3       2 GLC5        0.0000 
     68 CA         22.4680   36.6480   17.3440 C.3       6 GLL5        0.0000 
     69 CA         21.4535   36.5035   15.8375 C.3       2 GLC5        0.0000 
     70 CA         22.9519   37.0449   19.0256 C.3       2 GLC5        0.0000 
     71 CA         23.9860   37.2420   20.5200 C.3       4 GLP5        0.0000 
     72 CA         16.1528   45.3921   14.9245 C.3       2 GLC5        0.0000 
     73 CA         14.9530   45.8470   13.6430 C.3       4 GLP5        0.0000 
@<TRIPOS>BOND
@<TRIPOS>SUBSTRUCTURE
     1 SEC2       12 GROUP        1 X    SEC  0     ROOT SEC X 2
     2 GLC5        1 GROUP        1 X    GLC  0     **** GLC X 6
     3 SEP2       14 GROUP        1 Y    SEP  0     ROOT SEP Y 9
     4 GLP5        3 GROUP        1 Y    GLP  0     **** GLP Y 13
     5 SEL2       13 GROUP        1 Z    SEL  0     ROOT SEL Z 16
     6 GLL5        2 GROUP        1 Z    GLL  0     **** GLL Z 20
@<TRIPOS>SET

