#    Name: 1yw2_PGJ_1_ligand
#    Modification time : Tue Mar 25 11:17:10 2014

@<TRIPOS>MOLECULE
1yw2_PGJ_1_ligand
   49    52     1     0     0
SMALL
NO_CHARGES


@<TRIPOS>ATOM
      1 C1         18.9280   39.5250   18.0270 C.2       1 PGJ2001     0.0000 
      2 N2         17.9780   40.2500   18.9180 N.pl3     1 PGJ2001     0.0000 
      3 O3         17.9890   39.3980   20.1640 O.3       1 PGJ2001     0.0000 
      4 C4         18.8450   38.3680   20.0140 C.2       1 PGJ2001     0.0000 
      5 C5         19.4550   38.4770   18.6750 C.2       1 PGJ2001     0.0000 
      6 C6         18.3990   41.6210   19.2220 C.3       1 PGJ2001     0.0000 
      7 O7         17.2530   42.4450   19.3390 O.3       1 PGJ2001     0.0000 
      8 C10        17.4700   43.7910   19.6960 C.3       1 PGJ2001     0.0000 
      9 C11        18.9580   43.9990   19.9310 C.3       1 PGJ2001     0.0000 
     10 C17        18.9470   39.8220   16.6010 C.ar      1 PGJ2001     0.0000 
     11 C18        18.9530   38.8140   15.6490 C.ar      1 PGJ2001     0.0000 
     12 C19        18.9870   39.1840   14.3120 C.ar      1 PGJ2001     0.0000 
     13 N20        19.0150   40.4630   13.9340 N.ar      1 PGJ2001     0.0000 
     14 C21        18.9890   41.4940   14.8530 C.ar      1 PGJ2001     0.0000 
     15 N22        18.9450   41.0860   16.1780 N.ar      1 PGJ2001     0.0000 
     16 O23        18.9560   42.7830   14.4180 O.3       1 PGJ2001     0.0000 
     17 C24        18.2970   43.7360   15.1860 C.ar      1 PGJ2001     0.0000 
     18 C25        18.9840   44.8820   15.5540 C.ar      1 PGJ2001     0.0000 
     19 C26        18.3670   45.8610   16.3230 C.ar      1 PGJ2001     0.0000 
     20 C27        17.0540   45.6910   16.7280 C.ar      1 PGJ2001     0.0000 
     21 C28        16.3580   44.5390   16.3860 C.ar      1 PGJ2001     0.0000 
     22 C29        16.9650   43.5790   15.5880 C.ar      1 PGJ2001     0.0000 
     23 O34        16.2520   42.4510   15.2450 O.3       1 PGJ2001     0.0000 
     24 C35        20.3800   37.4220   18.2580 C.ar      1 PGJ2001     0.0000 
     25 C36        19.9630   36.1010   18.4570 C.ar      1 PGJ2001     0.0000 
     26 C37        20.7810   35.0530   18.0590 C.ar      1 PGJ2001     0.0000 
     27 C38        22.0190   35.3510   17.5050 C.ar      1 PGJ2001     0.0000 
     28 C39        22.4680   36.6480   17.3440 C.ar      1 PGJ2001     0.0000 
     29 C40        21.5920   37.6960   17.6380 C.ar      1 PGJ2001     0.0000 
     30 F45        22.8030   34.3150   17.1900 F         1 PGJ2001     0.0000 
     31 O47        19.1420   37.5410   20.8230 O.2       1 PGJ2001     0.0000 
     32 H          19.0660   41.9795   18.4218 H         1 PGJ2001     0.0000 
     33 H          18.9846   41.6201   20.1551 H         1 PGJ2001     0.0000 
     34 H          16.9455   44.0652   20.6172 H         1 PGJ2001     0.0000 
     35 H          17.1568   44.4843   18.9085 H         1 PGJ2001     0.0000 
     36 H          18.9332   37.8365   15.9208 H         1 PGJ2001     0.0000 
     37 H          18.9901   38.4162   13.5930 H         1 PGJ2001     0.0000 
     38 H          19.9648   45.0111   15.2543 H         1 PGJ2001     0.0000 
     39 H          18.8854   46.7077   16.5892 H         1 PGJ2001     0.0000 
     40 H          16.5885   46.4230   17.2869 H         1 PGJ2001     0.0000 
     41 H          15.3977   44.3981   16.7224 H         1 PGJ2001     0.0000 
     42 H          19.0552   35.9136   18.8959 H         1 PGJ2001     0.0000 
     43 H          20.4802   34.0859   18.1706 H         1 PGJ2001     0.0000 
     44 H          23.4126   36.8425   17.0195 H         1 PGJ2001     0.0000 
     45 H          21.8456   38.6586   17.3963 H         1 PGJ2001     0.0000 
     46 H          19.4956   43.7916   19.1137 H         1 PGJ2001     0.0000 
     47 H          19.1652   44.9434   20.1863 H         1 PGJ2001     0.0000 
     48 H          19.3033   43.4144   20.6651 H         1 PGJ2001     0.0000 
     49 H          15.6124   42.3096   16.0006 H         1 PGJ2001     0.0000 
@<TRIPOS>BOND
     1    2    1 1    
     2    5    1 2    
     3   10    1 1    
     4    3    2 1    
     5    6    2 1    
     6    4    3 1    
     7    5    4 1    
     8   31    4 2    
     9   24    5 1    
    10    7    6 1    
    11   32    6 1    
    12   33    6 1    
    13    8    7 1    
    14    9    8 1    
    15   34    8 1    
    16   35    8 1    
    17   46    9 1    
    18   47    9 1    
    19   48    9 1    
    20   11   10 ar   
    21   15   10 ar   
    22   12   11 ar   
    23   36   11 1    
    24   13   12 ar   
    25   37   12 1    
    26   14   13 ar   
    27   15   14 ar   
    28   16   14 1    
    29   17   16 1    
    30   18   17 ar   
    31   22   17 ar   
    32   19   18 ar   
    33   38   18 1    
    34   20   19 ar   
    35   39   19 1    
    36   21   20 ar   
    37   40   20 1    
    38   22   21 ar   
    39   41   21 1    
    40   23   22 1    
    41   49   23 1    
    42   25   24 ar   
    43   29   24 ar   
    44   26   25 ar   
    45   42   25 1    
    46   27   26 ar   
    47   43   26 1    
    48   28   27 ar   
    49   30   27 1    
    50   29   28 ar   
    51   44   28 1    
    52   45   29 1    
@<TRIPOS>SUBSTRUCTURE
     1 PGJ2001     1 GROUP   
@<TRIPOS>SET

