#    Name: 4f63_0S7_2_INTS_M
#    Modification time : Mon Mar 24 18:59:09 2014

@<TRIPOS>MOLECULE
4f63_0S7_2_INTS_M
   52     0     6     0     0
SMALL
NO_CHARGES


@<TRIPOS>ATOM
      1 CA         25.3065    1.1865   21.6275 C.3       2 GLC5        0.0000 
      2 CA         26.7880    1.7460   20.5030 C.3       6 GLL5        0.0000 
      3 CA         23.8250    0.6270   22.7520 C.3       4 GLP5        0.0000 
      4 CA         26.2865    1.2435   18.4915 C.3       2 GLC5        0.0000 
      5 CA         25.7850    0.7410   16.4800 C.3       4 GLP5        0.0000 
      6 CA         25.1910    1.8615   19.7020 C.3       2 GLC5        0.0000 
      7 CA         23.5940    1.9770   18.9010 C.3       4 GLP5        0.0000 
      8 CA         28.4410    0.6935   20.1810 C.3       2 GLC5        0.0000 
      9 CA         30.0940   -0.3590   19.8590 C.3       4 GLP5        0.0000 
     10 CA         27.0645    2.2090   23.4990 C.3       2 GLC5        0.0000 
     11 CA         28.0730    0.5280   22.4000 C.3       6 GLL5        0.0000 
     12 CA         26.0560    3.8900   24.5980 C.3       4 GLP5        0.0000 
     13 CA         27.0265   -0.2430   24.6635 C.3       2 GLC5        0.0000 
     14 CA         28.0700   -0.7410   22.9250 C.3       6 GLL5        0.0000 
     15 CA         25.9830    0.2550   26.4020 C.3       4 GLP5        0.0000 
     16 CA         28.3700   -2.4795   21.7615 C.3       2 GLC5        0.0000 
     17 CA         28.6700   -4.2180   20.5980 C.3       4 GLP5        0.0000 
     18 O          28.9145   -2.9725   23.6355 O.2       1 ALC1        0.0000 
     19 O          28.8220   -1.3060   23.9630 O.2       5 ALL1        0.0000 
     20 O          29.0070   -4.6390   23.3080 O.2       3 ALP1        0.0000 
     21 CA         29.3305    1.5035   26.3790 C.3       2 GLC5        0.0000 
     22 CA         31.0110    1.2120   25.2350 C.3       6 GLL5        0.0000 
     23 CA         27.6500    1.7950   27.5230 C.3       4 GLP5        0.0000 
     24 CA         32.1995    5.0605   17.3275 C.3       2 GLC5        0.0000 
     25 CA         32.3600    3.8550   19.1530 C.3       6 GLL5        0.0000 
     26 CA         32.0390    6.2660   15.5020 C.3       4 GLP5        0.0000 
     27 CA         28.8680   -1.9095   26.9960 C.3       2 GLC5        0.0000 
     28 CA         30.1910   -3.1560   25.8580 C.3       6 GLL5        0.0000 
     29 CA         27.5450   -0.6630   28.1340 C.3       4 GLP5        0.0000 
     30 CA         28.2000   -3.5270   25.7825 C.3       2 GLC5        0.0000 
     31 CA         26.2090   -3.8980   25.7070 C.3       4 GLP5        0.0000 
     32 CA         29.2695   -5.0690   25.2405 C.3       2 GLC5        0.0000 
     33 CA         28.3480   -6.9820   24.6230 C.3       4 GLP5        0.0000 
     34 CA         31.6970   -3.4830   24.7965 C.3       2 GLC5        0.0000 
     35 CA         33.2030   -3.8100   23.7350 C.3       4 GLP5        0.0000 
     36 CA         25.9482    0.2602   22.7073 C.3       2 GLC5        0.0000 
     37 CA         29.0828   -0.2328   21.2608 C.3       2 GLC5        0.0000 
     38 CA         28.9330    4.7462   23.5933 C.3       2 GLC5        0.0000 
     39 CA         30.4250    2.9000   23.6880 C.3       6 GLL5        0.0000 
     40 CA         27.2310    5.9230   23.7890 C.3       4 GLP5        0.0000 
     41 CA         32.6153    1.2287   20.4297 C.3       2 GLC5        0.0000 
     42 CA         32.4010    3.1130   21.4240 C.3       6 GLL5        0.0000 
     43 CA         32.5850   -0.6080   20.0870 C.3       4 GLP5        0.0000 
     44 CA         34.0670    2.7553   18.1725 C.3       2 GLC5        0.0000 
     45 CA         32.8900    3.0180   20.1210 C.3       6 GLL5        0.0000 
     46 CA         35.5090    2.0740   16.7080 C.3       4 GLP5        0.0000 
     47 CA         31.7480    2.6928   18.1265 C.3       2 GLC5        0.0000 
     48 CA         30.8710    1.9490   16.6160 C.3       4 GLP5        0.0000 
     49 CA         29.2049   -0.7540   26.9496 C.3       2 GLC5        0.0000 
     50 CA         29.8070   -0.6610   24.6970 C.3       6 GLL5        0.0000 
     51 CA         32.1283   -2.4115   24.8672 C.3       2 GLC5        0.0000 
     52 CA         30.5620   -1.3330   25.6340 C.3       6 GLL5        0.0000 
@<TRIPOS>BOND
@<TRIPOS>SUBSTRUCTURE
     1 ALC1       18 GROUP        1 X    ALC  0     ROOT ALC X 1
     2 GLC5        1 GROUP        1 X    GLC  0     **** GLC X 6
     3 ALP1       20 GROUP        1 Y    ALP  0     ROOT ALP Y 8
     4 GLP5        3 GROUP        1 Y    GLP  0     **** GLP Y 13
     5 ALL1       19 GROUP        1 Z    ALL  0     ROOT ALL Z 15
     6 GLL5        2 GROUP        1 Z    GLL  0     **** GLL Z 20
@<TRIPOS>SET

