#    Name: 4f63_0S7_2_ligand
#    Modification time : Mon Mar 24 18:59:09 2014

@<TRIPOS>MOLECULE
4f63_0S7_2_ligand
   39    41     1     0     0
SMALL
NO_CHARGES


@<TRIPOS>ATOM
      1 C1         26.7880    1.7460   20.5030 C.3       1 0S7801      0.0000 
      2 C2         27.1340    0.5700   21.3750 C.2       1 0S7801      0.0000 
      3 C3         28.0730    0.5280   22.4000 C.2       1 0S7801      0.0000 
      4 C4         28.0700   -0.7410   22.9250 C.2       1 0S7801      0.0000 
      5 N5         28.8220   -1.3060   23.9630 N.pl3     1 0S7801      0.0000 
      6 C6         29.8070   -0.6610   24.6970 C.ar      1 0S7801      0.0000 
      7 N7         30.0720    0.6030   24.5410 N.ar      1 0S7801      0.0000 
      8 C8         31.0110    1.2120   25.2350 C.ar      1 0S7801      0.0000 
      9 N9         31.1520    2.5460   24.9180 N.pl3     1 0S7801      0.0000 
     10 C10        30.4250    2.9000   23.6880 C.3       1 0S7801      0.0000 
     11 C11        30.8450    4.2390   23.1070 C.3       1 0S7801      0.0000 
     12 C12        31.3940    4.0500   21.7140 C.ar      1 0S7801      0.0000 
     13 C13        32.4010    3.1130   21.4240 C.ar      1 0S7801      0.0000 
     14 C14        32.8900    3.0180   20.1210 C.ar      1 0S7801      0.0000 
     15 C15        32.3600    3.8550   19.1530 C.ar      1 0S7801      0.0000 
     16 N16        31.4070    4.7240   19.4710 N.ar      1 0S7801      0.0000 
     17 C17        30.9100    4.8540   20.6950 C.ar      1 0S7801      0.0000 
     18 N18        31.7490    0.5890   26.1430 N.ar      1 0S7801      0.0000 
     19 C19        31.5450   -0.6930   26.3650 C.ar      1 0S7801      0.0000 
     20 C20        30.5620   -1.3330   25.6340 C.ar      1 0S7801      0.0000 
     21 BR1        30.1910   -3.1560   25.8580 Br        1 0S7801      0.0000 
     22 N22        27.1490   -1.4320   22.2530 N.pl3     1 0S7801      0.0000 
     23 N24        26.5890   -0.6160   21.2940 N.2       1 0S7801      0.0000 
     24 H          28.6162    1.2552   22.6802 H         1 0S7801      0.0000 
     25 H          28.6146   -2.3255   24.2076 H         1 0S7801      0.0000 
     26 H          31.6527    3.2045   25.4079 H         1 0S7801      0.0000 
     27 H          29.3365    2.9325   23.8843 H         1 0S7801      0.0000 
     28 H          30.5800    2.1224   22.9162 H         1 0S7801      0.0000 
     29 H          31.6080    4.6832   23.7439 H         1 0S7801      0.0000 
     30 H          29.9824    4.9022   23.0735 H         1 0S7801      0.0000 
     31 H          32.7670    2.5112   22.1618 H         1 0S7801      0.0000 
     32 H          33.6203    2.3468   19.8912 H         1 0S7801      0.0000 
     33 H          32.7265    3.7832   18.1813 H         1 0S7801      0.0000 
     34 H          30.1671    5.5421   20.9130 H         1 0S7801      0.0000 
     35 H          32.0861   -1.2308   27.0568 H         1 0S7801      0.0000 
     36 H          26.8966   -2.3544   22.3951 H         1 0S7801      0.0000 
     37 H          27.5804    2.0720   19.9874 H         1 0S7801      0.0000 
     38 H          26.0782    1.5180   19.8365 H         1 0S7801      0.0000 
     39 H          26.4491    2.5190   21.0393 H         1 0S7801      0.0000 
@<TRIPOS>BOND
     1    2    1 1    
     2   37    1 1    
     3   38    1 1    
     4   39    1 1    
     5    3    2 1    
     6   23    2 2    
     7    4    3 2    
     8   24    3 1    
     9    5    4 1    
    10   22    4 1    
    11    6    5 1    
    12   25    5 1    
    13    7    6 ar   
    14   20    6 ar   
    15    8    7 ar   
    16    9    8 1    
    17   18    8 ar   
    18   10    9 1    
    19   26    9 1    
    20   11   10 1    
    21   27   10 1    
    22   28   10 1    
    23   12   11 1    
    24   29   11 1    
    25   30   11 1    
    26   13   12 ar   
    27   17   12 ar   
    28   14   13 ar   
    29   31   13 1    
    30   15   14 ar   
    31   32   14 1    
    32   16   15 ar   
    33   33   15 1    
    34   17   16 ar   
    35   34   17 1    
    36   19   18 ar   
    37   20   19 ar   
    38   35   19 1    
    39   21   20 1    
    40   23   22 1    
    41   36   22 1    
@<TRIPOS>SUBSTRUCTURE
     1 0S7801      1 GROUP   
@<TRIPOS>SET

