#    Name: 4d9f_DCS_7_INTS_M
#    Modification time : Tue Mar 25 09:28:37 2014

@<TRIPOS>MOLECULE
4d9f_DCS_7_INTS_M
   64     0     9     0     0
SMALL
NO_CHARGES


@<TRIPOS>ATOM
      1 N          -1.9415   87.7710   18.0140 N.am      1 SEC2        0.0000 
      2 N          -2.8860   86.8220   18.2670 N.am      7 SEL2        0.0000 
      3 N          -0.9970   88.7200   17.7610 N.am      4 SEP2        0.0000 
      4 CA         -2.8420   84.2800   17.0545 C.3       3 GLC5        0.0000 
      5 CA         -1.2620   85.0440   17.7030 C.3       9 GLL5        0.0000 
      6 CA         -4.4220   83.5160   16.4060 C.3       6 GLP5        0.0000 
      7 CA          0.7000   85.1950   17.3930 C.3       3 GLC5        0.0000 
      8 CA          2.6620   85.3460   17.0830 C.3       6 GLP5        0.0000 
      9 CA         -0.3110   83.7860   16.6220 C.3       3 GLC5        0.0000 
     10 CA          0.6400   82.5280   15.5410 C.3       6 GLP5        0.0000 
     11 N          -2.2590   82.4375   18.6830 N.am      1 SEC2        0.0000 
     12 N          -2.6830   83.4270   19.7080 N.am      7 SEL2        0.0000 
     13 N          -1.8350   81.4480   17.6580 N.am      4 SEP2        0.0000 
     14 CA         -5.8010   84.2875   19.5940 C.3       3 GLC5        0.0000 
     15 CA         -4.9790   84.3570   21.2520 C.3       9 GLL5        0.0000 
     16 CA         -6.6230   84.2180   17.9360 C.3       6 GLP5        0.0000 
     17 CA         -4.5410   88.7220   17.7660 C.3       3 GLC5        0.0000 
     18 CA         -3.9310   87.3520   18.9230 C.3       9 GLL5        0.0000 
     19 CA         -5.1510   90.0920   16.6090 C.3       6 GLP5        0.0000 
     20 CA         -4.0910   86.5965   17.1810 C.3       3 GLC5        0.0000 
     21 CA         -4.2510   85.8410   15.4390 C.3       6 GLP5        0.0000 
     22 CA         -2.0645   88.0685   18.9370 C.3       3 GLC5        0.0000 
     23 CA         -0.1980   88.7850   18.9510 C.3       6 GLP5        0.0000 
     24 CA         -7.6985   87.6135   20.4565 C.3       3 GLC5        0.0000 
     25 CA         -5.8130   87.3920   20.5240 C.3       9 GLL5        0.0000 
     26 CA         -9.5840   87.8350   20.3890 C.3       6 GLP5        0.0000 
     27 CA         -5.9160   86.2735   18.8180 C.3       3 GLC5        0.0000 
     28 CA         -6.0190   85.1550   17.1120 C.3       6 GLP5        0.0000 
     29 NZ         -5.3770   87.4545   24.6815 N.4       2 LYC4        0.0000 
     30 NZ         -6.4740   86.7580   23.2610 N.4       8 LYL4        0.0000 
     31 NZ         -4.2800   88.1510   26.1020 N.4       5 LYP4        0.0000 
     32 N          -8.0165   86.9450   22.9845 N.am      1 SEC2        0.0000 
     33 N          -6.4740   86.7580   23.2610 N.am      7 SEL2        0.0000 
     34 N          -9.5590   87.1320   22.7080 N.am      4 SEP2        0.0000 
     35 N          -7.2670   86.4375   24.1720 N.am      1 SEC2        0.0000 
     36 N          -8.0600   86.1170   25.0830 N.am      4 SEP2        0.0000 
     37 NZ         -4.7690   88.5065   25.0345 N.4       2 LYC4        0.0000 
     38 NZ         -5.2580   88.8620   23.9670 N.4       8 LYL4        0.0000 
     39 N          -4.7690   88.5065   25.0345 N.am      1 SEC2        0.0000 
     40 N          -5.2580   88.8620   23.9670 N.am      7 SEL2        0.0000 
     41 N          -4.2800   88.1510   26.1020 N.am      4 SEP2        0.0000 
     42 N          -5.0745   90.0480   24.7030 N.am      1 SEC2        0.0000 
     43 N          -4.8910   91.2340   25.4390 N.am      4 SEP2        0.0000 
     44 N          -4.0040   89.4570   23.9295 N.am      1 SEC2        0.0000 
     45 N          -2.7500   90.0520   23.8920 N.am      4 SEP2        0.0000 
     46 N          -8.1660   89.0860   21.4040 N.am      1 SEC2        0.0000 
     47 N          -7.3920   89.0410   22.6120 N.am      7 SEL2        0.0000 
     48 N          -8.9400   89.1310   20.1960 N.am      4 SEP2        0.0000 
     49 N          -8.3675   89.1695   23.4340 N.am      1 SEC2        0.0000 
     50 N          -9.3430   89.2980   24.2560 N.am      4 SEP2        0.0000 
     51 CA         -9.1830   85.9925   20.6890 C.3       3 GLC5        0.0000 
     52 CA         -8.7820   84.1500   20.9890 C.3       9 GLL5        0.0000 
     53 CA         -9.1030   84.9990   22.9080 C.3       3 GLC5        0.0000 
     54 CA         -9.4240   85.8480   24.8270 C.3       6 GLP5        0.0000 
     55 CA         -9.2325   83.1385   19.1570 C.3       3 GLC5        0.0000 
     56 CA         -9.6830   82.1270   17.3250 C.3       6 GLP5        0.0000 
     57 CA         -3.5160   85.4850   17.2120 C.3       3 GLC5        0.0000 
     58 CA         -3.1210   84.6960   19.4850 C.3       9 GLL5        0.0000 
     59 CA         -1.0248   87.0440   18.5225 C.3       3 GLC5        0.0000 
     60 CA         -2.4410   85.5620   18.4850 C.3       9 GLL5        0.0000 
     61 CA         -3.7411   84.7741   22.2193 C.3       3 GLC5        0.0000 
     62 CA         -3.1410   84.8840   23.8850 C.3       6 GLP5        0.0000 
     63 CA         -7.3525   84.0420   19.5182 C.3       3 GLC5        0.0000 
     64 CA         -7.3820   83.5820   21.2120 C.3       9 GLL5        0.0000 
@<TRIPOS>BOND
@<TRIPOS>SUBSTRUCTURE
     1 SEC2        1 GROUP        1 X    SEC  0     ROOT SEC X 2
     2 LYC4       29 GROUP        1 X    LYC  0     **** LYC X 4
     3 GLC5        4 GROUP        1 X    GLC  0     **** GLC X 6
     4 SEP2        3 GROUP        1 Y    SEP  0     ROOT SEP Y 9
     5 LYP4       31 GROUP        1 Y    LYP  0     **** LYP Y 11
     6 GLP5        6 GROUP        1 Y    GLP  0     **** GLP Y 13
     7 SEL2        2 GROUP        1 Z    SEL  0     ROOT SEL Z 16
     8 LYL4       30 GROUP        1 Z    LYL  0     **** LYL Z 18
     9 GLL5        5 GROUP        1 Z    GLL  0     **** GLL Z 20
@<TRIPOS>SET

