#    Name: 4d9f_DCS_7_ligand
#    Modification time : Tue Mar 25 09:28:37 2014

@<TRIPOS>MOLECULE
4d9f_DCS_7_ligand
   35    36     1     0     0
SMALL
NO_CHARGES


@<TRIPOS>ATOM
      1 N1         -2.8860   86.8220   18.2670 N.ar      1 DCS402      0.0000 
      2 C2         -2.4410   85.5620   18.4850 C.ar      1 DCS402      0.0000 
      3 C2A        -1.2620   85.0440   17.7030 C.3       1 DCS402      0.0000 
      4 C3         -3.1210   84.6960   19.4850 C.ar      1 DCS402      0.0000 
      5 O3         -2.6830   83.4270   19.7080 O.3       1 DCS402      0.0000 
      6 C4         -4.2860   85.2470   20.2250 C.ar      1 DCS402      0.0000 
      7 C4A        -4.9790   84.3570   21.2520 C.3       1 DCS402      0.0000 
      8 C5         -4.6620   86.6570   19.8850 C.ar      1 DCS402      0.0000 
      9 C6         -3.9310   87.3520   18.9230 C.ar      1 DCS402      0.0000 
     10 C5A        -5.8130   87.3920   20.5240 C.3       1 DCS402      0.0000 
     11 O4P        -5.3360   88.1780   21.6130 O.3       1 DCS402      0.0000 
     12 P          -6.1840   88.2120   22.9740 P.3       1 DCS402      0.0000 
     13 O1P        -6.4740   86.7580   23.2610 O.co2     1 DCS402      0.0000 
     14 O2P        -5.2580   88.8620   23.9670 O.co2     1 DCS402      0.0000 
     15 O3P        -7.3920   89.0410   22.6120 O.co2     1 DCS402      0.0000 
     16 N          -6.3960   84.6200   21.4710 N.4       1 DCS402      0.0000 
     17 CA         -7.3820   83.5820   21.2120 C.3       1 DCS402      0.0000 
     18 C          -7.5930   82.5930   22.3190 C.2       1 DCS402      0.0000 
     19 O          -6.6930   81.9880   22.8770 O.2       1 DCS402      0.0000 
     20 ND         -8.8910   82.4730   22.5730 N.am      1 DCS402      0.0000 
     21 OG         -9.5910   83.4260   21.9300 O.3       1 DCS402      0.0000 
     22 CB         -8.7820   84.1500   20.9890 C.3       1 DCS402      0.0000 
     23 H          -4.4150   84.4492   22.2145 H         1 DCS402      0.0000 
     24 H          -4.8271   83.2941   20.9355 H         1 DCS402      0.0000 
     25 H          -4.2312   88.3455   18.7143 H         1 DCS402      0.0000 
     26 H          -6.5520   86.6502   20.8556 H         1 DCS402      0.0000 
     27 H          -6.2908   88.0151   19.7561 H         1 DCS402      0.0000 
     28 H          -7.1422   83.0158   20.3077 H         1 DCS402      0.0000 
     29 H          -9.2954   81.7853   23.1505 H         1 DCS402      0.0000 
     30 H          -9.0688   83.9552   19.9764 H         1 DCS402      0.0000 
     31 H          -8.7590   85.1991   21.1998 H         1 DCS402      0.0000 
     32 H          -0.4437   85.5987   17.8537 H         1 DCS402      0.0000 
     33 H          -1.0307   84.1052   17.9581 H         1 DCS402      0.0000 
     34 H          -1.4397   85.0450   16.7189 H         1 DCS402      0.0000 
     35 H          -1.9858   83.5153   20.4194 H         1 DCS402      0.0000 
@<TRIPOS>BOND
     1    2    1 ar   
     2    9    1 ar   
     3    3    2 1    
     4    4    2 ar   
     5   32    3 1    
     6   33    3 1    
     7   34    3 1    
     8    5    4 1    
     9    6    4 ar   
    10   35    5 1    
    11    7    6 1    
    12    8    6 ar   
    13   16    7 1    
    14   23    7 1    
    15   24    7 1    
    16    9    8 ar   
    17   10    8 1    
    18   25    9 1    
    19   11   10 1    
    20   26   10 1    
    21   27   10 1    
    22   12   11 1    
    23   13   12 ar   
    24   14   12 ar   
    25   15   12 ar   
    26   17   16 1    
    27   18   17 1    
    28   22   17 1    
    29   28   17 1    
    30   19   18 2    
    31   20   18 am   
    32   21   20 1    
    33   29   20 1    
    34   22   21 1    
    35   30   22 1    
    36   31   22 1    
@<TRIPOS>SUBSTRUCTURE
     1 DCS402      1 GROUP   
@<TRIPOS>SET

