#    Name: 4kh0_ATP_4_INTS_M
#    Modification time : Tue Mar 25 07:53:15 2014

@<TRIPOS>MOLECULE
4kh0_ATP_4_INTS_M
   64     0    12     0     0
SMALL
NO_CHARGES


@<TRIPOS>ATOM
      1 NZ          8.1995   73.8765   32.3570 N.4       2 LYC4        0.0000 
      2 NZ          7.0910   73.2990   32.0840 N.4      10 LYL4        0.0000 
      3 NZ          9.3080   74.4540   32.6300 N.4       6 LYP4        0.0000 
      4 N           6.7880   72.2515   32.9700 N.am      1 SEC2        0.0000 
      5 N           7.0910   73.2990   32.0840 N.am      9 SEL2        0.0000 
      6 N           6.4850   71.2040   33.8560 N.am      5 SEP2        0.0000 
      7 N           8.1995   73.8765   32.3570 N.am      1 SEC2        0.0000 
      8 N           9.3080   74.4540   32.6300 N.am      5 SEP2        0.0000 
      9 N           4.0520   71.4990   32.1525 N.am      1 SEC2        0.0000 
     10 N           4.7300   72.5570   31.5670 N.am      9 SEL2        0.0000 
     11 N           3.3740   70.4410   32.7380 N.am      5 SEP2        0.0000 
     12 Zn          5.9905   74.9050   29.5270 Zn        3 ZIC7        0.0000 
     13 Zn          5.8970   74.2210   30.0610 Zn       11 ZIL7        0.0000 
     14 Zn          6.0840   75.5890   28.9930 Zn        7 ZIP7        0.0000 
     15 N           6.8340   73.2195   29.6535 N.am      1 SEC2        0.0000 
     16 N           5.8970   74.2210   30.0610 N.am      9 SEL2        0.0000 
     17 N           7.7710   72.2180   29.2460 N.am      5 SEP2        0.0000 
     18 NZ          6.2920   77.8950   30.0785 N.4       2 LYC4        0.0000 
     19 NZ          6.0330   76.6080   30.7400 N.4      10 LYL4        0.0000 
     20 NZ          6.5510   79.1820   29.4170 N.4       6 LYP4        0.0000 
     21 Zn          6.0585   76.0985   29.8665 Zn        3 ZIC7        0.0000 
     22 Zn          6.0330   76.6080   30.7400 Zn       11 ZIL7        0.0000 
     23 NZ          7.1335   79.0185   30.7515 N.4       2 LYC4        0.0000 
     24 NZ          7.7160   78.8550   32.0860 N.4      10 LYL4        0.0000 
     25 N           7.1335   79.0185   30.7515 N.am      1 SEC2        0.0000 
     26 N           7.7160   78.8550   32.0860 N.am      9 SEL2        0.0000 
     27 N           6.5510   79.1820   29.4170 N.am      5 SEP2        0.0000 
     28 NZ          9.0855   75.4970   32.5010 N.4       2 LYC4        0.0000 
     29 NZ          8.8630   76.5400   32.3720 N.4      10 LYL4        0.0000 
     30 N           9.0855   75.4970   32.5010 N.am      1 SEC2        0.0000 
     31 N           8.8630   76.5400   32.3720 N.am      9 SEL2        0.0000 
     32 CA          9.1875   75.4545   34.6490 C.3       4 GLC5        0.0000 
     33 CA          8.5080   77.0050   35.3970 C.3      12 GLL5        0.0000 
     34 CA          9.8670   73.9040   33.9010 C.3       8 GLP5        0.0000 
     35 CA         10.2755   76.0410   37.4155 C.3       4 GLC5        0.0000 
     36 CA          9.2600   77.5600   36.6020 C.3      12 GLL5        0.0000 
     37 CA         11.2910   74.5220   38.2290 C.3       8 GLP5        0.0000 
     38 CA          8.8235   76.3550   38.4300 C.3       4 GLC5        0.0000 
     39 CA          8.3870   75.1500   40.2580 C.3       8 GLP5        0.0000 
     40 CA         12.0060   77.4035   36.9090 C.3       4 GLC5        0.0000 
     41 CA         11.0300   79.0400   36.9430 C.3      12 GLL5        0.0000 
     42 CA         12.9820   75.7670   36.8750 C.3       8 GLP5        0.0000 
     43 CA         15.1705   83.0010   36.0775 C.3       4 GLC5        0.0000 
     44 CA         15.4890   80.8860   35.6380 C.3      12 GLL5        0.0000 
     45 CA         14.8520   85.1160   36.5170 C.3       8 GLP5        0.0000 
     46 CA         17.2985   80.7935   35.5685 C.3       4 GLC5        0.0000 
     47 CA         19.1080   80.7010   35.4990 C.3       8 GLP5        0.0000 
     48 CA         17.2890   80.0995   36.5235 C.3       4 GLC5        0.0000 
     49 CA         15.4700   79.4980   37.5480 C.3      12 GLL5        0.0000 
     50 CA         16.0630   77.6295   37.7795 C.3       4 GLC5        0.0000 
     51 CA         16.6560   75.7610   38.0110 C.3       8 GLP5        0.0000 
     52 CA         14.5315   80.5450   39.1395 C.3       4 GLC5        0.0000 
     53 CA         13.5930   81.5920   40.7310 C.3       8 GLP5        0.0000 
     54 CA         15.8725   79.2680   39.2840 C.3       4 GLC5        0.0000 
     55 CA         16.2750   79.0380   41.0200 C.3       8 GLP5        0.0000 
     56 CA         13.1810   77.7940   36.6995 C.3       4 GLC5        0.0000 
     57 CA         13.3800   79.8210   36.5240 C.3      12 GLL5        0.0000 
     58 CA         13.4330   81.2310   38.0795 C.3       4 GLC5        0.0000 
     59 CA         13.4860   82.6410   39.6350 C.3       8 GLP5        0.0000 
     60 CA         13.8085   78.7105   34.6617 C.3       4 GLC5        0.0000 
     61 CA         13.9130   77.1720   33.3030 C.3       8 GLP5        0.0000 
     62 CA         15.0987   80.3893   33.5757 C.3       4 GLC5        0.0000 
     63 CA         14.0280   80.6770   35.5170 C.3      12 GLL5        0.0000 
     64 CA         15.4390   79.9970   31.5740 C.3       8 GLP5        0.0000 
@<TRIPOS>BOND
@<TRIPOS>SUBSTRUCTURE
     1 SEC2        4 GROUP        1 X    SEC  0     ROOT SEC X 2
     2 LYC4        1 GROUP        1 X    LYC  0     **** LYC X 4
     3 ZIC7       12 GROUP        1 X    ZIC  0     **** ZIC X 5
     4 GLC5       32 GROUP        1 X    GLC  0     **** GLC X 6
     5 SEP2        6 GROUP        1 Y    SEP  0     ROOT SEP Y 9
     6 LYP4        3 GROUP        1 Y    LYP  0     **** LYP Y 11
     7 ZIP7       14 GROUP        1 Y    ZIP  0     **** ZIP Y 12
     8 GLP5       34 GROUP        1 Y    GLP  0     **** GLP Y 13
     9 SEL2        5 GROUP        1 Z    SEL  0     ROOT SEL Z 16
    10 LYL4        2 GROUP        1 Z    LYL  0     **** LYL Z 18
    11 ZIL7       13 GROUP        1 Z    ZIL  0     **** ZIL Z 19
    12 GLL5       33 GROUP        1 Z    GLL  0     **** GLL Z 20
@<TRIPOS>SET

