#    Name: 4kh0_ATP_4_ligand
#    Modification time : Tue Mar 25 07:53:15 2014

@<TRIPOS>MOLECULE
4kh0_ATP_4_ligand
   43    45     1     0     0
SMALL
NO_CHARGES


@<TRIPOS>ATOM
      1 PG          5.7680   73.6490   31.4540 P.3       1 ATP203      0.0000 
      2 O1G         7.0910   73.2990   32.0840 O.co2     1 ATP203      0.0000 
      3 O2G         4.7300   72.5570   31.5670 O.co2     1 ATP203      0.0000 
      4 O3G         5.8970   74.2210   30.0610 O.co2     1 ATP203      0.0000 
      5 PB          5.4460   76.4180   32.1170 P.3       1 ATP203      0.0000 
      6 O1B         6.0330   76.6080   30.7400 O.co2     1 ATP203      0.0000 
      7 O2B         4.1410   77.1040   32.4620 O.co2     1 ATP203      0.0000 
      8 O3B         5.2190   74.8410   32.4030 O.3       1 ATP203      0.0000 
      9 PA          7.9260   77.6000   32.8970 P.3       1 ATP203      0.0000 
     10 O1A         7.7160   78.8550   32.0860 O.co2     1 ATP203      0.0000 
     11 O2A         8.8630   76.5400   32.3720 O.co2     1 ATP203      0.0000 
     12 O3A         6.5170   76.8800   33.2300 O.3       1 ATP203      0.0000 
     13 O5'         8.4000   78.0030   34.3830 O.3       1 ATP203      0.0000 
     14 C5'         8.5080   77.0050   35.3970 C.3       1 ATP203      0.0000 
     15 C4'         9.2600   77.5600   36.6020 C.3       1 ATP203      0.0000 
     16 O4'        10.6100   77.8660   36.2400 O.3       1 ATP203      0.0000 
     17 C3'         8.6440   78.8460   37.1410 C.3       1 ATP203      0.0000 
     18 O3'         8.1790   78.6190   38.4750 O.3       1 ATP203      0.0000 
     19 C2'         9.7680   79.8700   37.1350 C.3       1 ATP203      0.0000 
     20 O2'         9.8100   80.6170   38.3550 O.3       1 ATP203      0.0000 
     21 C1'        11.0300   79.0400   36.9430 C.3       1 ATP203      0.0000 
     22 N9         12.0820   79.7840   36.1990 N.pl3     1 ATP203      0.0000 
     23 C8         11.8940   80.5470   35.1060 C.2       1 ATP203      0.0000 
     24 N7         13.0620   81.0910   34.6770 N.2       1 ATP203      0.0000 
     25 C5         14.0280   80.6770   35.5170 C.ar      1 ATP203      0.0000 
     26 C6         15.4890   80.8860   35.6380 C.ar      1 ATP203      0.0000 
     27 N6         16.1510   81.6660   34.7480 N.pl3     1 ATP203      0.0000 
     28 N1         16.1260   80.2730   36.6630 N.ar      1 ATP203      0.0000 
     29 C2         15.4700   79.4980   37.5480 C.ar      1 ATP203      0.0000 
     30 N3         14.1450   79.2660   37.4980 N.ar      1 ATP203      0.0000 
     31 C4         13.3800   79.8210   36.5240 C.ar      1 ATP203      0.0000 
     32 H           9.0527   76.1206   35.0404 H         1 ATP203      0.0000 
     33 H           7.5214   76.6692   35.7433 H         1 ATP203      0.0000 
     34 H           9.2431   76.8234   37.3939 H         1 ATP203      0.0000 
     35 H           7.8835   79.1605   36.4800 H         1 ATP203      0.0000 
     36 H           9.6467   80.4877   36.2691 H         1 ATP203      0.0000 
     37 H          11.3912   78.7723   37.9284 H         1 ATP203      0.0000 
     38 H          11.0255   80.6954   34.6696 H         1 ATP203      0.0000 
     39 H          15.5997   82.0592   34.0121 H         1 ATP203      0.0000 
     40 H          17.1319   81.7790   34.9063 H         1 ATP203      0.0000 
     41 H          16.0327   79.0423   38.3330 H         1 ATP203      0.0000 
     42 H           8.7467   79.2077   39.0505 H         1 ATP203      0.0000 
     43 H           9.7612   81.5753   38.0734 H         1 ATP203      0.0000 
@<TRIPOS>BOND
     1    2    1 ar   
     2    3    1 ar   
     3    4    1 ar   
     4    8    1 1    
     5    6    5 ar   
     6    7    5 ar   
     7    8    5 1    
     8   12    5 1    
     9   10    9 ar   
    10   11    9 ar   
    11   12    9 1    
    12   13    9 1    
    13   14   13 1    
    14   15   14 1    
    15   32   14 1    
    16   33   14 1    
    17   16   15 1    
    18   17   15 1    
    19   34   15 1    
    20   21   16 1    
    21   18   17 1    
    22   19   17 1    
    23   35   17 1    
    24   42   18 1    
    25   20   19 1    
    26   21   19 1    
    27   36   19 1    
    28   43   20 1    
    29   22   21 1    
    30   37   21 1    
    31   23   22 1    
    32   31   22 1    
    33   24   23 2    
    34   38   23 1    
    35   25   24 1    
    36   26   25 ar   
    37   31   25 ar   
    38   27   26 1    
    39   28   26 ar   
    40   39   27 1    
    41   40   27 1    
    42   29   28 ar   
    43   30   29 ar   
    44   41   29 1    
    45   31   30 ar   
@<TRIPOS>SUBSTRUCTURE
     1 ATP203      1 GROUP   
@<TRIPOS>SET

