#    Name: 1y5r_C0R_2_INTS_M
#    Modification time : Tue Mar 25 10:49:21 2014

@<TRIPOS>MOLECULE
1y5r_C0R_2_INTS_M
   61     0     9     0     0
SMALL
NO_CHARGES


@<TRIPOS>ATOM
      1 CA         61.2660   57.3495   15.0500 C.3       3 GLC5        0.0000 
      2 CA         61.9770   55.5500   14.5800 C.3       9 GLL5        0.0000 
      3 CA         60.5550   59.1490   15.5200 C.3       6 GLP5        0.0000 
      4 CA         60.2595   53.0695   15.7875 C.3       3 GLC5        0.0000 
      5 CA         61.4520   54.1490   14.8100 C.3       9 GLL5        0.0000 
      6 CA         59.0670   51.9900   16.7650 C.3       6 GLP5        0.0000 
      7 CA         59.4040   54.7395   15.4960 C.3       3 GLC5        0.0000 
      8 CA         57.3560   55.3300   16.1820 C.3       6 GLP5        0.0000 
      9 CA         66.9035   55.4730   10.7850 C.3       3 GLC5        0.0000 
     10 CA         64.9440   55.9420   11.4330 C.3       9 GLL5        0.0000 
     11 CA         68.8630   55.0040   10.1370 C.3       6 GLP5        0.0000 
     12 CA         62.0365   56.9410   11.9410 C.3       3 GLC5        0.0000 
     13 CA         63.7020   56.8940   13.4020 C.3       9 GLL5        0.0000 
     14 CA         60.3710   56.9880   10.4800 C.3       6 GLP5        0.0000 
     15 CA         64.9750   58.5480   16.0980 C.3       3 GLC5        0.0000 
     16 CA         63.6000   57.9970   14.4950 C.3       9 GLL5        0.0000 
     17 CA         66.3500   59.0990   17.7010 C.3       6 GLP5        0.0000 
     18 CA         62.8800   60.1510   12.0455 C.3       3 GLC5        0.0000 
     19 CA         63.8990   59.3730   13.8750 C.3       9 GLL5        0.0000 
     20 CA         61.8610   60.9290   10.2160 C.3       6 GLP5        0.0000 
     21 CA         62.3705   59.9000   14.4450 C.3       3 GLC5        0.0000 
     22 CA         60.8420   60.4270   15.0150 C.3       6 GLP5        0.0000 
     23 CA         67.4435   57.7365    9.9180 C.3       3 GLC5        0.0000 
     24 CA         66.3980   58.6040   11.2910 C.3       9 GLL5        0.0000 
     25 CA         68.4890   56.8690    8.5450 C.3       6 GLP5        0.0000 
     26 CA         65.6775   62.7605   11.4150 C.3       3 GLC5        0.0000 
     27 CA         65.6090   60.6930   12.2830 C.3       9 GLL5        0.0000 
     28 CA         65.7460   64.8280   10.5470 C.3       6 GLP5        0.0000 
     29 CA         66.4190   59.2050   15.9505 C.3       3 GLC5        0.0000 
     30 CA         66.4880   59.3110   14.2000 C.3       9 GLL5        0.0000 
     31 CA         65.0490   54.3180   16.6050 C.3       3 GLC5        0.0000 
     32 CA         64.3250   54.9010   14.9790 C.3       9 GLL5        0.0000 
     33 CA         65.7730   53.7350   18.2310 C.3       6 GLP5        0.0000 
     34 CA         66.1125   54.4865   15.0230 C.3       3 GLC5        0.0000 
     35 CA         67.9000   54.0720   15.0670 C.3       6 GLP5        0.0000 
     36 CA         65.6910   63.3140   15.0900 C.3       3 GLC5        0.0000 
     37 CA         65.0110   62.8110   13.6450 C.3       9 GLL5        0.0000 
     38 CA         66.3710   63.8170   16.5350 C.3       6 GLP5        0.0000 
     39 CA         65.3785   63.8195   12.0960 C.3       3 GLC5        0.0000 
     40 CA         63.2035   62.1010   14.7610 C.3       3 GLC5        0.0000 
     41 CA         61.3960   61.3910   15.8770 C.3       6 GLP5        0.0000 
     42 N          63.7005   56.9385   16.8035 N.am      2 SEC2        0.0000 
     43 N          64.3800   57.7770   15.5450 N.am      8 SEL2        0.0000 
     44 N          63.0210   56.1000   18.0620 N.am      5 SEP2        0.0000 
     45 O          62.6060   63.6230   13.4055 O.2       1 ALC1        0.0000 
     46 O          63.8070   62.7940   13.0920 O.2       7 ALL1        0.0000 
     47 O          61.4050   64.4520   13.7190 O.2       4 ALP1        0.0000 
     48 CA         60.0302   55.6773   13.6850 C.3       3 GLC5        0.0000 
     49 CA         58.3460   56.5050   12.6750 C.3       6 GLP5        0.0000 
     50 CA         64.7117   56.0175    9.9112 C.3       3 GLC5        0.0000 
     51 CA         64.6730   54.5060   11.8440 C.3       9 GLL5        0.0000 
     52 CA         64.6150   56.8110    8.1840 C.3       6 GLP5        0.0000 
     53 CA         65.3178   53.7965   10.2748 C.3       3 GLC5        0.0000 
     54 CA         65.8270   52.3690    8.9110 C.3       6 GLP5        0.0000 
     55 CA         62.1030   58.2973   14.7342 C.3       3 GLC5        0.0000 
     56 CA         67.5938   59.8050    9.7692 C.3       3 GLC5        0.0000 
     57 CA         68.6320   60.2810    8.1770 C.3       6 GLP5        0.0000 
     58 CA         65.1816   57.4624   10.0092 C.3       3 GLC5        0.0000 
     59 CA         64.5915   60.8783   10.6032 C.3       3 GLC5        0.0000 
     60 CA         66.7130   60.0540   11.4320 C.3       9 GLL5        0.0000 
     61 CA         63.0220   61.3830    9.3490 C.3       6 GLP5        0.0000 
@<TRIPOS>BOND
@<TRIPOS>SUBSTRUCTURE
     1 ALC1       45 GROUP        1 X    ALC  0     ROOT ALC X 1
     2 SEC2       42 GROUP        1 X    SEC  0     **** SEC X 2
     3 GLC5        1 GROUP        1 X    GLC  0     **** GLC X 6
     4 ALP1       47 GROUP        1 Y    ALP  0     ROOT ALP Y 8
     5 SEP2       44 GROUP        1 Y    SEP  0     **** SEP Y 9
     6 GLP5        3 GROUP        1 Y    GLP  0     **** GLP Y 13
     7 ALL1       46 GROUP        1 Z    ALL  0     ROOT ALL Z 15
     8 SEL2       43 GROUP        1 Z    SEL  0     **** SEL Z 16
     9 GLL5        2 GROUP        1 Z    GLL  0     **** GLL Z 20
@<TRIPOS>SET

