#    Name: 1y5r_C0R_2_ligand
#    Modification time : Tue Mar 25 10:49:21 2014

@<TRIPOS>MOLECULE
1y5r_C0R_2_ligand
   55    58     1     0     0
SMALL
NO_CHARGES


@<TRIPOS>ATOM
      1 C1         61.9770   55.5500   14.5800 C.3       1 C0R12       0.0000 
      2 C2         61.4520   54.1490   14.8100 C.3       1 C0R12       0.0000 
      3 C3         61.2800   53.5030   13.4440 C.2       1 C0R12       0.0000 
      4 C4         62.3880   53.5070   12.5040 C.2       1 C0R12       0.0000 
      5 C5         63.4720   54.4450   12.7650 C.2       1 C0R12       0.0000 
      6 C6         64.6730   54.5060   11.8440 C.3       1 C0R12       0.0000 
      7 C7         64.9440   55.9420   11.4330 C.3       1 C0R12       0.0000 
      8 C8         65.0390   56.8950   12.6200 C.3       1 C0R12       0.0000 
      9 C9         63.7020   56.8940   13.4020 C.3       1 C0R12       0.0000 
     10 C10        63.3640   55.4410   13.9170 C.3       1 C0R12       0.0000 
     11 C11        63.6000   57.9970   14.4950 C.3       1 C0R12       0.0000 
     12 C12        63.8990   59.3730   13.8750 C.3       1 C0R12       0.0000 
     13 C13        65.2830   59.4750   13.2170 C.3       1 C0R12       0.0000 
     14 C14        65.1580   58.3520   12.1360 C.3       1 C0R12       0.0000 
     15 C15        66.3980   58.6040   11.2910 C.3       1 C0R12       0.0000 
     16 C16        66.7130   60.0540   11.4320 C.3       1 C0R12       0.0000 
     17 C17        65.6090   60.6930   12.2830 C.3       1 C0R12       0.0000 
     18 C18        66.4880   59.3110   14.2000 C.3       1 C0R12       0.0000 
     19 C19        64.3250   54.9010   14.9790 C.3       1 C0R12       0.0000 
     20 C20        66.0920   61.9940   12.9400 C.2       1 C0R12       0.0000 
     21 C21        65.0110   62.8110   13.6450 C.3       1 C0R12       0.0000 
     22 O1         60.2270   52.9650   13.1250 O.2       1 C0R12       0.0000 
     23 O2         64.3800   57.7770   15.5450 O.3       1 C0R12       0.0000 
     24 O3         67.2410   62.1460   13.2270 O.2       1 C0R12       0.0000 
     25 O4         63.8070   62.7940   13.0920 O.3       1 C0R12       0.0000 
     26 H          62.0783   56.0660   15.5209 H         1 C0R12       0.0000 
     27 H          61.3156   56.0892   13.9215 H         1 C0R12       0.0000 
     28 H          60.4999   54.1935   15.3094 H         1 C0R12       0.0000 
     29 H          62.1617   53.5837   15.3886 H         1 C0R12       0.0000 
     30 H          62.4072   52.9042   11.7257 H         1 C0R12       0.0000 
     31 H          64.4805   53.9069   10.9560 H         1 C0R12       0.0000 
     32 H          65.5455   54.1072   12.3581 H         1 C0R12       0.0000 
     33 H          64.1413   56.2845   10.7639 H         1 C0R12       0.0000 
     34 H          65.8848   55.9845   10.8652 H         1 C0R12       0.0000 
     35 H          65.8173   56.6652   13.2587 H         1 C0R12       0.0000 
     36 H          62.9015   57.1245   12.6385 H         1 C0R12       0.0000 
     37 H          62.5177   58.0345   14.7694 H         1 C0R12       0.0000 
     38 H          63.8201   60.1403   14.6601 H         1 C0R12       0.0000 
     39 H          63.1287   59.5973   13.1216 H         1 C0R12       0.0000 
     40 H          64.3016   58.6185   11.5125 H         1 C0R12       0.0000 
     41 H          66.1823   58.3638   10.2655 H         1 C0R12       0.0000 
     42 H          67.2087   58.0048   11.6646 H         1 C0R12       0.0000 
     43 H          66.7289   60.5341   10.4649 H         1 C0R12       0.0000 
     44 H          67.6604   60.1891   11.9323 H         1 C0R12       0.0000 
     45 H          64.7715   60.8442   11.6440 H         1 C0R12       0.0000 
     46 H          65.4441   63.8588   13.7440 H         1 C0R12       0.0000 
     47 H          65.0145   62.4456   14.7229 H         1 C0R12       0.0000 
     48 H          67.3659   59.3891   13.7276 H         1 C0R12       0.0000 
     49 H          66.4787   60.0067   14.9182 H         1 C0R12       0.0000 
     50 H          66.4779   58.4203   14.6546 H         1 C0R12       0.0000 
     51 H          65.2545   54.8032   14.6234 H         1 C0R12       0.0000 
     52 H          64.3774   55.5052   15.7741 H         1 C0R12       0.0000 
     53 H          64.0426   54.0015   15.3125 H         1 C0R12       0.0000 
     54 H          64.7318   56.8498   15.4162 H         1 C0R12       0.0000 
     55 H          63.2874   63.4939   13.5820 H         1 C0R12       0.0000 
@<TRIPOS>BOND
     1    2    1 1    
     2   10    1 1    
     3   26    1 1    
     4   27    1 1    
     5    3    2 1    
     6   28    2 1    
     7   29    2 1    
     8    4    3 1    
     9   22    3 2    
    10    5    4 2    
    11   30    4 1    
    12    6    5 1    
    13   10    5 1    
    14    7    6 1    
    15   31    6 1    
    16   32    6 1    
    17    8    7 1    
    18   33    7 1    
    19   34    7 1    
    20    9    8 1    
    21   14    8 1    
    22   35    8 1    
    23   10    9 1    
    24   11    9 1    
    25   36    9 1    
    26   19   10 1    
    27   12   11 1    
    28   23   11 1    
    29   37   11 1    
    30   13   12 1    
    31   38   12 1    
    32   39   12 1    
    33   14   13 1    
    34   17   13 1    
    35   18   13 1    
    36   15   14 1    
    37   40   14 1    
    38   16   15 1    
    39   41   15 1    
    40   42   15 1    
    41   17   16 1    
    42   43   16 1    
    43   44   16 1    
    44   20   17 1    
    45   45   17 1    
    46   48   18 1    
    47   49   18 1    
    48   50   18 1    
    49   51   19 1    
    50   52   19 1    
    51   53   19 1    
    52   21   20 1    
    53   24   20 2    
    54   25   21 1    
    55   46   21 1    
    56   47   21 1    
    57   54   23 1    
    58   55   25 1    
@<TRIPOS>SUBSTRUCTURE
     1 C0R12       1 GROUP   
@<TRIPOS>SET

