#    Name: 2g22_6IG_1_INTS_M
#    Modification time : Tue Mar 25 13:27:09 2014

@<TRIPOS>MOLECULE
2g22_6IG_1_INTS_M
   82     0     9     0     0
SMALL
NO_CHARGES


@<TRIPOS>ATOM
      1 CA         80.1050   26.8430   73.6150 C.3       3 GLC5        0.0000 
      2 CA         78.2710   25.5940   73.3030 C.3       9 GLL5        0.0000 
      3 CA         81.9390   28.0920   73.9270 C.3       6 GLP5        0.0000 
      4 O          78.1810   23.5565   68.7925 O.2       1 ALC1        0.0000 
      5 O          78.3530   24.7390   69.8810 O.2       7 ALL1        0.0000 
      6 O          78.0090   22.3740   67.7040 O.2       4 ALP1        0.0000 
      7 O          77.4885   27.9255   73.4165 O.2       1 ALC1        0.0000 
      8 O          77.5980   26.4800   74.0360 O.2       7 ALL1        0.0000 
      9 O          77.3790   29.3710   72.7970 O.2       4 ALP1        0.0000 
     10 O          78.2815   28.0515   74.1740 O.2       1 ALC1        0.0000 
     11 O          78.9650   29.6230   74.3120 O.2       4 ALP1        0.0000 
     12 CA         79.0945   22.6485   74.6600 C.3       3 GLC5        0.0000 
     13 CA         80.8460   23.0700   73.9190 C.3       9 GLL5        0.0000 
     14 CA         77.3430   22.2270   75.4010 C.3       6 GLP5        0.0000 
     15 CA         83.8135   24.1010   74.9345 C.3       3 GLC5        0.0000 
     16 CA         82.1420   23.8250   74.1940 C.3       9 GLL5        0.0000 
     17 CA         85.4850   24.3770   75.6750 C.3       6 GLP5        0.0000 
     18 CA         81.6425   25.0800   75.8275 C.3       3 GLC5        0.0000 
     19 CA         81.1430   26.3350   77.4610 C.3       6 GLP5        0.0000 
     20 CA         83.4505   22.3775   73.0955 C.3       3 GLC5        0.0000 
     21 CA         84.7590   20.9300   71.9970 C.3       6 GLP5        0.0000 
     22 CA         82.0405   25.9585   74.0605 C.3       3 GLC5        0.0000 
     23 CA         78.0215   21.7345   71.2265 C.3       3 GLC5        0.0000 
     24 CA         80.0610   21.5530   70.5810 C.3       9 GLL5        0.0000 
     25 CA         75.9820   21.9160   71.8720 C.3       6 GLP5        0.0000 
     26 CA         83.8460   20.6320   70.1435 C.3       3 GLC5        0.0000 
     27 CA         82.9330   20.3340   68.2900 C.3       9 GLL5        0.0000 
     28 CA         86.2090   23.1085   68.3645 C.3       3 GLC5        0.0000 
     29 CA         84.5650   22.3090   68.0230 C.3       9 GLL5        0.0000 
     30 CA         87.8530   23.9080   68.7060 C.3       6 GLP5        0.0000 
     31 CA         86.7035   26.2185   70.2330 C.3       3 GLC5        0.0000 
     32 CA         84.6680   26.3500   70.7600 C.3       9 GLL5        0.0000 
     33 CA         88.7390   26.0870   69.7060 C.3       6 GLP5        0.0000 
     34 N          87.4680   26.8750   71.7355 N.am      2 SEC2        0.0000 
     35 N          85.7610   26.7800   71.5490 N.am      8 SEL2        0.0000 
     36 N          89.1750   26.9700   71.9220 N.am      5 SEP2        0.0000 
     37 CA         87.2275   27.1180   70.8050 C.3       3 GLC5        0.0000 
     38 CA         85.7160   28.1490   71.9040 C.3       9 GLL5        0.0000 
     39 CA         87.4610   29.1910   71.5895 C.3       3 GLC5        0.0000 
     40 CA         89.2060   30.2330   71.2750 C.3       6 GLP5        0.0000 
     41 CA         85.4165   26.9750   73.6000 C.3       3 GLC5        0.0000 
     42 CA         85.1170   25.8010   75.2960 C.3       6 GLP5        0.0000 
     43 CA         86.2995   30.1865   72.6405 C.3       3 GLC5        0.0000 
     44 CA         86.8830   32.2240   73.3770 C.3       6 GLP5        0.0000 
     45 CA         83.8275   28.1205   72.9155 C.3       3 GLC5        0.0000 
     46 CA         75.4335   25.4055   68.8575 C.3       3 GLC5        0.0000 
     47 CA         77.3400   25.6950   69.4060 C.3       9 GLL5        0.0000 
     48 CA         73.5270   25.1160   68.3090 C.3       6 GLP5        0.0000 
     49 CA         77.2135   24.5995   67.5990 C.3       3 GLC5        0.0000 
     50 CA         77.0870   23.5040   65.7920 C.3       6 GLP5        0.0000 
     51 CA         77.4070   26.8125   64.6495 C.3       3 GLC5        0.0000 
     52 CA         79.2040   26.7080   65.1790 C.3       9 GLL5        0.0000 
     53 CA         75.6100   26.9170   64.1200 C.3       6 GLP5        0.0000 
     54 CA         80.6215   27.6890   69.0915 C.3       3 GLC5        0.0000 
     55 CA         80.2160   26.1890   67.7820 C.3       9 GLL5        0.0000 
     56 CA         81.0270   29.1890   70.4010 C.3       6 GLP5        0.0000 
     57 CA         77.5768   23.0902   71.6730 C.3       3 GLC5        0.0000 
     58 CA         78.6820   24.7050   71.2200 C.3       9 GLL5        0.0000 
     59 CA         81.8665   22.1602   75.2788 C.3       3 GLC5        0.0000 
     60 CA         82.2390   20.8730   76.5010 C.3       6 GLP5        0.0000 
     61 CA         81.2611   19.3085   67.8991 C.3       3 GLC5        0.0000 
     62 CA         80.8820   20.7390   69.7490 C.3       9 GLL5        0.0000 
     63 CA         80.3130   17.9560   66.9220 C.3       6 GLP5        0.0000 
     64 CA         84.9415   19.2067   69.0817 C.3       3 GLC5        0.0000 
     65 CA         86.2100   17.8600   69.9110 C.3       6 GLP5        0.0000 
     66 CA         85.2195   21.5025   69.8385 C.3       3 GLC5        0.0000 
     67 CA         84.4130   20.7730   68.2150 C.3       9 GLL5        0.0000 
     68 CA         85.9500   21.4640   71.5580 C.3       6 GLP5        0.0000 
     69 CA         86.1432   24.3053   69.2275 C.3       3 GLC5        0.0000 
     70 CA         84.0810   24.5500   69.0770 C.3       9 GLL5        0.0000 
     71 CA         85.1917   23.0832   70.6535 C.3       3 GLC5        0.0000 
     72 CA         84.7860   24.8550   70.4210 C.3       9 GLL5        0.0000 
     73 CA         79.0950   28.4223   69.1953 C.3       3 GLC5        0.0000 
     74 CA         78.8770   26.6860   67.6270 C.3       9 GLL5        0.0000 
     75 CA         79.7730   30.0260   70.1780 C.3       6 GLP5        0.0000 
     76 CA         78.4765   24.9835   65.5263 C.3       3 GLC5        0.0000 
     77 CA         77.8603   25.1582   66.3815 C.3       3 GLC5        0.0000 
     78 CA         76.7152   27.0909   66.5384 C.3       3 GLC5        0.0000 
     79 CA         78.3900   26.9390   66.3150 C.3       9 GLL5        0.0000 
     80 CA         75.0270   27.3030   65.8130 C.3       6 GLP5        0.0000 
     81 CA         82.1839   27.2497   66.7271 C.3       3 GLC5        0.0000 
     82 CA         83.8690   28.3610   66.5680 C.3       6 GLP5        0.0000 
@<TRIPOS>BOND
@<TRIPOS>SUBSTRUCTURE
     1 ALC1        4 GROUP        1 X    ALC  0     ROOT ALC X 1
     2 SEC2       34 GROUP        1 X    SEC  0     **** SEC X 2
     3 GLC5        1 GROUP        1 X    GLC  0     **** GLC X 6
     4 ALP1        6 GROUP        1 Y    ALP  0     ROOT ALP Y 8
     5 SEP2       36 GROUP        1 Y    SEP  0     **** SEP Y 9
     6 GLP5        3 GROUP        1 Y    GLP  0     **** GLP Y 13
     7 ALL1        5 GROUP        1 Z    ALL  0     ROOT ALL Z 15
     8 SEL2       35 GROUP        1 Z    SEL  0     **** SEL Z 16
     9 GLL5        2 GROUP        1 Z    GLL  0     **** GLL Z 20
@<TRIPOS>SET

