#    Name: 2g22_6IG_1_ligand
#    Modification time : Tue Mar 25 13:27:09 2014

@<TRIPOS>MOLECULE
2g22_6IG_1_ligand
   68    71     1     0     0
SMALL
NO_CHARGES


@<TRIPOS>ATOM
      1 C1         78.6820   24.7050   71.2200 C.ar      1 6IG885      0.0000 
      2 N1         77.9900   25.5780   72.0010 N.ar      1 6IG885      0.0000 
      3 C2         78.2710   25.5940   73.3030 C.ar      1 6IG885      0.0000 
      4 N2         79.1630   24.7970   73.8910 N.ar      1 6IG885      0.0000 
      5 C3         79.8650   23.9120   73.1430 C.ar      1 6IG885      0.0000 
      6 C4         79.6610   23.8240   71.7280 C.ar      1 6IG885      0.0000 
      7 N3         78.3530   24.7390   69.8810 N.pl3     1 6IG885      0.0000 
      8 N4         77.5980   26.4800   74.0360 N.pl3     1 6IG885      0.0000 
      9 C5         80.8460   23.0700   73.9190 C.3       1 6IG885      0.0000 
     10 C6         82.1420   23.8250   74.1940 C.3       1 6IG885      0.0000 
     11 C7         80.0610   21.5530   70.5810 C.ar      1 6IG885      0.0000 
     12 C8         80.8820   20.7390   69.7490 C.ar      1 6IG885      0.0000 
     13 C9         82.0890   21.2370   69.1760 C.ar      1 6IG885      0.0000 
     14 C10        82.4760   22.5880   69.4490 C.ar      1 6IG885      0.0000 
     15 C11        81.6260   23.3630   70.2850 C.ar      1 6IG885      0.0000 
     16 C12        80.4370   22.8790   70.8540 C.ar      1 6IG885      0.0000 
     17 C13        82.9330   20.3340   68.2900 C.3       1 6IG885      0.0000 
     18 C14        84.4130   20.7730   68.2150 C.3       1 6IG885      0.0000 
     19 C15        84.5650   22.3090   68.0230 C.3       1 6IG885      0.0000 
     20 N5         83.6760   23.1270   68.8920 N.3       1 6IG885      0.0000 
     21 C16        84.0810   24.5500   69.0770 C.3       1 6IG885      0.0000 
     22 C17        84.7860   24.8550   70.4210 C.3       1 6IG885      0.0000 
     23 C18        84.6680   26.3500   70.7600 C.3       1 6IG885      0.0000 
     24 O1         85.7610   26.7800   71.5490 O.3       1 6IG885      0.0000 
     25 C19        85.7160   28.1490   71.9040 C.3       1 6IG885      0.0000 
     26 C20        77.3400   25.6950   69.4060 C.3       1 6IG885      0.0000 
     27 C21        77.9570   26.9510   68.7980 C.3       1 6IG885      0.0000 
     28 C22        80.5280   26.2180   65.3420 C.ar      1 6IG885      0.0000 
     29 C23        79.2040   26.7080   65.1790 C.ar      1 6IG885      0.0000 
     30 C24        78.3900   26.9390   66.3150 C.ar      1 6IG885      0.0000 
     31 C25        78.8770   26.6860   67.6270 C.ar      1 6IG885      0.0000 
     32 C26        80.2160   26.1890   67.7820 C.ar      1 6IG885      0.0000 
     33 C27        81.0350   25.9580   66.6390 C.ar      1 6IG885      0.0000 
     34 H          78.7827   24.1266   69.1958 H         1 6IG885      0.0000 
     35 H          77.0465   26.1060   74.7816 H         1 6IG885      0.0000 
     36 H          77.7050   27.4393   73.7746 H         1 6IG885      0.0000 
     37 H          81.0776   22.1612   73.3540 H         1 6IG885      0.0000 
     38 H          80.3997   22.7715   74.8732 H         1 6IG885      0.0000 
     39 H          79.2034   21.1660   70.9738 H         1 6IG885      0.0000 
     40 H          80.5984   19.7700   69.5568 H         1 6IG885      0.0000 
     41 H          81.9098   24.3523   70.4838 H         1 6IG885      0.0000 
     42 H          82.5196   20.3286   67.2738 H         1 6IG885      0.0000 
     43 H          82.8937   19.3063   68.6720 H         1 6IG885      0.0000 
     44 H          84.8941   20.2661   67.3781 H         1 6IG885      0.0000 
     45 H          84.9187   20.4835   69.1365 H         1 6IG885      0.0000 
     46 H          84.3705   22.5334   66.9579 H         1 6IG885      0.0000 
     47 H          85.6241   22.5659   68.2098 H         1 6IG885      0.0000 
     48 H          83.1932   25.2091   69.0040 H         1 6IG885      0.0000 
     49 H          84.7629   24.8591   68.2600 H         1 6IG885      0.0000 
     50 H          85.8324   24.5861   70.3389 H         1 6IG885      0.0000 
     51 H          84.3188   24.2704   71.2046 H         1 6IG885      0.0000 
     52 H          83.7038   26.4919   71.2751 H         1 6IG885      0.0000 
     53 H          84.6060   26.8965   69.8047 H         1 6IG885      0.0000 
     54 H          76.6822   26.0016   70.2368 H         1 6IG885      0.0000 
     55 H          76.6953   25.2243   68.6445 H         1 6IG885      0.0000 
     56 H          78.5165   27.4878   69.5858 H         1 6IG885      0.0000 
     57 H          77.1426   27.6251   68.4753 H         1 6IG885      0.0000 
     58 H          81.1125   26.0539   64.5228 H         1 6IG885      0.0000 
     59 H          78.8424   26.8924   64.2447 H         1 6IG885      0.0000 
     60 H          77.4357   27.2936   66.1922 H         1 6IG885      0.0000 
     61 H          80.5767   26.0026   68.7148 H         1 6IG885      0.0000 
     62 H          81.9826   25.6066   66.7582 H         1 6IG885      0.0000 
     63 H          82.7947   23.2677   74.7073 H         1 6IG885      0.0000 
     64 H          82.5962   24.1036   73.3478 H         1 6IG885      0.0000 
     65 H          81.9820   24.6553   74.7279 H         1 6IG885      0.0000 
     66 H          86.5045   28.4150   72.4585 H         1 6IG885      0.0000 
     67 H          85.7109   28.7416   71.0985 H         1 6IG885      0.0000 
     68 H          84.8972   28.3684   72.4345 H         1 6IG885      0.0000 
@<TRIPOS>BOND
     1    2    1 ar   
     2    6    1 ar   
     3    7    1 1    
     4    3    2 ar   
     5    4    3 ar   
     6    8    3 1    
     7    5    4 ar   
     8    6    5 ar   
     9    9    5 1    
    10   16    6 1    
    11   26    7 1    
    12   34    7 1    
    13   35    8 1    
    14   36    8 1    
    15   10    9 1    
    16   37    9 1    
    17   38    9 1    
    18   63   10 1    
    19   64   10 1    
    20   65   10 1    
    21   12   11 ar   
    22   16   11 ar   
    23   39   11 1    
    24   13   12 ar   
    25   40   12 1    
    26   14   13 ar   
    27   17   13 1    
    28   15   14 ar   
    29   20   14 1    
    30   16   15 ar   
    31   41   15 1    
    32   18   17 1    
    33   42   17 1    
    34   43   17 1    
    35   19   18 1    
    36   44   18 1    
    37   45   18 1    
    38   20   19 1    
    39   46   19 1    
    40   47   19 1    
    41   21   20 1    
    42   22   21 1    
    43   48   21 1    
    44   49   21 1    
    45   23   22 1    
    46   50   22 1    
    47   51   22 1    
    48   24   23 1    
    49   52   23 1    
    50   53   23 1    
    51   25   24 1    
    52   66   25 1    
    53   67   25 1    
    54   68   25 1    
    55   27   26 1    
    56   54   26 1    
    57   55   26 1    
    58   31   27 1    
    59   56   27 1    
    60   57   27 1    
    61   29   28 ar   
    62   33   28 ar   
    63   58   28 1    
    64   30   29 ar   
    65   59   29 1    
    66   31   30 ar   
    67   60   30 1    
    68   32   31 ar   
    69   33   32 ar   
    70   61   32 1    
    71   62   33 1    
@<TRIPOS>SUBSTRUCTURE
     1 6IG885      1 GROUP   
@<TRIPOS>SET

