#    Name: 1di9_MSQ_1_INTS_M
#    Modification time : Mon Mar 24 21:58:43 2014

@<TRIPOS>MOLECULE
1di9_MSQ_1_INTS_M
   62     0     6     0     0
SMALL
NO_CHARGES


@<TRIPOS>ATOM
      1 CA         42.5205   33.7800   31.0300 C.3       2 GLC5        0.0000 
      2 CA         43.5280   33.3560   32.3740 C.3       6 GLL5        0.0000 
      3 CA         41.5130   34.2040   29.6860 C.3       4 GLP5        0.0000 
      4 CA         43.5375   35.3345   31.9815 C.3       2 GLC5        0.0000 
      5 CA         43.5470   37.3130   31.5890 C.3       4 GLP5        0.0000 
      6 CA         45.1850   33.9850   33.1330 C.3       2 GLC5        0.0000 
      7 CA         46.8420   34.6140   33.8920 C.3       4 GLP5        0.0000 
      8 CA         43.6560   32.0890   34.0600 C.3       2 GLC5        0.0000 
      9 CA         43.7840   30.8220   35.7460 C.3       4 GLP5        0.0000 
     10 N          45.0030   34.9710   32.1300 N.am      1 SEC2        0.0000 
     11 N          44.6160   33.7610   31.5820 N.am      5 SEL2        0.0000 
     12 N          45.3900   36.1810   32.6780 N.am      3 SEP2        0.0000 
     13 CA         46.4000   31.4985   32.2225 C.3       2 GLC5        0.0000 
     14 CA         44.8050   31.3540   30.6580 C.3       6 GLL5        0.0000 
     15 CA         47.9950   31.6430   33.7870 C.3       4 GLP5        0.0000 
     16 CA         43.7015   30.9220   33.6215 C.3       2 GLC5        0.0000 
     17 CA         43.6190   31.0220   31.4970 C.3       6 GLL5        0.0000 
     18 CA         47.7140   31.8960   31.5955 C.3       2 GLC5        0.0000 
     19 CA         47.4330   32.1490   29.4040 C.3       6 GLL5        0.0000 
     20 CA         43.9855   30.6775   28.5325 C.3       2 GLC5        0.0000 
     21 CA         45.5660   30.3730   29.8290 C.3       6 GLL5        0.0000 
     22 CA         42.4050   30.9820   27.2360 C.3       4 GLP5        0.0000 
     23 CA         41.3190   29.1200   29.3270 C.3       2 GLC5        0.0000 
     24 CA         40.6150   29.7090   31.2620 C.3       6 GLL5        0.0000 
     25 CA         42.0230   28.5310   27.3920 C.3       4 GLP5        0.0000 
     26 CA         41.3485   27.3685   35.2880 C.3       2 GLC5        0.0000 
     27 CA         40.4100   27.8220   33.5040 C.3       6 GLL5        0.0000 
     28 CA         42.2870   26.9150   37.0720 C.3       4 GLP5        0.0000 
     29 CA         42.7695   29.5270   34.3765 C.3       2 GLC5        0.0000 
     30 CA         41.7550   28.2320   33.0070 C.3       6 GLL5        0.0000 
     31 CA         42.7025   27.5185   34.6955 C.3       2 GLC5        0.0000 
     32 CA         43.6500   26.8050   36.3840 C.3       4 GLP5        0.0000 
     33 CA         39.9465   33.0700   30.2970 C.3       2 GLC5        0.0000 
     34 CA         38.3800   31.9360   30.9080 C.3       6 GLL5        0.0000 
     35 CA         36.9035   33.2315   30.4215 C.3       2 GLC5        0.0000 
     36 CA         35.4270   34.5270   29.9350 C.3       4 GLP5        0.0000 
     37 CA         48.2930   33.5585   26.9355 C.3       2 GLC5        0.0000 
     38 CA         49.3270   33.6180   28.8460 C.3       6 GLL5        0.0000 
     39 CA         47.2590   33.4990   25.0250 C.3       4 GLP5        0.0000 
     40 CA         46.5985   30.0675   26.9750 C.3       2 GLC5        0.0000 
     41 CA         47.3320   28.5320   28.0930 C.3       6 GLL5        0.0000 
     42 CA         45.8650   31.6030   25.8570 C.3       4 GLP5        0.0000 
     43 CA         47.1765   27.9975   26.2865 C.3       2 GLC5        0.0000 
     44 CA         47.0210   27.4630   24.4800 C.3       4 GLP5        0.0000 
     45 CA         45.3618   34.6598   29.6045 C.3       2 GLC5        0.0000 
     46 CA         45.3250   32.8150   30.7600 C.3       6 GLL5        0.0000 
     47 CA         44.7670   36.3210   28.7850 C.3       4 GLP5        0.0000 
     48 CA         46.3993   33.8062   32.1580 C.3       2 GLC5        0.0000 
     49 CA         46.5880   33.1820   30.0880 C.3       6 GLL5        0.0000 
     50 CA         43.3085   31.0850   29.1568 C.3       2 GLC5        0.0000 
     51 CA         42.9275   32.8786   30.3945 C.3       2 GLC5        0.0000 
     52 CA         46.1154   31.2563   27.7161 C.3       2 GLC5        0.0000 
     53 CA         46.8980   30.7430   29.2390 C.3       6 GLL5        0.0000 
     54 CA         38.9304   27.9277   30.7584 C.3       2 GLC5        0.0000 
     55 CA         38.2920   26.8680   29.2780 C.3       4 GLP5        0.0000 
     56 CA         38.1040   30.0252   29.5063 C.3       2 GLC5        0.0000 
     57 CA         37.8780   30.2090   31.2290 C.3       6 GLL5        0.0000 
     58 CA         38.0790   28.9780   27.9440 C.3       4 GLP5        0.0000 
     59 CA         36.2815   30.5767   30.6913 C.3       2 GLC5        0.0000 
     60 CA         34.4340   30.0810   30.3140 C.3       4 GLP5        0.0000 
     61 CA         37.7245   32.1292   32.3693 C.3       2 GLC5        0.0000 
     62 CA         37.3200   33.1860   33.6700 C.3       4 GLP5        0.0000 
@<TRIPOS>BOND
@<TRIPOS>SUBSTRUCTURE
     1 SEC2       10 GROUP        1 X    SEC  0     ROOT SEC X 2
     2 GLC5        1 GROUP        1 X    GLC  0     **** GLC X 6
     3 SEP2       12 GROUP        1 Y    SEP  0     ROOT SEP Y 9
     4 GLP5        3 GROUP        1 Y    GLP  0     **** GLP Y 13
     5 SEL2       11 GROUP        1 Z    SEL  0     ROOT SEL Z 16
     6 GLL5        2 GROUP        1 Z    GLL  0     **** GLL Z 20
@<TRIPOS>SET

