#    Name: 1di9_MSQ_1_ligand
#    Modification time : Mon Mar 24 21:58:43 2014

@<TRIPOS>MOLECULE
1di9_MSQ_1_ligand
   40    42     1     0     0
SMALL
NO_CHARGES


@<TRIPOS>ATOM
      1 N1         43.0150   32.0510   32.3060 N.ar      1 MSQ500      0.0000 
      2 C2         43.5280   33.3560   32.3740 C.ar      1 MSQ500      0.0000 
      3 N3         44.6160   33.7610   31.5820 N.ar      1 MSQ500      0.0000 
      4 C4         45.3250   32.8150   30.7600 C.ar      1 MSQ500      0.0000 
      5 C5         44.8050   31.3540   30.6580 C.ar      1 MSQ500      0.0000 
      6 C6         43.6190   31.0220   31.4970 C.ar      1 MSQ500      0.0000 
      7 C7         46.5880   33.1820   30.0880 C.ar      1 MSQ500      0.0000 
      8 C8         47.4330   32.1490   29.4040 C.ar      1 MSQ500      0.0000 
      9 C9         46.8980   30.7430   29.2390 C.ar      1 MSQ500      0.0000 
     10 C10        45.5660   30.3730   29.8290 C.ar      1 MSQ500      0.0000 
     11 N12        43.0870   29.7090   31.5300 N.pl3     1 MSQ500      0.0000 
     12 C14        41.8510   29.2210   31.9100 C.ar      1 MSQ500      0.0000 
     13 C15        40.6150   29.7090   31.2620 C.ar      1 MSQ500      0.0000 
     14 C16        39.3000   29.4010   31.8370 C.ar      1 MSQ500      0.0000 
     15 C17        39.1800   28.4200   32.9280 C.ar      1 MSQ500      0.0000 
     16 C18        40.4100   27.8220   33.5040 C.ar      1 MSQ500      0.0000 
     17 C19        41.7550   28.2320   33.0070 C.ar      1 MSQ500      0.0000 
     18 S21        37.8780   30.2090   31.2290 S.3       1 MSQ500      0.0000 
     19 C22        38.3800   31.9360   30.9080 C.3       1 MSQ500      0.0000 
     20 O26        48.7700   32.3890   28.9470 O.3       1 MSQ500      0.0000 
     21 C27        49.3270   33.6180   28.8460 C.3       1 MSQ500      0.0000 
     22 O31        47.7520   29.8330   28.5470 O.3       1 MSQ500      0.0000 
     23 C32        47.3320   28.5320   28.0930 C.3       1 MSQ500      0.0000 
     24 H          43.0952   34.0363   33.0225 H         1 MSQ500      0.0000 
     25 H          46.8950   34.1388   30.0837 H         1 MSQ500      0.0000 
     26 H          45.1917   29.4646   29.6629 H         1 MSQ500      0.0000 
     27 H          43.8071   28.9351   31.1833 H         1 MSQ500      0.0000 
     28 H          40.6804   30.2555   30.4215 H         1 MSQ500      0.0000 
     29 H          38.2881   28.1577   33.2784 H         1 MSQ500      0.0000 
     30 H          40.3399   27.1391   34.2306 H         1 MSQ500      0.0000 
     31 H          42.5729   27.8435   33.4103 H         1 MSQ500      0.0000 
     32 H          38.7029   32.3894   31.7387 H         1 MSQ500      0.0000 
     33 H          39.1207   31.9891   30.2383 H         1 MSQ500      0.0000 
     34 H          37.6225   32.4827   30.5512 H         1 MSQ500      0.0000 
     35 H          50.2659   33.5733   28.5048 H         1 MSQ500      0.0000 
     36 H          48.8156   34.2073   28.2205 H         1 MSQ500      0.0000 
     37 H          49.3581   34.0854   29.7295 H         1 MSQ500      0.0000 
     38 H          48.0720   28.0431   27.6310 H         1 MSQ500      0.0000 
     39 H          47.0275   27.9547   28.8506 H         1 MSQ500      0.0000 
     40 H          46.5717   28.5919   27.4462 H         1 MSQ500      0.0000 
@<TRIPOS>BOND
     1    2    1 ar   
     2    6    1 ar   
     3    3    2 ar   
     4   24    2 1    
     5    4    3 ar   
     6    5    4 ar   
     7    7    4 ar   
     8    6    5 ar   
     9   10    5 ar   
    10   11    6 1    
    11    8    7 ar   
    12   25    7 1    
    13    9    8 ar   
    14   20    8 1    
    15   10    9 ar   
    16   22    9 1    
    17   26   10 1    
    18   12   11 1    
    19   27   11 1    
    20   13   12 ar   
    21   17   12 ar   
    22   14   13 ar   
    23   28   13 1    
    24   15   14 ar   
    25   18   14 1    
    26   16   15 ar   
    27   29   15 1    
    28   17   16 ar   
    29   30   16 1    
    30   31   17 1    
    31   19   18 1    
    32   32   19 1    
    33   33   19 1    
    34   34   19 1    
    35   21   20 1    
    36   35   21 1    
    37   36   21 1    
    38   37   21 1    
    39   23   22 1    
    40   38   23 1    
    41   39   23 1    
    42   40   23 1    
@<TRIPOS>SUBSTRUCTURE
     1 MSQ500      1 GROUP   
@<TRIPOS>SET

