#    Name: 1qnf_HDF_1_INTS_M
#    Modification time : Mon Mar 24 23:42:19 2014

@<TRIPOS>MOLECULE
1qnf_HDF_1_INTS_M
   64     0     9     0     0
SMALL
NO_CHARGES


@<TRIPOS>ATOM
      1 O          40.8975    5.3175   68.0980 O.2       1 ALC1        0.0000 
      2 O          41.6980    6.2180   67.3710 O.2       7 ALL1        0.0000 
      3 O          40.0970    4.4170   68.8250 O.2       4 ALP1        0.0000 
      4 N          42.3285    5.9140   70.0285 N.am      2 SEC2        0.0000 
      5 N          42.1990    7.2590   69.2890 N.am      8 SEL2        0.0000 
      6 N          42.4580    4.5690   70.7680 N.am      5 SEP2        0.0000 
      7 CA         40.9230    8.3350   67.2815 C.3       3 GLC5        0.0000 
      8 CA         42.8260    8.2830   67.2280 C.3       9 GLL5        0.0000 
      9 CA         39.0200    8.3870   67.3350 C.3       6 GLP5        0.0000 
     10 CA         44.3365    7.1545   66.7450 C.3       3 GLC5        0.0000 
     11 CA         45.8470    6.0260   66.2620 C.3       6 GLP5        0.0000 
     12 CA         43.8105    9.7695   69.9280 C.3       3 GLC5        0.0000 
     13 CA         43.4480    9.2970   67.8790 C.3       9 GLL5        0.0000 
     14 CA         44.1730   10.2420   71.9770 C.3       6 GLP5        0.0000 
     15 CA         44.4435   10.7355   69.9045 C.3       3 GLC5        0.0000 
     16 CA         44.7140   11.2290   67.8320 C.3       9 GLL5        0.0000 
     17 CA         47.0925   11.6495   67.2320 C.3       3 GLC5        0.0000 
     18 CA         45.4680   12.0690   65.7910 C.3       9 GLL5        0.0000 
     19 CA         48.7170   11.2300   68.6730 C.3       6 GLP5        0.0000 
     20 N          46.9990   14.1690   65.4675 N.am      2 SEC2        0.0000 
     21 N          46.2910   12.9140   65.1020 N.am      8 SEL2        0.0000 
     22 N          47.7070   15.4240   65.8330 N.am      5 SEP2        0.0000 
     23 N          46.4560   13.2440   63.7105 N.am      2 SEC2        0.0000 
     24 N          46.6210   13.5740   62.3190 N.am      5 SEP2        0.0000 
     25 CA         42.6170   11.4070   64.1960 C.3       3 GLC5        0.0000 
     26 CA         43.0850    9.3740   63.8370 C.3       9 GLL5        0.0000 
     27 CA         42.1490   13.4400   64.5550 C.3       6 GLP5        0.0000 
     28 CA         42.0095    6.6915   62.1735 C.3       3 GLC5        0.0000 
     29 CA         43.9460    7.2190   62.4130 C.3       9 GLL5        0.0000 
     30 CA         40.0730    6.1640   61.9340 C.3       6 GLP5        0.0000 
     31 CA         44.8965    6.6225   64.3375 C.3       3 GLC5        0.0000 
     32 N          43.7490    4.9245   63.3000 N.am      2 SEC2        0.0000 
     33 N          43.5940    6.3900   63.4970 N.am      8 SEL2        0.0000 
     34 N          43.9040    3.4590   63.1030 N.am      5 SEP2        0.0000 
     35 CA         46.0135    4.6755   60.8445 C.3       3 GLC5        0.0000 
     36 CA         45.0970    6.5060   61.7240 C.3       9 GLL5        0.0000 
     37 CA         46.9300    2.8450   59.9650 C.3       6 GLP5        0.0000 
     38 N          44.1735    4.7035   60.6140 N.am      2 SEC2        0.0000 
     39 N          44.7850    6.1820   60.3800 N.am      8 SEL2        0.0000 
     40 N          43.5620    3.2250   60.8480 N.am      5 SEP2        0.0000 
     41 O          45.2500    6.5120   59.2715 O.2       1 ALC1        0.0000 
     42 O          44.7850    6.1820   60.3800 O.2       7 ALL1        0.0000 
     43 O          45.7150    6.8420   58.1630 O.2       4 ALP1        0.0000 
     44 CA         47.4190    5.1705   62.8785 C.3       3 GLC5        0.0000 
     45 CA         46.5220    6.9280   61.8800 C.3       9 GLL5        0.0000 
     46 CA         48.3160    3.4130   63.8770 C.3       6 GLP5        0.0000 
     47 O          48.0890    7.1690   60.8415 O.2       1 ALC1        0.0000 
     48 O          47.3860    5.9770   61.2520 O.2       7 ALL1        0.0000 
     49 O          48.7920    8.3610   60.4310 O.2       4 ALP1        0.0000 
     50 CA         42.2460   10.4470   68.1752 C.3       3 GLC5        0.0000 
     51 CA         41.3550   12.1040   68.7970 C.3       6 GLP5        0.0000 
     52 CA         45.3935    9.0440   67.7040 C.3       3 GLC5        0.0000 
     53 CA         47.0120    8.3180   67.8820 C.3       6 GLP5        0.0000 
     54 CA         46.0360   10.0065   67.6868 C.3       3 GLC5        0.0000 
     55 CA         46.4225   11.9015   68.6642 C.3       3 GLC5        0.0000 
     56 CA         47.7850   12.1080   69.8370 C.3       6 GLP5        0.0000 
     57 CA         43.1310   11.7763   68.0619 C.3       3 GLC5        0.0000 
     58 CA         45.4060   12.1610   67.1510 C.3       9 GLL5        0.0000 
     59 CA         45.2272   12.5048   63.5667 C.3       3 GLC5        0.0000 
     60 CA         45.2990   13.4360   61.6750 C.3       6 GLP5        0.0000 
     61 CA         45.7528    9.4685   66.6745 C.3       3 GLC5        0.0000 
     62 CA         44.8430   11.0780   65.1260 C.3       9 GLL5        0.0000 
     63 CA         42.3485    9.7263   61.6260 C.3       3 GLC5        0.0000 
     64 CA         41.2350   10.3890   60.0060 C.3       6 GLP5        0.0000 
@<TRIPOS>BOND
@<TRIPOS>SUBSTRUCTURE
     1 ALC1        1 GROUP        1 X    ALC  0     ROOT ALC X 1
     2 SEC2        4 GROUP        1 X    SEC  0     **** SEC X 2
     3 GLC5        7 GROUP        1 X    GLC  0     **** GLC X 6
     4 ALP1        3 GROUP        1 Y    ALP  0     ROOT ALP Y 8
     5 SEP2        6 GROUP        1 Y    SEP  0     **** SEP Y 9
     6 GLP5        9 GROUP        1 Y    GLP  0     **** GLP Y 13
     7 ALL1        2 GROUP        1 Z    ALL  0     ROOT ALL Z 15
     8 SEL2        5 GROUP        1 Z    SEL  0     **** SEL Z 16
     9 GLL5        8 GROUP        1 Z    GLL  0     **** GLL Z 20
@<TRIPOS>SET

