#    Name: 1qnf_HDF_1_ligand
#    Modification time : Mon Mar 24 23:42:19 2014

@<TRIPOS>MOLECULE
1qnf_HDF_1_ligand
   43    45     1     0     0
SMALL
NO_CHARGES


@<TRIPOS>ATOM
      1 N1         42.2290    7.1310   65.3230 N.2       1 HDF486      0.0000 
      2 C2         41.6720    6.0870   66.0160 C.2       1 HDF486      0.0000 
      3 O2         41.1340    5.1300   65.4750 O.2       1 HDF486      0.0000 
      4 N3         41.6980    6.2180   67.3710 N.am      1 HDF486      0.0000 
      5 C4         42.2400    7.2810   68.0660 C.2       1 HDF486      0.0000 
      6 O4         42.1990    7.2590   69.2890 O.2       1 HDF486      0.0000 
      7 C4A        42.8260    8.2830   67.2280 C.2       1 HDF486      0.0000 
      8 C5         43.4480    9.2970   67.8790 C.2       1 HDF486      0.0000 
      9 C5A        44.1020   10.2430   67.1730 C.ar      1 HDF486      0.0000 
     10 C6         44.7140   11.2290   67.8320 C.ar      1 HDF486      0.0000 
     11 C7         45.4060   12.1610   67.1510 C.ar      1 HDF486      0.0000 
     12 C8         45.4680   12.0690   65.7910 C.ar      1 HDF486      0.0000 
     13 O8         46.2910   12.9140   65.1020 O.3       1 HDF486      0.0000 
     14 C9         44.8430   11.0780   65.1260 C.ar      1 HDF486      0.0000 
     15 C9A        44.1440   10.1600   65.8080 C.ar      1 HDF486      0.0000 
     16 N10        43.5040    9.1820   65.0960 N.pl3     1 HDF486      0.0000 
     17 C10        42.8640    8.2450   65.8390 C.2       1 HDF486      0.0000 
     18 C1'        43.0850    9.3740   63.8370 C.3       1 HDF486      0.0000 
     19 C2'        43.8390    8.7530   62.6550 C.3       1 HDF486      0.0000 
     20 O2'        44.9930    9.5100   62.3390 O.3       1 HDF486      0.0000 
     21 C3'        43.9460    7.2190   62.4130 C.3       1 HDF486      0.0000 
     22 O3'        43.5940    6.3900   63.4970 O.3       1 HDF486      0.0000 
     23 C4'        45.0970    6.5060   61.7240 C.3       1 HDF486      0.0000 
     24 O4'        44.7850    6.1820   60.3800 O.3       1 HDF486      0.0000 
     25 C5'        46.5220    6.9280   61.8800 C.3       1 HDF486      0.0000 
     26 O5'        47.3860    5.9770   61.2520 O.3       1 HDF486      0.0000 
     27 H          41.2611    5.4306   67.9565 H         1 HDF486      0.0000 
     28 H          43.4195    9.3427   68.9164 H         1 HDF486      0.0000 
     29 H          44.6592   11.2818   68.8732 H         1 HDF486      0.0000 
     30 H          45.8836   12.9337   67.6399 H         1 HDF486      0.0000 
     31 H          44.9045   11.0282   64.0875 H         1 HDF486      0.0000 
     32 H          42.9990   10.4960   63.5740 H         1 HDF486      0.0000 
     33 H          41.9866    9.0463   63.6898 H         1 HDF486      0.0000 
     34 H          43.0851    9.0786   61.7231 H         1 HDF486      0.0000 
     35 H          43.0363    7.0042   61.6371 H         1 HDF486      0.0000 
     36 H          45.0793    5.4205   62.2569 H         1 HDF486      0.0000 
     37 H          46.7450    7.0189   62.9537 H         1 HDF486      0.0000 
     38 H          46.6421    7.9276   61.4359 H         1 HDF486      0.0000 
     39 H          46.9540   12.3176   64.6497 H         1 HDF486      0.0000 
     40 H          45.7026    9.1696   62.9559 H         1 HDF486      0.0000 
     41 H          42.6281    6.5843   63.6682 H         1 HDF486      0.0000 
     42 H          45.4662    6.6676   59.8320 H         1 HDF486      0.0000 
     43 H          48.0945    6.5252   60.8075 H         1 HDF486      0.0000 
@<TRIPOS>BOND
     1    2    1 1    
     2   17    1 2    
     3    3    2 2    
     4    4    2 am   
     5    5    4 am   
     6   27    4 1    
     7    6    5 2    
     8    7    5 1    
     9    8    7 2    
    10   17    7 1    
    11    9    8 1    
    12   28    8 1    
    13   10    9 ar   
    14   15    9 ar   
    15   11   10 ar   
    16   29   10 1    
    17   12   11 ar   
    18   30   11 1    
    19   13   12 1    
    20   14   12 ar   
    21   39   13 1    
    22   15   14 ar   
    23   31   14 1    
    24   16   15 1    
    25   17   16 1    
    26   18   16 1    
    27   19   18 1    
    28   32   18 1    
    29   33   18 1    
    30   20   19 1    
    31   21   19 1    
    32   34   19 1    
    33   40   20 1    
    34   22   21 1    
    35   23   21 1    
    36   35   21 1    
    37   41   22 1    
    38   24   23 1    
    39   25   23 1    
    40   36   23 1    
    41   42   24 1    
    42   26   25 1    
    43   37   25 1    
    44   38   25 1    
    45   43   26 1    
@<TRIPOS>SUBSTRUCTURE
     1 HDF486      1 GROUP   
@<TRIPOS>SET

