#    Name: 3g58_988_3_INTS_M
#    Modification time : Tue Mar 25 07:09:13 2014

@<TRIPOS>MOLECULE
3g58_988_3_INTS_M
   48     0     6     0     0
SMALL
NO_CHARGES


@<TRIPOS>ATOM
      1 N         -18.4990    7.3925   40.4770 N.am      1 SEC2        0.0000 
      2 N         -18.0950    6.4550   39.5080 N.am      5 SEL2        0.0000 
      3 N         -18.9030    8.3300   41.4460 N.am      3 SEP2        0.0000 
      4 CA        -16.5265    2.5250   40.9185 C.3       2 GLC5        0.0000 
      5 CA        -17.6400    4.1550   39.9800 C.3       6 GLL5        0.0000 
      6 CA        -15.4130    0.8950   41.8570 C.3       4 GLP5        0.0000 
      7 CA        -15.9485    5.5010   36.6735 C.3       2 GLC5        0.0000 
      8 CA        -17.8970    4.5710   36.3140 C.3       6 GLL5        0.0000 
      9 CA        -14.0000    6.4310   37.0330 C.3       4 GLP5        0.0000 
     10 CA        -16.1745    6.8370   37.0915 C.3       2 GLC5        0.0000 
     11 CA        -18.3490    7.2430   37.1500 C.3       6 GLL5        0.0000 
     12 CA        -16.1040    7.9005   38.8980 C.3       2 GLC5        0.0000 
     13 CA        -17.6270    9.2570   38.3820 C.3       6 GLL5        0.0000 
     14 CA        -14.5810    6.5440   39.4140 C.3       4 GLP5        0.0000 
     15 CA        -19.8740    4.1175   33.8845 C.3       2 GLC5        0.0000 
     16 CA        -18.1610    5.2010   33.9110 C.3       6 GLL5        0.0000 
     17 CA        -21.5870    3.0340   33.8580 C.3       4 GLP5        0.0000 
     18 CA        -19.8805    5.2845   35.3440 C.3       2 GLC5        0.0000 
     19 CA        -21.6000    5.3680   36.7770 C.3       4 GLP5        0.0000 
     20 CA        -18.9915    5.4425   31.4755 C.3       2 GLC5        0.0000 
     21 CA        -17.6580    6.2460   32.9520 C.3       6 GLL5        0.0000 
     22 CA        -20.3250    4.6390   29.9990 C.3       4 GLP5        0.0000 
     23 CA        -14.8410    6.0015   34.2610 C.3       2 GLC5        0.0000 
     24 CA        -16.3130    6.2810   32.6180 C.3       6 GLL5        0.0000 
     25 CA        -13.3690    5.7220   35.9040 C.3       4 GLP5        0.0000 
     26 CA        -18.3205    2.1345   39.8442 C.3       2 GLC5        0.0000 
     27 CA        -17.6400    3.8290   38.6230 C.3       6 GLL5        0.0000 
     28 CA        -19.0010    0.2770   40.3870 C.3       4 GLP5        0.0000 
     29 CA        -16.2551    5.9037   38.7897 C.3       2 GLC5        0.0000 
     30 CA        -18.1030    6.1990   38.1760 C.3       6 GLL5        0.0000 
     31 CA        -16.4098    4.9775   41.6502 C.3       2 GLC5        0.0000 
     32 CA        -17.8610    5.4670   40.3910 C.3       6 GLL5        0.0000 
     33 CA        -15.0690    5.1440   43.1150 C.3       4 GLP5        0.0000 
     34 CA        -16.1658    5.6775   39.7998 C.3       2 GLC5        0.0000 
     35 CA        -21.3302    9.3350   38.2922 C.3       2 GLC5        0.0000 
     36 CA        -19.7220    9.3150   37.1830 C.3       6 GLL5        0.0000 
     37 CA        -22.8380    8.6990   39.1910 C.3       4 GLP5        0.0000 
     38 CA        -17.6045   12.3845   38.3240 C.3       2 GLC5        0.0000 
     39 CA        -18.9780   11.2480   38.4130 C.3       6 GLL5        0.0000 
     40 CA        -16.8050   13.8600   38.0400 C.3       4 GLP5        0.0000 
     41 CA        -19.0585   12.2250   40.0110 C.3       2 GLC5        0.0000 
     42 CA        -19.7130   13.5410   41.4140 C.3       4 GLP5        0.0000 
     43 CA        -16.0913   10.2918   39.7142 C.3       2 GLC5        0.0000 
     44 CA        -17.8300   10.5700   38.8030 C.3       6 GLL5        0.0000 
     45 CA        -14.4540   10.6700   40.8360 C.3       4 GLP5        0.0000 
     46 CA        -18.8145    6.6935   30.4417 C.3       2 GLC5        0.0000 
     47 CA        -18.5250    7.1700   32.3670 C.3       6 GLL5        0.0000 
     48 CA        -19.3630    5.7440   28.9640 C.3       4 GLP5        0.0000 
@<TRIPOS>BOND
@<TRIPOS>SUBSTRUCTURE
     1 SEC2        1 GROUP        1 X    SEC  0     ROOT SEC X 2
     2 GLC5        4 GROUP        1 X    GLC  0     **** GLC X 6
     3 SEP2        3 GROUP        1 Y    SEP  0     ROOT SEP Y 9
     4 GLP5        6 GROUP        1 Y    GLP  0     **** GLP Y 13
     5 SEL2        2 GROUP        1 Z    SEL  0     ROOT SEL Z 16
     6 GLL5        5 GROUP        1 Z    GLL  0     **** GLL Z 20
@<TRIPOS>SET

