#    Name: 3g58_988_3_ligand
#    Modification time : Tue Mar 25 07:09:13 2014

@<TRIPOS>MOLECULE
3g58_988_3_ligand
   41    44     1     0     0
SMALL
NO_CHARGES


@<TRIPOS>ATOM
      1 C1        -17.6400    3.8290   38.6230 C.ar      1 988903      0.0000 
      2 C2        -17.8710    4.8270   37.6870 C.ar      1 988903      0.0000 
      3 C3        -18.1030    6.1990   38.1760 C.ar      1 988903      0.0000 
      4 N4        -18.0950    6.4550   39.5080 N.ar      1 988903      0.0000 
      5 C5        -17.8610    5.4670   40.3910 C.ar      1 988903      0.0000 
      6 C6        -17.6400    4.1550   39.9800 C.ar      1 988903      0.0000 
      7 C13       -17.8970    4.5710   36.3140 C.ar      1 988903      0.0000 
      8 C15       -18.1360    5.5870   35.3840 C.ar      1 988903      0.0000 
      9 C17       -18.3510    6.9050   35.8020 C.ar      1 988903      0.0000 
     10 C19       -18.3490    7.2430   37.1500 C.ar      1 988903      0.0000 
     11 C22       -18.5770    8.6390   37.5770 C.ar      1 988903      0.0000 
     12 C24       -19.7220    9.3150   37.1830 C.ar      1 988903      0.0000 
     13 C25       -19.9230   10.6270   37.6040 C.ar      1 988903      0.0000 
     14 C26       -18.9780   11.2480   38.4130 C.ar      1 988903      0.0000 
     15 C27       -17.8300   10.5700   38.8030 C.ar      1 988903      0.0000 
     16 C28       -17.6270    9.2570   38.3820 C.ar      1 988903      0.0000 
     17 C35       -18.1610    5.2010   33.9110 C.3       1 988903      0.0000 
     18 C37       -17.6580    6.2460   32.9520 C.ar      1 988903      0.0000 
     19 C39       -16.3130    6.2810   32.6180 C.ar      1 988903      0.0000 
     20 C40       -15.8450    7.2430   31.7180 C.ar      1 988903      0.0000 
     21 N41       -16.6910    8.1250   31.1770 N.ar      1 988903      0.0000 
     22 C42       -18.0070    8.1160   31.4720 C.ar      1 988903      0.0000 
     23 C43       -18.5250    7.1700   32.3670 C.ar      1 988903      0.0000 
     24 N50       -21.0610   11.3500   37.2310 N.pl3     1 988903      0.0000 
     25 O52       -22.0160   10.8370   36.6720 O.2       1 988903      0.0000 
     26 O54       -21.1030   12.7030   37.4890 O.2       1 988903      0.0000 
     27 H         -17.4715    2.8654   38.3258 H         1 988903      0.0000 
     28 H         -17.8404    5.6694   41.4186 H         1 988903      0.0000 
     29 H         -17.4752    3.4187   40.6817 H         1 988903      0.0000 
     30 H         -17.7351    3.6039   35.9759 H         1 988903      0.0000 
     31 H         -18.5143    7.6394   35.0902 H         1 988903      0.0000 
     32 H         -20.4168    8.8545   36.5863 H         1 988903      0.0000 
     33 H         -19.1310   12.2194   38.7256 H         1 988903      0.0000 
     34 H         -17.1336   11.0318   39.3981 H         1 988903      0.0000 
     35 H         -16.7814    8.7513   38.6652 H         1 988903      0.0000 
     36 H         -19.2046    4.9261   33.6368 H         1 988903      0.0000 
     37 H         -17.5651    4.2694   33.7811 H         1 988903      0.0000 
     38 H         -15.6583    5.6047   33.0275 H         1 988903      0.0000 
     39 H         -14.8333    7.2495   31.4871 H         1 988903      0.0000 
     40 H         -18.6573    8.8016   31.0475 H         1 988903      0.0000 
     41 H         -19.5199    7.1593   32.5855 H         1 988903      0.0000 
@<TRIPOS>BOND
     1    2    1 ar   
     2    6    1 ar   
     3   27    1 1    
     4    3    2 ar   
     5    7    2 ar   
     6    4    3 ar   
     7   10    3 ar   
     8    5    4 ar   
     9    6    5 ar   
    10   28    5 1    
    11   29    6 1    
    12    8    7 ar   
    13   30    7 1    
    14    9    8 ar   
    15   17    8 1    
    16   10    9 ar   
    17   31    9 1    
    18   11   10 1    
    19   12   11 ar   
    20   16   11 ar   
    21   13   12 ar   
    22   32   12 1    
    23   14   13 ar   
    24   24   13 1    
    25   15   14 ar   
    26   33   14 1    
    27   16   15 ar   
    28   34   15 1    
    29   35   16 1    
    30   18   17 1    
    31   36   17 1    
    32   37   17 1    
    33   19   18 ar   
    34   23   18 ar   
    35   20   19 ar   
    36   38   19 1    
    37   21   20 ar   
    38   39   20 1    
    39   22   21 ar   
    40   23   22 ar   
    41   40   22 1    
    42   41   23 1    
    43   25   24 2    
    44   26   24 2    
@<TRIPOS>SUBSTRUCTURE
     1 988903      1 GROUP   
@<TRIPOS>SET

