#    Name: 2hds_4MB_1_INTS_M
#    Modification time : Tue Mar 25 15:55:44 2014

@<TRIPOS>MOLECULE
2hds_4MB_1_INTS_M
   33     0     9     0     0
SMALL
NO_CHARGES


@<TRIPOS>ATOM
      1 CA         26.9470    9.1255   22.2620 C.3       3 GLC5        0.0000 
      2 CA         27.3900    9.1420   20.1840 C.3       9 GLL5        0.0000 
      3 CA         26.5040    9.1090   24.3400 C.3       6 GLP5        0.0000 
      4 CA         24.4760   13.8080   21.4985 C.3       3 GLC5        0.0000 
      5 CA         24.1780   12.1270   20.0940 C.3       9 GLL5        0.0000 
      6 CA         24.7740   15.4890   22.9030 C.3       6 GLP5        0.0000 
      7 NZ         32.6725    9.3555   22.0210 N.4       2 LYC4        0.0000 
      8 NZ         31.1890    9.3810   22.0130 N.4       8 LYL4        0.0000 
      9 NZ         34.6990   10.5280   22.1670 N.4       5 LYP4        0.0000 
     10 NZ         31.3325    8.9895   23.3885 N.4       2 LYC4        0.0000 
     11 NZ         31.4760    8.5980   24.7640 N.4       5 LYP4        0.0000 
     12 N          32.5340   10.4835   22.1245 N.am      1 SEC2        0.0000 
     13 N          31.1890    9.3810   22.0130 N.am      7 SEL2        0.0000 
     14 N          33.8790   11.5860   22.2360 N.am      4 SEP2        0.0000 
     15 N          32.6725    9.3555   22.0210 N.am      1 SEC2        0.0000 
     16 N          34.1560    9.3300   22.0290 N.am      4 SEP2        0.0000 
     17 N          31.3325    8.9895   23.3885 N.am      1 SEC2        0.0000 
     18 N          31.4760    8.5980   24.7640 N.am      4 SEP2        0.0000 
     19 N          31.1045    7.9635   21.9770 N.am      1 SEC2        0.0000 
     20 N          31.0200    6.5460   21.9410 N.am      4 SEP2        0.0000 
     21 NZ         32.5340   10.4835   22.1245 N.4       2 LYC4        0.0000 
     22 NZ         31.0120   11.5810   22.1260 N.4       8 LYL4        0.0000 
     23 N          32.4455   11.5835   22.1810 N.am      1 SEC2        0.0000 
     24 N          31.0120   11.5810   22.1260 N.am      7 SEL2        0.0000 
     25 CA         30.2903   10.5220   19.7473 C.3       3 GLC5        0.0000 
     26 CA         29.2650   10.3480   21.0530 C.3       9 GLL5        0.0000 
     27 CA         31.6420   11.2820   18.5450 C.3       6 GLP5        0.0000 
     28 CA         28.9793    9.4020   22.8203 C.3       3 GLC5        0.0000 
     29 CA         29.0200    9.0420   24.6910 C.3       6 GLP5        0.0000 
     30 CA         29.8835   11.4000   19.3522 C.3       3 GLC5        0.0000 
     31 CA         28.7150   11.5380   20.5230 C.3       9 GLL5        0.0000 
     32 CA         28.6465   12.9700   19.0553 C.3       3 GLC5        0.0000 
     33 CA         29.1680   14.4220   17.9510 C.3       6 GLP5        0.0000 
@<TRIPOS>BOND
@<TRIPOS>SUBSTRUCTURE
     1 SEC2       12 GROUP        1 X    SEC  0     ROOT SEC X 2
     2 LYC4        7 GROUP        1 X    LYC  0     **** LYC X 4
     3 GLC5        1 GROUP        1 X    GLC  0     **** GLC X 6
     4 SEP2       14 GROUP        1 Y    SEP  0     ROOT SEP Y 9
     5 LYP4        9 GROUP        1 Y    LYP  0     **** LYP Y 11
     6 GLP5        3 GROUP        1 Y    GLP  0     **** GLP Y 13
     7 SEL2       13 GROUP        1 Z    SEL  0     ROOT SEL Z 16
     8 LYL4        8 GROUP        1 Z    LYL  0     **** LYL Z 18
     9 GLL5        2 GROUP        1 Z    GLL  0     **** GLL Z 20
@<TRIPOS>SET

