#    Name: 2hds_4MB_1_ligand
#    Modification time : Tue Mar 25 15:55:44 2014

@<TRIPOS>MOLECULE
2hds_4MB_1_ligand
   22    22     1     0     0
SMALL
NO_CHARGES


@<TRIPOS>ATOM
      1 C3         27.3900    9.1420   20.1840 C.ar      1 4MB1601     0.0000 
      2 C5         29.2650   10.3480   21.0530 C.ar      1 4MB1601     0.0000 
      3 N1         25.6570   10.2090   18.9640 N.pl3     1 4MB1601     0.0000 
      4 C2         26.8580   10.2810   19.6600 C.ar      1 4MB1601     0.0000 
      5 C4         28.6120    9.1760   20.8460 C.ar      1 4MB1601     0.0000 
      6 C6         30.5540   10.4580   21.7800 C.2       1 4MB1601     0.0000 
      7 C9         28.7150   11.5380   20.5230 C.ar      1 4MB1601     0.0000 
      8 C12        24.1780   12.1270   20.0940 C.3       1 4MB1601     0.0000 
      9 C10        27.5350   11.4980   19.7960 C.ar      1 4MB1601     0.0000 
     10 O7         31.1890    9.3810   22.0130 O.co2     1 4MB1601     0.0000 
     11 O8         31.0120   11.5810   22.1260 O.co2     1 4MB1601     0.0000 
     12 S11        24.6950   11.4380   18.5990 S.o2      1 4MB1601     0.0000 
     13 O14        25.4200   12.4650   17.9240 O.2       1 4MB1601     0.0000 
     14 O13        23.5570   10.8780   17.9000 O.2       1 4MB1601     0.0000 
     15 H          26.8908    8.2386   20.0954 H         1 4MB1601     0.0000 
     16 H          25.2757    9.3018   18.6107 H         1 4MB1601     0.0000 
     17 H          29.0215    8.2796   21.1833 H         1 4MB1601     0.0000 
     18 H          29.2002   12.4284   20.6837 H         1 4MB1601     0.0000 
     19 H          27.1596   12.3439   19.3626 H         1 4MB1601     0.0000 
     20 H          24.9504   12.4498   20.6410 H         1 4MB1601     0.0000 
     21 H          23.5718   12.9096   19.9523 H         1 4MB1601     0.0000 
     22 H          23.6779   11.4665   20.6541 H         1 4MB1601     0.0000 
@<TRIPOS>BOND
     1    4    1 ar   
     2    5    1 ar   
     3   15    1 1    
     4    5    2 ar   
     5    6    2 1    
     6    7    2 ar   
     7    4    3 1    
     8   12    3 1    
     9   16    3 1    
    10    9    4 ar   
    11   17    5 1    
    12   10    6 ar   
    13   11    6 ar   
    14    9    7 ar   
    15   18    7 1    
    16   12    8 1    
    17   20    8 1    
    18   21    8 1    
    19   22    8 1    
    20   19    9 1    
    21   13   12 2    
    22   14   12 2    
@<TRIPOS>SUBSTRUCTURE
     1 4MB1601     1 GROUP   
@<TRIPOS>SET

