#    Name: 3inh_569_1_INTS_M
#    Modification time : Tue Mar 25 16:48:26 2014

@<TRIPOS>MOLECULE
3inh_569_1_INTS_M
   55     0    12     0     0
SMALL
NO_CHARGES


@<TRIPOS>ATOM
      1 CA         18.1075  -11.0130   15.0945 C.3       4 GLC5        0.0000 
      2 CA         18.0930  -12.2350   16.4360 C.3      12 GLL5        0.0000 
      3 CA         18.1220   -9.7910   13.7530 C.3       8 GLP5        0.0000 
      4 O          15.0320   -7.3590   14.1310 O.2       1 ALC1        0.0000 
      5 O          14.6830   -6.8270   15.3100 O.2       9 ALL1        0.0000 
      6 O          15.3810   -7.8910   12.9520 O.2       5 ALP1        0.0000 
      7 N          15.1285  -13.8770   17.7685 N.am      2 SEC2        0.0000 
      8 N          16.0930  -12.7310   17.4230 N.am     10 SEL2        0.0000 
      9 N          14.1640  -15.0230   18.1140 N.am      6 SEP2        0.0000 
     10 O          16.1095   -5.5250   13.4380 O.2       1 ALC1        0.0000 
     11 O          16.1750   -5.0820   14.7500 O.2       9 ALL1        0.0000 
     12 O          16.0440   -5.9680   12.1260 O.2       5 ALP1        0.0000 
     13 O          15.7780   -6.4865   13.8510 O.2       1 ALC1        0.0000 
     14 O          16.8630   -3.9035   14.8200 O.2       1 ALC1        0.0000 
     15 O          17.5510   -2.7250   14.8900 O.2       5 ALP1        0.0000 
     16 OD1        15.7780   -6.4865   13.8510 O.co2     3 ASC3        0.0000 
     17 OD1        15.4190   -5.8030   15.6330 O.co2    11 ASL3        0.0000 
     18 OD1        16.0440   -5.9680   12.1260 O.co2     7 ASP3        0.0000 
     19 OD1        15.0320   -7.3590   14.1310 O.co2     3 ASC3        0.0000 
     20 OD1        15.3810   -7.8910   12.9520 O.co2     7 ASP3        0.0000 
     21 OD1        16.8630   -3.9035   14.8200 O.co2     3 ASC3        0.0000 
     22 OD1        17.5510   -2.7250   14.8900 O.co2     7 ASP3        0.0000 
     23 CA          7.1260   -6.1770   16.4390 C.3       4 GLC5        0.0000 
     24 CA          8.5020   -7.1070   16.3820 C.3      12 GLL5        0.0000 
     25 CA          5.7500   -5.2470   16.4960 C.3       8 GLP5        0.0000 
     26 CA          7.8400   -7.5065   15.0285 C.3       4 GLC5        0.0000 
     27 CA          7.1780   -7.9060   13.6750 C.3       8 GLP5        0.0000 
     28 CA         12.1880   -3.8240   13.4875 C.3       4 GLC5        0.0000 
     29 CA         10.3870   -4.1860   14.3940 C.3      12 GLL5        0.0000 
     30 CA         13.9890   -3.4620   12.5810 C.3       8 GLP5        0.0000 
     31 CA          7.1475   -2.2835   14.0530 C.3       4 GLC5        0.0000 
     32 CA          8.9280   -2.4740   14.7080 C.3      12 GLL5        0.0000 
     33 CA          5.3670   -2.0930   13.3980 C.3       8 GLP5        0.0000 
     34 CA          8.4835   -2.5130   12.7205 C.3       4 GLC5        0.0000 
     35 CA          8.0390   -2.5520   10.7330 C.3       8 GLP5        0.0000 
     36 CA         17.4865  -14.2609   19.0415 C.3       4 GLC5        0.0000 
     37 CA         17.8160  -14.2300   17.3400 C.3      12 GLL5        0.0000 
     38 CA         17.1950  -15.0650   20.4030 C.3       8 GLP5        0.0000 
     39 CA         16.4962  -15.1698   17.0660 C.3       4 GLC5        0.0000 
     40 CA         15.3350  -16.7640   16.7450 C.3       8 GLP5        0.0000 
     41 CA         19.0901  -14.5255   17.8021 C.3       4 GLC5        0.0000 
     42 CA         20.3280  -15.6800   18.0490 C.3       8 GLP5        0.0000 
     43 CA         16.6172  -10.0843   14.8287 C.3       4 GLC5        0.0000 
     44 CA         14.8740   -9.7320   15.7840 C.3      12 GLL5        0.0000 
     45 CA         13.3895  -10.3114   15.0552 C.3       4 GLC5        0.0000 
     46 CA         15.3510  -11.0230   16.0250 C.3      12 GLL5        0.0000 
     47 CA         11.7180  -10.4700   13.9420 C.3       8 GLP5        0.0000 
     48 CA         11.5169   -9.3063   15.3670 C.3       4 GLC5        0.0000 
     49 CA         11.8080   -8.4680   16.9170 C.3      12 GLL5        0.0000 
     50 CA         11.2097   -6.6732   14.0120 C.3       4 GLC5        0.0000 
     51 CA         11.9950   -6.1960   16.1080 C.3      12 GLL5        0.0000 
     52 CA         11.1210   -7.2170   11.9510 C.3       8 GLP5        0.0000 
     53 CA         10.6590   -5.8557   13.4690 C.3       4 GLC5        0.0000 
     54 CA          7.6322   -4.8535   16.2135 C.3       4 GLC5        0.0000 
     55 CA         10.0070   -4.8030   15.5800 C.3      12 GLL5        0.0000 
@<TRIPOS>BOND
@<TRIPOS>SUBSTRUCTURE
     1 ALC1        4 GROUP        1 X    ALC  0     ROOT ALC X 1
     2 SEC2        7 GROUP        1 X    SEC  0     **** SEC X 2
     3 ASC3       16 GROUP        1 X    ASC  0     **** ASC X 3
     4 GLC5        1 GROUP        1 X    GLC  0     **** GLC X 6
     5 ALP1        6 GROUP        1 Y    ALP  0     ROOT ALP Y 8
     6 SEP2        9 GROUP        1 Y    SEP  0     **** SEP Y 9
     7 ASP3       18 GROUP        1 Y    ASP  0     **** ASP Y 10
     8 GLP5        3 GROUP        1 Y    GLP  0     **** GLP Y 13
     9 ALL1        5 GROUP        1 Z    ALL  0     ROOT ALL Z 15
    10 SEL2        8 GROUP        1 Z    SEL  0     **** SEL Z 16
    11 ASL3       17 GROUP        1 Z    ASL  0     **** ASL Z 17
    12 GLL5        2 GROUP        1 Z    GLL  0     **** GLL Z 20
@<TRIPOS>SET

