#    Name: 3inh_569_1_ligand
#    Modification time : Tue Mar 25 16:48:26 2014

@<TRIPOS>MOLECULE
3inh_569_1_ligand
   48    51     1     0     0
SMALL
NO_CHARGES


@<TRIPOS>ATOM
      1 C1         16.0900   -4.3700   17.5830 C.3       1 5691        0.0000 
      2 F1         18.0930  -12.2350   16.4360 F         1 5691        0.0000 
      3 N1         15.4120   -5.4950   16.9580 N.am      1 5691        0.0000 
      4 O1         14.4240   -6.4610   18.8290 O.2       1 5691        0.0000 
      5 C2         14.6650   -6.4230   17.6300 C.2       1 5691        0.0000 
      6 F2         17.9810  -12.4460   18.6060 F         1 5691        0.0000 
      7 N2         14.6830   -6.8270   15.3100 N.pl3     1 5691        0.0000 
      8 O2         16.0930  -12.7310   17.4230 O.3       1 5691        0.0000 
      9 C3         14.1430   -7.4110   16.5790 C.3       1 5691        0.0000 
     10 F3         17.8160  -14.2300   17.3400 F         1 5691        0.0000 
     11 N3         16.1750   -5.0820   14.7500 N.pl3     1 5691        0.0000 
     12 C4         15.4190   -5.8030   15.6330 C.cat     1 5691        0.0000 
     13 F4          8.5020   -7.1070   16.3820 F         1 5691        0.0000 
     14 N4          9.8720   -3.0270   13.9290 N.ar      1 5691        0.0000 
     15 C5         14.6680   -8.8330   16.8400 C.ar      1 5691        0.0000 
     16 N5          8.4630   -2.9550   15.8740 N.ar      1 5691        0.0000 
     17 C6         14.8740   -9.7320   15.7840 C.ar      1 5691        0.0000 
     18 C7         15.3510  -11.0230   16.0250 C.ar      1 5691        0.0000 
     19 C8         15.6310  -11.4470   17.3260 C.ar      1 5691        0.0000 
     20 C9         15.4300  -10.5660   18.3860 C.ar      1 5691        0.0000 
     21 C10        14.9540   -9.2730   18.1450 C.ar      1 5691        0.0000 
     22 C11        17.4990  -12.9210   17.4340 C.3       1 5691        0.0000 
     23 C12        12.6130   -7.3840   16.5410 C.ar      1 5691        0.0000 
     24 C13        11.8080   -8.4680   16.9170 C.ar      1 5691        0.0000 
     25 C14        10.4210   -8.3590   16.8550 C.ar      1 5691        0.0000 
     26 C15         9.8380   -7.1720   16.4220 C.ar      1 5691        0.0000 
     27 C16        10.6020   -6.0630   16.0380 C.ar      1 5691        0.0000 
     28 C17        11.9950   -6.1960   16.1080 C.ar      1 5691        0.0000 
     29 C18        10.0070   -4.8030   15.5800 C.ar      1 5691        0.0000 
     30 C19        10.3870   -4.1860   14.3940 C.ar      1 5691        0.0000 
     31 C20         8.9280   -2.4740   14.7080 C.ar      1 5691        0.0000 
     32 C21         9.0220   -4.1170   16.2820 C.ar      1 5691        0.0000 
     33 H          14.4618   -7.2164   14.4783 H         1 5691        0.0000 
     34 H          16.1557   -5.3913   13.7992 H         1 5691        0.0000 
     35 H          16.6807   -4.3088   15.1327 H         1 5691        0.0000 
     36 H          14.6702   -9.4346   14.8178 H         1 5691        0.0000 
     37 H          15.4976  -11.6685   15.2350 H         1 5691        0.0000 
     38 H          15.6312  -10.8643   19.3487 H         1 5691        0.0000 
     39 H          14.8087   -8.6269   18.9376 H         1 5691        0.0000 
     40 H          12.2441   -9.3396   17.2372 H         1 5691        0.0000 
     41 H           9.8302   -9.1531   17.1283 H         1 5691        0.0000 
     42 H          12.5936   -5.3929   15.8318 H         1 5691        0.0000 
     43 H          11.1427   -4.6764   13.8193 H         1 5691        0.0000 
     44 H           8.4930   -1.5369   14.3586 H         1 5691        0.0000 
     45 H           8.6965   -4.5478   17.2002 H         1 5691        0.0000 
     46 H          16.7602   -4.6707   18.2615 H         1 5691        0.0000 
     47 H          16.5809   -3.8133   16.9128 H         1 5691        0.0000 
     48 H          15.4482   -3.7643   18.0534 H         1 5691        0.0000 
@<TRIPOS>BOND
     1    3    1 1    
     2   46    1 1    
     3   47    1 1    
     4   48    1 1    
     5   22    2 1    
     6    5    3 am   
     7   12    3 ar   
     8    5    4 2    
     9    9    5 1    
    10   22    6 1    
    11    9    7 1    
    12   12    7 ar   
    13   33    7 1    
    14   19    8 1    
    15   22    8 1    
    16   15    9 1    
    17   23    9 1    
    18   22   10 1    
    19   12   11 ar   
    20   34   11 1    
    21   35   11 1    
    22   26   13 1    
    23   30   14 ar   
    24   31   14 ar   
    25   17   15 ar   
    26   21   15 ar   
    27   31   16 ar   
    28   32   16 ar   
    29   18   17 ar   
    30   36   17 1    
    31   19   18 ar   
    32   37   18 1    
    33   20   19 ar   
    34   21   20 ar   
    35   38   20 1    
    36   39   21 1    
    37   24   23 ar   
    38   28   23 ar   
    39   25   24 ar   
    40   40   24 1    
    41   26   25 ar   
    42   41   25 1    
    43   27   26 ar   
    44   28   27 ar   
    45   29   27 1    
    46   42   28 1    
    47   30   29 ar   
    48   32   29 ar   
    49   43   30 1    
    50   44   31 1    
    51   45   32 1    
@<TRIPOS>SUBSTRUCTURE
     1 5691        1 GROUP   
@<TRIPOS>SET

