#    Name: 3qqu_01P_2_INTS_M
#    Modification time : Tue Mar 25 10:02:42 2014

@<TRIPOS>MOLECULE
3qqu_01P_2_INTS_M
   86     0     6     0     0
SMALL
NO_CHARGES


@<TRIPOS>ATOM
      1 O          31.9660   75.7560   62.2350 O.2       1 ALC1        0.0000 
      2 O          32.4990   75.7020   60.8290 O.2       5 ALL1        0.0000 
      3 O          31.4330   75.8100   63.6410 O.2       3 ALP1        0.0000 
      4 CA         31.5230   72.5310   53.0095 C.3       2 GLC5        0.0000 
      5 CA         32.2210   74.3080   52.2460 C.3       6 GLL5        0.0000 
      6 CA         30.8250   70.7540   53.7730 C.3       4 GLP5        0.0000 
      7 CA         34.5125   72.5075   60.6165 C.3       2 GLC5        0.0000 
      8 CA         32.9100   72.3780   59.4230 C.3       6 GLL5        0.0000 
      9 CA         36.1150   72.6370   61.8100 C.3       4 GLP5        0.0000 
     10 CA         34.7650   71.2435   59.1325 C.3       2 GLC5        0.0000 
     11 CA         36.6200   70.1090   58.8420 C.3       4 GLP5        0.0000 
     12 CA         32.1620   70.5360   58.8595 C.3       2 GLC5        0.0000 
     13 CA         31.4140   68.6940   58.2960 C.3       4 GLP5        0.0000 
     14 CA         31.1530   72.3255   59.2470 C.3       2 GLC5        0.0000 
     15 CA         29.3960   72.2730   59.0710 C.3       4 GLP5        0.0000 
     16 CA         36.3250   73.8640   53.7825 C.3       2 GLC5        0.0000 
     17 CA         34.7260   74.0830   52.3410 C.3       6 GLL5        0.0000 
     18 CA         37.9240   73.6450   55.2240 C.3       4 GLP5        0.0000 
     19 O          33.2570   70.4350   57.2835 O.2       1 ALC1        0.0000 
     20 O          33.1320   71.7840   58.2140 O.2       5 ALL1        0.0000 
     21 O          33.3820   69.0860   56.3530 O.2       3 ALP1        0.0000 
     22 CA         35.3170   76.7590   55.9680 C.3       2 GLC5        0.0000 
     23 CA         33.3230   77.5110   56.1360 C.3       6 GLL5        0.0000 
     24 CA         37.3110   76.0070   55.8000 C.3       4 GLP5        0.0000 
     25 CA         34.2495   81.6210   56.1115 C.3       2 GLC5        0.0000 
     26 CA         32.8070   79.9740   55.8050 C.3       6 GLL5        0.0000 
     27 CA         35.6920   83.2680   56.4180 C.3       4 GLP5        0.0000 
     28 CA         35.3060   70.9885   57.3975 C.3       2 GLC5        0.0000 
     29 CA         33.9920   71.8680   55.9530 C.3       6 GLL5        0.0000 
     30 CA         32.2680   70.5640   57.6275 C.3       2 GLC5        0.0000 
     31 CA         33.1220   72.4340   56.9590 C.3       6 GLL5        0.0000 
     32 CA         36.0225   73.0045   54.9230 C.3       2 GLC5        0.0000 
     33 CA         34.1210   72.3640   54.6220 C.3       6 GLL5        0.0000 
     34 CA         28.5475   74.3630   54.3740 C.3       2 GLC5        0.0000 
     35 CA         30.2060   75.1040   54.9440 C.3       6 GLL5        0.0000 
     36 CA         26.8890   73.6220   53.8040 C.3       4 GLP5        0.0000 
     37 CA         29.0695   76.2575   55.1325 C.3       2 GLC5        0.0000 
     38 CA         27.9330   77.4110   55.3210 C.3       4 GLP5        0.0000 
     39 CA         30.7530   75.2815   59.7420 C.3       2 GLC5        0.0000 
     40 CA         32.4410   76.6740   59.8720 C.3       6 GLL5        0.0000 
     41 CA         29.0650   73.8890   59.6120 C.3       4 GLP5        0.0000 
     42 CA         34.6270   78.0535   58.6190 C.3       2 GLC5        0.0000 
     43 CA         32.8700   77.6000   57.5370 C.3       6 GLL5        0.0000 
     44 CA         36.3840   78.5070   59.7010 C.3       4 GLP5        0.0000 
     45 CA         33.8920   79.1485   59.2945 C.3       2 GLC5        0.0000 
     46 CA         32.3640   78.9220   58.1030 C.3       6 GLL5        0.0000 
     47 CA         35.4200   79.3750   60.4860 C.3       4 GLP5        0.0000 
     48 CA         33.6925   78.6520   60.4250 C.3       2 GLC5        0.0000 
     49 CA         31.9650   77.9290   60.3640 C.3       6 GLL5        0.0000 
     50 CA         32.7240   77.9215   62.2580 C.3       2 GLC5        0.0000 
     51 CA         33.4830   77.9140   64.1520 C.3       4 GLP5        0.0000 
     52 CA         31.5460   70.3930   60.6685 C.3       2 GLC5        0.0000 
     53 CA         32.4070   72.1080   61.7210 C.3       6 GLL5        0.0000 
     54 CA         30.6850   68.6780   59.6160 C.3       4 GLP5        0.0000 
     55 CA         30.9015   72.1905   60.3960 C.3       2 GLC5        0.0000 
     56 CA         31.2005   71.8580   62.9520 C.3       2 GLC5        0.0000 
     57 CA         30.0330   70.8970   64.1100 C.3       4 GLP5        0.0000 
     58 CA         33.1220   72.6530   63.8715 C.3       2 GLC5        0.0000 
     59 CA         33.8760   72.4870   65.9490 C.3       4 GLP5        0.0000 
     60 CA         30.7570   73.9098   60.4472 C.3       2 GLC5        0.0000 
     61 CA         32.3290   73.5300   61.8670 C.3       6 GLL5        0.0000 
     62 CA         30.8770   74.7297   61.9707 C.3       2 GLC5        0.0000 
     63 CA         32.5690   74.3310   60.6980 C.3       6 GLL5        0.0000 
     64 CA         29.3050   75.5290   62.6590 C.3       4 GLP5        0.0000 
     65 CA         34.9030   79.8080   54.9597 C.3       2 GLC5        0.0000 
     66 CA         33.2850   78.7000   55.2880 C.3       6 GLL5        0.0000 
     67 CA         36.7600   80.2790   54.3730 C.3       4 GLP5        0.0000 
     68 CA         30.6270   78.5482   57.3150 C.3       2 GLC5        0.0000 
     69 CA         32.3560   80.0870   57.1810 C.3       6 GLL5        0.0000 
     70 CA         28.8940   77.5920   56.9880 C.3       4 GLP5        0.0000 
     71 CA         35.3015   73.2120   56.9610 C.3       2 GLC5        0.0000 
     72 CA         37.0460   74.2730   57.4660 C.3       4 GLP5        0.0000 
     73 CA         32.1910   71.4525   55.1145 C.3       2 GLC5        0.0000 
     74 CA         31.0583   72.6440   57.9237 C.3       2 GLC5        0.0000 
     75 CA         31.5943   72.3140   54.8488 C.3       2 GLC5        0.0000 
     76 CA         32.3190   73.5960   56.5940 C.3       6 GLL5        0.0000 
     77 CA         32.2710   71.8462   54.1155 C.3       2 GLC5        0.0000 
     78 CA         33.3130   73.5130   54.2940 C.3       6 GLL5        0.0000 
     79 CA         34.4440   76.8253   59.6183 C.3       2 GLC5        0.0000 
     80 CA         32.8690   76.5490   58.4850 C.3       6 GLL5        0.0000 
     81 CA         36.2330   77.0390   60.0580 C.3       4 GLP5        0.0000 
     82 CA         30.7540   76.4153   61.3885 C.3       2 GLC5        0.0000 
     83 CA         30.8817   77.3333   57.4995 C.3       2 GLC5        0.0000 
     84 CA         32.7499   81.2301   58.1980 C.3       2 GLC5        0.0000 
     85 CA         33.0270   82.9840   59.0980 C.3       4 GLP5        0.0000 
     86 CA         34.2918   73.1060   61.5280 C.3       2 GLC5        0.0000 
@<TRIPOS>BOND
@<TRIPOS>SUBSTRUCTURE
     1 ALC1        1 GROUP        1 X    ALC  0     ROOT ALC X 1
     2 GLC5        4 GROUP        1 X    GLC  0     **** GLC X 6
     3 ALP1        3 GROUP        1 Y    ALP  0     ROOT ALP Y 8
     4 GLP5        6 GROUP        1 Y    GLP  0     **** GLP Y 13
     5 ALL1        2 GROUP        1 Z    ALL  0     ROOT ALL Z 15
     6 GLL5        5 GROUP        1 Z    GLL  0     **** GLL Z 20
@<TRIPOS>SET

