#    Name: 3qqu_01P_2_ligand
#    Modification time : Tue Mar 25 10:02:42 2014

@<TRIPOS>MOLECULE
3qqu_01P_2_ligand
   56    60     1     0     0
SMALL
NO_CHARGES


@<TRIPOS>ATOM
      1 C1         32.3290   73.5300   61.8670 C.ar      1 01P1        0.0000 
      2 N1         33.4200   73.9600   53.0140 N.3       1 01P1        0.0000 
      3 O1         33.8760   76.0080   51.5170 O.3       1 01P1        0.0000 
      4 C2         32.4860   75.6000   51.4550 C.3       1 01P1        0.0000 
      5 N2         32.4990   75.7020   60.8290 N.pl3     1 01P1        0.0000 
      6 O2         31.6350   75.3150   54.9870 O.3       1 01P1        0.0000 
      7 C3         32.2210   74.3080   52.2460 C.3       1 01P1        0.0000 
      8 N3         31.9440   78.9710   59.4890 N.ar      1 01P1        0.0000 
      9 C4         32.9100   72.3780   59.4230 C.ar      1 01P1        0.0000 
     10 N4         32.6950   71.5960   60.5040 N.ar      1 01P1        0.0000 
     11 C5         34.7260   74.0830   52.3410 C.3       1 01P1        0.0000 
     12 N5         32.8540   73.7320   59.5130 N.ar      1 01P1        0.0000 
     13 C6         34.6890   74.9360   51.0870 C.3       1 01P1        0.0000 
     14 N6         33.1320   71.7840   58.2140 N.pl3     1 01P1        0.0000 
     15 C7         33.3230   77.5110   56.1360 C.ar      1 01P1        0.0000 
     16 C8         33.2850   78.7000   55.2880 C.ar      1 01P1        0.0000 
     17 C9         32.8070   79.9740   55.8050 C.ar      1 01P1        0.0000 
     18 C10        32.3560   80.0870   57.1810 C.ar      1 01P1        0.0000 
     19 C11        33.9920   71.8680   55.9530 C.ar      1 01P1        0.0000 
     20 C12        33.1220   72.4340   56.9590 C.ar      1 01P1        0.0000 
     21 C13        32.3190   73.5960   56.5940 C.ar      1 01P1        0.0000 
     22 C14        32.4080   74.1520   55.2550 C.ar      1 01P1        0.0000 
     23 C15        33.3130   73.5130   54.2940 C.ar      1 01P1        0.0000 
     24 C16        34.1210   72.3640   54.6220 C.ar      1 01P1        0.0000 
     25 C17        30.2060   75.1040   54.9440 C.3       1 01P1        0.0000 
     26 C18        32.4410   76.6740   59.8720 C.ar      1 01P1        0.0000 
     27 C19        32.8690   76.5490   58.4850 C.ar      1 01P1        0.0000 
     28 C20        32.8700   77.6000   57.5370 C.ar      1 01P1        0.0000 
     29 C21        32.3640   78.9220   58.1030 C.ar      1 01P1        0.0000 
     30 C22        31.9650   77.9290   60.3640 C.ar      1 01P1        0.0000 
     31 C23        32.4070   72.1080   61.7210 C.ar      1 01P1        0.0000 
     32 C24        32.5690   74.3310   60.6980 C.ar      1 01P1        0.0000 
     33 H          32.1167   73.9508   62.7440 H         1 01P1        0.0000 
     34 H          32.1698   75.4240   50.4129 H         1 01P1        0.0000 
     35 H          31.8237   76.3825   51.8626 H         1 01P1        0.0000 
     36 H          32.4884   76.0658   61.8729 H         1 01P1        0.0000 
     37 H          31.3715   74.4806   52.9033 H         1 01P1        0.0000 
     38 H          31.9681   73.5221   51.5376 H         1 01P1        0.0000 
     39 H          35.1084   73.0789   52.0683 H         1 01P1        0.0000 
     40 H          35.4717   74.5179   53.0364 H         1 01P1        0.0000 
     41 H          35.6835   75.2390   50.8558 H         1 01P1        0.0000 
     42 H          34.2425   74.3671   50.3052 H         1 01P1        0.0000 
     43 H          33.3332   70.7331   58.1950 H         1 01P1        0.0000 
     44 H          33.6530   76.6392   55.7748 H         1 01P1        0.0000 
     45 H          33.5964   78.6346   54.3264 H         1 01P1        0.0000 
     46 H          32.7894   80.7842   55.2016 H         1 01P1        0.0000 
     47 H          32.0244   80.9783   57.5350 H         1 01P1        0.0000 
     48 H          34.5644   71.0358   56.2280 H         1 01P1        0.0000 
     49 H          31.7025   74.0116   57.2738 H         1 01P1        0.0000 
     50 H          34.7237   71.9521   53.9604 H         1 01P1        0.0000 
     51 H          33.1993   75.5996   58.1810 H         1 01P1        0.0000 
     52 H          31.6653   78.0051   61.3226 H         1 01P1        0.0000 
     53 H          32.2426   71.5251   62.5409 H         1 01P1        0.0000 
     54 H          29.9488   74.4464   54.2359 H         1 01P1        0.0000 
     55 H          29.8563   74.7517   55.8121 H         1 01P1        0.0000 
     56 H          29.7111   75.9512   54.7508 H         1 01P1        0.0000 
@<TRIPOS>BOND
     1   31    1 ar   
     2   32    1 ar   
     3   33    1 1    
     4    7    2 1    
     5   11    2 1    
     6   23    2 1    
     7    4    3 1    
     8   13    3 1    
     9    7    4 1    
    10   34    4 1    
    11   35    4 1    
    12   26    5 1    
    13   32    5 1    
    14   36    5 1    
    15   22    6 1    
    16   25    6 1    
    17   37    7 1    
    18   38    7 1    
    19   29    8 ar   
    20   30    8 ar   
    21   10    9 ar   
    22   12    9 ar   
    23   14    9 1    
    24   31   10 ar   
    25   13   11 1    
    26   39   11 1    
    27   40   11 1    
    28   32   12 ar   
    29   41   13 1    
    30   42   13 1    
    31   20   14 1    
    32   43   14 1    
    33   16   15 ar   
    34   28   15 ar   
    35   44   15 1    
    36   17   16 ar   
    37   45   16 1    
    38   18   17 ar   
    39   46   17 1    
    40   29   18 ar   
    41   47   18 1    
    42   20   19 ar   
    43   24   19 ar   
    44   48   19 1    
    45   21   20 ar   
    46   22   21 ar   
    47   49   21 1    
    48   23   22 ar   
    49   24   23 ar   
    50   50   24 1    
    51   54   25 1    
    52   55   25 1    
    53   56   25 1    
    54   27   26 ar   
    55   30   26 ar   
    56   28   27 ar   
    57   51   27 1    
    58   29   28 ar   
    59   52   30 1    
    60   53   31 1    
@<TRIPOS>SUBSTRUCTURE
     1 01P1        1 GROUP   
@<TRIPOS>SET

