#    Name: 3eey_SAM_1_INTS_M
#    Modification time : Tue Mar 25 01:39:19 2014

@<TRIPOS>MOLECULE
3eey_SAM_1_INTS_M
   80     0    12     0     0
SMALL
NO_CHARGES


@<TRIPOS>ATOM
      1 OD1         2.4285   -8.0515  -49.6670 O.co2     3 ASC3        0.0000 
      2 OD1         3.5270   -6.8040  -50.0560 O.co2    11 ASL3        0.0000 
      3 OD1         1.3300   -9.2990  -49.2780 O.co2     7 ASP3        0.0000 
      4 O           4.8605   -7.3360  -50.6870 O.2       1 ALC1        0.0000 
      5 O           3.5270   -6.8040  -50.0560 O.2       9 ALL1        0.0000 
      6 O           6.1940   -7.8680  -51.3180 O.2       5 ALP1        0.0000 
      7 O           3.6240   -8.1740  -50.4110 O.2       1 ALC1        0.0000 
      8 O           3.7210   -9.5440  -50.7660 O.2       5 ALP1        0.0000 
      9 O           4.3390   -7.2725  -48.9760 O.2       1 ALC1        0.0000 
     10 O           5.1510   -7.7410  -47.8960 O.2       5 ALP1        0.0000 
     11 N           5.4780   -3.1925  -48.2950 N.am      2 SEC2        0.0000 
     12 N           3.9360   -3.4190  -48.7480 N.am     10 SEL2        0.0000 
     13 N           7.0200   -2.9660  -47.8420 N.am      6 SEP2        0.0000 
     14 N           4.0395   -5.6075  -46.2320 N.am      2 SEC2        0.0000 
     15 N           3.5380   -5.2490  -47.7720 N.am     10 SEL2        0.0000 
     16 N           4.5410   -5.9660  -44.6920 N.am      6 SEP2        0.0000 
     17 N           3.0590   -4.2120  -46.5900 N.am      2 SEC2        0.0000 
     18 N           2.5800   -3.1750  -45.4080 N.am      6 SEP2        0.0000 
     19 CA          5.3430   -6.7125  -53.2805 C.3       4 GLC5        0.0000 
     20 CA          4.5350   -5.0020  -52.5540 C.3      12 GLL5        0.0000 
     21 CA          6.1510   -8.4230  -54.0070 C.3       8 GLP5        0.0000 
     22 CA          5.5695   -1.6295  -53.5585 C.3       4 GLC5        0.0000 
     23 CA          4.7340   -3.6050  -53.6930 C.3      12 GLL5        0.0000 
     24 CA          6.4050    0.3460  -53.4240 C.3       8 GLP5        0.0000 
     25 CA          4.4270   -1.7795  -52.6460 C.3       4 GLC5        0.0000 
     26 CA          4.1200    0.0460  -51.5990 C.3       8 GLP5        0.0000 
     27 CA          2.4760   -5.5870  -53.8485 C.3       4 GLC5        0.0000 
     28 CA          3.0800   -3.5510  -54.4370 C.3      12 GLL5        0.0000 
     29 CA          1.8720   -7.6230  -53.2600 C.3       8 GLP5        0.0000 
     30 CA          3.0500   -3.2230  -56.5355 C.3       4 GLC5        0.0000 
     31 CA          3.0200   -2.8950  -58.6340 C.3       8 GLP5        0.0000 
     32 CA          7.9350   -1.4295  -53.6990 C.3       4 GLC5        0.0000 
     33 CA          8.0080   -3.3280  -54.4500 C.3      12 GLL5        0.0000 
     34 CA          7.8620    0.4690  -52.9480 C.3       8 GLP5        0.0000 
     35 O           9.4005   -4.2215  -52.6990 O.2       1 ALC1        0.0000 
     36 O           8.5800   -3.1890  -53.1700 O.2       9 ALL1        0.0000 
     37 O          10.2210   -5.2540  -52.2280 O.2       5 ALP1        0.0000 
     38 N          10.7740   -1.5395  -55.2400 N.am      2 SEC2        0.0000 
     39 N          10.3090   -2.9240  -55.1790 N.am     10 SEL2        0.0000 
     40 N          11.2390   -0.1550  -55.3010 N.am      6 SEP2        0.0000 
     41 O          11.0510   -3.7295  -54.3700 O.2       1 ALC1        0.0000 
     42 O          10.3090   -2.9240  -55.1790 O.2       9 ALL1        0.0000 
     43 O          11.7930   -4.5350  -53.5610 O.2       5 ALP1        0.0000 
     44 CA         12.0630   -5.5755  -58.4765 C.3       4 GLC5        0.0000 
     45 CA         10.7110   -6.9810  -58.2160 C.3      12 GLL5        0.0000 
     46 CA         13.4150   -4.1700  -58.7370 C.3       8 GLP5        0.0000 
     47 CA         12.9985   -7.4625  -58.0590 C.3       4 GLC5        0.0000 
     48 CA         11.3730   -8.1500  -58.5760 C.3      12 GLL5        0.0000 
     49 CA         14.6240   -6.7750  -57.5420 C.3       8 GLP5        0.0000 
     50 CA         12.9790   -9.3150  -58.2315 C.3       4 GLC5        0.0000 
     51 CA         14.5850  -10.4800  -57.8870 C.3       8 GLP5        0.0000 
     52 CA         10.5900   -9.8085  -58.8460 C.3       4 GLC5        0.0000 
     53 CA          9.8070  -11.4670  -59.1160 C.3       8 GLP5        0.0000 
     54 O          12.3565   -9.7685  -60.2590 O.2       1 ALC1        0.0000 
     55 O          11.7560   -8.3830  -59.8290 O.2       9 ALL1        0.0000 
     56 O          12.9570  -11.1540  -60.6890 O.2       5 ALP1        0.0000 
     57 N          12.1255  -10.4560  -57.5570 N.am      2 SEC2        0.0000 
     58 N          11.6400   -9.0880  -57.6040 N.am     10 SEL2        0.0000 
     59 N          12.6110  -11.8240  -57.5100 N.am      6 SEP2        0.0000 
     60 CA         11.7285  -10.3240  -54.6485 C.3       4 GLC5        0.0000 
     61 CA         11.2710   -8.8980  -56.2900 C.3      12 GLL5        0.0000 
     62 CA         12.1860  -11.7500  -53.0070 C.3       8 GLP5        0.0000 
     63 CA         12.0530   -8.1200  -54.6670 C.3       4 GLC5        0.0000 
     64 CA         12.8350   -7.3420  -53.0440 C.3       8 GLP5        0.0000 
     65 CA         12.9475   -7.8365  -56.9160 C.3       4 GLC5        0.0000 
     66 CA         12.9280   -9.6890  -57.0885 C.3       4 GLC5        0.0000 
     67 CA         10.4900  -10.3035  -57.0375 C.3       4 GLC5        0.0000 
     68 CA          9.7090  -11.7090  -57.7850 C.3       8 GLP5        0.0000 
     69 CA         11.9755   -5.6445  -57.0775 C.3       4 GLC5        0.0000 
     70 CA         10.3390   -6.8070  -56.8880 C.3      12 GLL5        0.0000 
     71 CA         13.6120   -4.4820  -57.2670 C.3       8 GLP5        0.0000 
     72 CA          5.9741   -4.4701  -50.7871 C.3       4 GLC5        0.0000 
     73 CA          3.6740   -4.6810  -51.3360 C.3      12 GLL5        0.0000 
     74 CA          7.7310   -3.9110  -49.9410 C.3       8 GLP5        0.0000 
     75 CA          3.0446   -6.3261  -52.4466 C.3       4 GLC5        0.0000 
     76 CA          4.1250   -5.4320  -50.0890 C.3      12 GLL5        0.0000 
     77 CA          6.3085   -6.4582  -54.3665 C.3       4 GLC5        0.0000 
     78 CA          5.7530   -4.3760  -54.9800 C.3      12 GLL5        0.0000 
     79 CA          8.5650   -6.7500  -58.2770 C.3       4 GLC5        0.0000 
     80 CA          6.6050   -6.6060  -59.0020 C.3       8 GLP5        0.0000 
@<TRIPOS>BOND
@<TRIPOS>SUBSTRUCTURE
     1 ALC1        4 GROUP        1 X    ALC  0     ROOT ALC X 1
     2 SEC2       11 GROUP        1 X    SEC  0     **** SEC X 2
     3 ASC3        1 GROUP        1 X    ASC  0     **** ASC X 3
     4 GLC5       19 GROUP        1 X    GLC  0     **** GLC X 6
     5 ALP1        6 GROUP        1 Y    ALP  0     ROOT ALP Y 8
     6 SEP2       13 GROUP        1 Y    SEP  0     **** SEP Y 9
     7 ASP3        3 GROUP        1 Y    ASP  0     **** ASP Y 10
     8 GLP5       21 GROUP        1 Y    GLP  0     **** GLP Y 13
     9 ALL1        5 GROUP        1 Z    ALL  0     ROOT ALL Z 15
    10 SEL2       12 GROUP        1 Z    SEL  0     **** SEL Z 16
    11 ASL3        2 GROUP        1 Z    ASL  0     **** ASL Z 17
    12 GLL5       20 GROUP        1 Z    GLL  0     **** GLL Z 20
@<TRIPOS>SET

