#    Name: 3eey_SAM_1_ligand
#    Modification time : Tue Mar 25 01:39:19 2014

@<TRIPOS>MOLECULE
3eey_SAM_1_ligand
   50    52     1     0     0
SMALL
NO_CHARGES


@<TRIPOS>ATOM
      1 N           3.5270   -6.8040  -50.0560 N.4       1 SAM300      0.0000 
      2 CA          4.1250   -5.4320  -50.0890 C.3       1 SAM300      0.0000 
      3 C           3.8470   -4.6510  -48.8020 C.2       1 SAM300      0.0000 
      4 O           3.9360   -3.4190  -48.7480 O.co2     1 SAM300      0.0000 
      5 OXT         3.5380   -5.2490  -47.7720 O.co2     1 SAM300      0.0000 
      6 CB          3.6740   -4.6810  -51.3360 C.3       1 SAM300      0.0000 
      7 CG          4.5350   -5.0020  -52.5540 C.3       1 SAM300      0.0000 
      8 SD          4.7340   -3.6050  -53.6930 S.3       1 SAM300      0.0000 
      9 CE          3.0800   -3.5510  -54.4370 C.3       1 SAM300      0.0000 
     10 C5'         5.7530   -4.3760  -54.9800 C.3       1 SAM300      0.0000 
     11 C4'         7.1790   -4.6110  -54.4720 C.3       1 SAM300      0.0000 
     12 O4'         7.8680   -5.5370  -55.2910 O.3       1 SAM300      0.0000 
     13 C3'         8.0080   -3.3280  -54.4500 C.3       1 SAM300      0.0000 
     14 O3'         8.5800   -3.1890  -53.1700 O.3       1 SAM300      0.0000 
     15 C2'         9.0760   -3.5370  -55.5060 C.3       1 SAM300      0.0000 
     16 O2'        10.3090   -2.9240  -55.1790 O.3       1 SAM300      0.0000 
     17 C1'         9.1770   -5.0580  -55.5330 C.3       1 SAM300      0.0000 
     18 N9          9.7150   -5.5980  -56.7970 N.pl3     1 SAM300      0.0000 
     19 C8          9.7080   -5.0290  -58.0490 C.2       1 SAM300      0.0000 
     20 N7         10.3180   -5.8830  -58.9080 N.2       1 SAM300      0.0000 
     21 C5         10.7110   -6.9810  -58.2160 C.ar      1 SAM300      0.0000 
     22 C6         11.3730   -8.1500  -58.5760 C.ar      1 SAM300      0.0000 
     23 N6         11.7560   -8.3830  -59.8290 N.pl3     1 SAM300      0.0000 
     24 N1         11.6400   -9.0880  -57.6040 N.ar      1 SAM300      0.0000 
     25 C2         11.2710   -8.8980  -56.2900 C.ar      1 SAM300      0.0000 
     26 N3         10.6090   -7.7470  -55.9460 N.ar      1 SAM300      0.0000 
     27 C4         10.3390   -6.8070  -56.8880 C.ar      1 SAM300      0.0000 
     28 H           5.2278   -5.5500  -50.1660 H         1 SAM300      0.0000 
     29 H           3.7163   -3.6027  -51.1414 H         1 SAM300      0.0000 
     30 H           2.6316   -4.9414  -51.5554 H         1 SAM300      0.0000 
     31 H           4.1103   -5.7589  -53.1924 H         1 SAM300      0.0000 
     32 H           5.5556   -5.2427  -52.3067 H         1 SAM300      0.0000 
     33 H           5.6950   -3.6698  -55.7729 H         1 SAM300      0.0000 
     34 H           5.2218   -5.2737  -55.1867 H         1 SAM300      0.0000 
     35 H           7.1206   -4.9770  -53.4487 H         1 SAM300      0.0000 
     36 H           7.3859   -2.5266  -54.7355 H         1 SAM300      0.0000 
     37 H           8.6674   -3.2307  -56.4456 H         1 SAM300      0.0000 
     38 H           9.8289   -5.3461  -54.7027 H         1 SAM300      0.0000 
     39 H           9.3331   -4.1740  -58.2661 H         1 SAM300      0.0000 
     40 H          11.5544   -7.6621  -60.4920 H         1 SAM300      0.0000 
     41 H          12.2109   -9.2581  -59.9945 H         1 SAM300      0.0000 
     42 H          11.4894   -9.6082  -55.5821 H         1 SAM300      0.0000 
     43 H           2.5946   -6.8115  -50.4175 H         1 SAM300      0.0000 
     44 H           4.0577   -7.4536  -50.6004 H         1 SAM300      0.0000 
     45 H           3.4836   -7.1680  -49.1256 H         1 SAM300      0.0000 
     46 H           2.9410   -2.7184  -54.9732 H         1 SAM300      0.0000 
     47 H           2.9235   -4.3246  -55.0510 H         1 SAM300      0.0000 
     48 H           2.3599   -3.5767  -53.7436 H         1 SAM300      0.0000 
     49 H           9.1082   -4.0265  -53.0304 H         1 SAM300      0.0000 
     50 H          10.9393   -3.6826  -55.0141 H         1 SAM300      0.0000 
@<TRIPOS>BOND
     1    2    1 1    
     2   43    1 1    
     3   44    1 1    
     4   45    1 1    
     5    3    2 1    
     6    6    2 1    
     7   28    2 1    
     8    4    3 ar   
     9    5    3 ar   
    10    7    6 1    
    11   29    6 1    
    12   30    6 1    
    13    8    7 1    
    14   31    7 1    
    15   32    7 1    
    16    9    8 1    
    17   10    8 1    
    18   46    9 1    
    19   47    9 1    
    20   48    9 1    
    21   11   10 1    
    22   33   10 1    
    23   34   10 1    
    24   12   11 1    
    25   13   11 1    
    26   35   11 1    
    27   17   12 1    
    28   14   13 1    
    29   15   13 1    
    30   36   13 1    
    31   49   14 1    
    32   16   15 1    
    33   17   15 1    
    34   37   15 1    
    35   50   16 1    
    36   18   17 1    
    37   38   17 1    
    38   19   18 1    
    39   27   18 1    
    40   20   19 2    
    41   39   19 1    
    42   21   20 1    
    43   22   21 ar   
    44   27   21 ar   
    45   23   22 1    
    46   24   22 ar   
    47   40   23 1    
    48   41   23 1    
    49   25   24 ar   
    50   26   25 ar   
    51   42   25 1    
    52   27   26 ar   
@<TRIPOS>SUBSTRUCTURE
     1 SAM300      1 GROUP   
@<TRIPOS>SET

