#    Name: 1HV9_1_CAVITY_N1_6.mol2
#    Modification time : Tue Mar 11 07:02:46 2014

@<TRIPOS>MOLECULE
1HV9_1_CAVITY_N1_6.mol2
  128     0     6     0     0
SMALL
NO_CHARGES


@<TRIPOS>ATOM
      1 OG        -16.7713   29.3753  343.3241 O.2       1 SER1        0.0000 
      2 OG        -17.9809   29.1141  344.1719 O.2       1 SER1        0.0000 
      3 OG        -19.1905   28.8530  345.0196 O.2       1 SER1        0.0000 
      4 NZ        -20.4001   28.5919  345.8674 N.2       3 LYS4        0.0000 
      5 CA        -15.5764   28.2090  342.0157 C.3       5 GLY6        0.0000 
      6 NZ        -16.7860   27.9478  342.8634 N.2       3 LYS4        0.0000 
      7 NZ        -17.9956   27.6867  343.7112 N.2       3 LYS4        0.0000 
      8 DU        -19.2052   27.4256  344.5589 H         6 CUB7        0.0000 
      9 NZ        -20.4148   27.1644  345.4067 N.2       3 LYS4        0.0000 
     10 NZ        -19.2199   25.9981  344.0982 N.2       3 LYS4        0.0000 
     11 N         -20.4295   25.7370  344.9460 N.2       2 ALA2        0.0000 
     12 NZ        -21.6391   25.4759  345.7938 N.2       3 LYS4        0.0000 
     13 NZ        -19.2347   24.5707  343.6375 N.2       3 LYS4        0.0000 
     14 N         -20.4443   24.3096  344.4853 N.2       2 ALA2        0.0000 
     15 N         -19.2494   23.1433  343.1768 N.2       2 ALA2        0.0000 
     16 N         -10.2842   23.0751  347.9853 N.2       2 ALA2        0.0000 
     17 CZ        -11.4938   22.8140  348.8331 C.ar      4 PHE5        0.0000 
     18 CZ        -12.7034   22.5529  349.6808 C.ar      4 PHE5        0.0000 
     19 NZ        -13.9130   22.2917  350.5286 N.2       3 LYS4        0.0000 
     20 NZ        -15.1226   22.0306  351.3763 N.2       3 LYS4        0.0000 
     21 N          -9.0894   21.9088  346.6768 N.2       2 ALA2        0.0000 
     22 N         -10.2990   21.6477  347.5246 N.2       2 ALA2        0.0000 
     23 O         -11.5086   21.3866  348.3724 O.2       2 ALA2        0.0000 
     24 CA        -12.7181   21.1254  349.2201 C.3       5 GLY6        0.0000 
     25 O         -13.9277   20.8643  350.0679 O.2       2 ALA2        0.0000 
     26 N         -15.1373   20.6032  350.9156 N.2       2 ALA2        0.0000 
     27 N          -9.1041   20.4814  346.2161 N.2       2 ALA2        0.0000 
     28 N         -10.3137   20.2203  347.0639 N.2       2 ALA2        0.0000 
     29 O         -11.5233   19.9592  347.9117 O.2       2 ALA2        0.0000 
     30 CA        -12.7329   19.6980  348.7594 C.3       5 GLY6        0.0000 
     31 O         -13.9425   19.4369  349.6072 O.2       2 ALA2        0.0000 
     32 N          -9.1188   19.0540  345.7554 N.2       2 ALA2        0.0000 
     33 OG        -10.3284   18.7929  346.6032 O.2       1 SER1        0.0000 
     34 OG        -11.5380   18.5317  347.4510 O.2       1 SER1        0.0000 
     35 OG        -12.7476   18.2706  348.2987 O.2       1 SER1        0.0000 
     36 O         -13.9572   18.0095  349.1465 O.2       2 ALA2        0.0000 
     37 OG        -12.7623   16.8432  347.8380 O.2       1 SER1        0.0000 
     38 CA        -11.8165   22.1730  350.8293 C.3       5 GLY6        0.0000 
     39 NZ        -13.0261   21.9119  351.6771 N.2       3 LYS4        0.0000 
     40 O         -10.6216   21.0067  349.5209 O.2       2 ALA2        0.0000 
     41 CA        -13.0408   20.4845  351.2164 C.3       5 GLY6        0.0000 
     42 CA        -13.0555   19.0571  350.7557 C.3       5 GLY6        0.0000 
     43 N          -9.4415   18.4130  347.7517 N.2       2 ALA2        0.0000 
     44 O         -10.6511   18.1519  348.5995 O.2       2 ALA2        0.0000 
     45 O         -11.8607   17.8908  349.4472 O.2       2 ALA2        0.0000 
     46 CZ        -14.4626   24.7400  347.8445 C.ar      4 PHE5        0.0000 
     47 CZ        -13.2677   23.5737  346.5361 C.ar      4 PHE5        0.0000 
     48 CZ        -14.4773   23.3125  347.3838 C.ar      4 PHE5        0.0000 
     49 DU        -15.6869   23.0514  348.2316 H         6 CUB7        0.0000 
     50 CZ        -12.0728   22.4074  345.2276 C.ar      4 PHE5        0.0000 
     51 CZ        -13.2824   22.1462  346.0754 C.ar      4 PHE5        0.0000 
     52 DU        -14.4920   21.8851  346.9231 H         6 CUB7        0.0000 
     53 DU        -16.9112   21.3628  348.6186 H         6 CUB7        0.0000 
     54 CZ        -14.5068   20.4577  346.4624 C.ar      4 PHE5        0.0000 
     55 CZ        -12.3808   23.1938  347.6846 C.ar      4 PHE5        0.0000 
     56 CZ        -13.5904   22.9327  348.5323 C.ar      4 PHE5        0.0000 
     57 DU        -14.8000   22.6716  349.3801 H         6 CUB7        0.0000 
     58 N         -16.0096   22.4104  350.2278 N.2       2 ALA2        0.0000 
     59 N         -17.2191   22.1493  351.0756 N.2       2 ALA2        0.0000 
     60 N         -11.1859   22.0275  346.3761 N.2       2 ALA2        0.0000 
     61 DU        -12.3955   21.7664  347.2239 H         6 CUB7        0.0000 
     62 DU        -13.6051   21.5053  348.0716 H         6 CUB7        0.0000 
     63 DU        -14.8147   21.2441  348.9194 H         6 CUB7        0.0000 
     64 N         -16.0243   20.9830  349.7671 N.2       2 ALA2        0.0000 
     65 N         -17.2339   20.7219  350.6149 N.2       2 ALA2        0.0000 
     66 CZ         -9.9910   20.8613  345.0676 C.ar      4 PHE5        0.0000 
     67 CZ        -11.2006   20.6001  345.9154 C.ar      4 PHE5        0.0000 
     68 CZ        -12.4102   20.3390  346.7632 C.ar      4 PHE5        0.0000 
     69 CZ        -13.6198   20.0779  347.6109 C.ar      4 PHE5        0.0000 
     70 O         -14.8294   19.8167  348.4587 O.2       2 ALA2        0.0000 
     71 CZ        -10.0058   19.4338  344.6069 C.ar      4 PHE5        0.0000 
     72 CZ        -13.6345   18.6504  347.1502 C.ar      4 PHE5        0.0000 
     73 CA        -14.6748   29.2566  343.6249 C.3       5 GLY6        0.0000 
     74 OG        -15.8844   28.9954  344.4726 O.2       1 SER1        0.0000 
     75 CA        -19.5131   28.2120  347.0159 C.3       5 GLY6        0.0000 
     76 CA        -20.7227   27.9509  347.8637 C.3       5 GLY6        0.0000 
     77 O         -14.6895   27.8291  343.1642 O.2       2 ALA2        0.0000 
     78 OG        -15.8991   27.5680  344.0119 O.2       1 SER1        0.0000 
     79 OG        -17.1087   27.3069  344.8597 O.2       1 SER1        0.0000 
     80 CA        -18.3183   27.0457  345.7075 C.3       5 GLY6        0.0000 
     81 NZ        -19.5279   26.7846  346.5552 N.2       3 LYS4        0.0000 
     82 NZ        -20.7375   26.5235  347.4030 N.2       3 LYS4        0.0000 
     83 NZ        -21.9471   26.2623  348.2507 N.2       3 LYS4        0.0000 
     84 NZ        -14.7042   26.4017  342.7035 N.2       3 LYS4        0.0000 
     85 NZ        -15.9138   26.1406  343.5512 N.2       3 LYS4        0.0000 
     86 NZ        -17.1234   25.8794  344.3990 N.2       3 LYS4        0.0000 
     87 DU        -18.3330   25.6183  345.2468 H         6 CUB7        0.0000 
     88 DU        -19.5426   25.3572  346.0945 H         6 CUB7        0.0000 
     89 NZ        -14.7189   24.9743  342.2428 N.2       3 LYS4        0.0000 
     90 NZ        -15.9285   24.7132  343.0905 N.2       3 LYS4        0.0000 
     91 NZ        -17.1381   24.4520  343.9383 N.2       3 LYS4        0.0000 
     92 NZ        -18.3477   24.1909  344.7860 N.2       3 LYS4        0.0000 
     93 DU        -19.5573   23.9298  345.6338 H         6 CUB7        0.0000 
     94 NZ        -15.9433   23.2857  342.6298 N.2       3 LYS4        0.0000 
     95 N         -17.1529   23.0246  343.4776 N.2       2 ALA2        0.0000 
     96 N         -18.3624   22.7635  344.3253 N.2       2 ALA2        0.0000 
     97 OG        -14.9974   28.6156  345.6211 O.2       1 SER1        0.0000 
     98 OG        -13.8025   27.4493  344.3127 O.2       1 SER1        0.0000 
     99 OG        -15.0121   27.1882  345.1604 O.2       1 SER1        0.0000 
    100 CA        -16.2217   26.9270  346.0082 C.3       5 GLY6        0.0000 
    101 CA        -17.4313   26.6659  346.8560 C.3       5 GLY6        0.0000 
    102 CA        -18.6409   26.4048  347.7037 C.3       5 GLY6        0.0000 
    103 O         -13.8173   26.0219  343.8520 O.2       2 ALA2        0.0000 
    104 OG        -15.0269   25.7608  344.6997 O.2       1 SER1        0.0000 
    105 OG        -16.2365   25.4996  345.5475 O.2       1 SER1        0.0000 
    106 DU        -17.4461   25.2385  346.3953 H         6 CUB7        0.0000 
    107 N         -13.8320   24.5945  343.3913 N.2       2 ALA2        0.0000 
    108 DU        -15.0416   24.3333  344.2390 H         6 CUB7        0.0000 
    109 DU        -16.2512   24.0722  345.0868 H         6 CUB7        0.0000 
    110 DU        -17.4608   23.8111  345.9346 H         6 CUB7        0.0000 
    111 O         -13.8467   23.1670  342.9306 O.2       2 ALA2        0.0000 
    112 N         -15.0563   22.9059  343.7783 N.2       2 ALA2        0.0000 
    113 N         -16.2659   22.6448  344.6261 N.2       2 ALA2        0.0000 
    114 DU        -17.4755   22.3836  345.4739 H         6 CUB7        0.0000 
    115 N         -15.0710   21.4785  343.3176 N.2       2 ALA2        0.0000 
    116 N         -16.2806   21.2173  344.1654 N.2       2 ALA2        0.0000 
    117 CZ        -18.8678   29.4940  343.0234 C.ar      4 PHE5        0.0000 
    118 CZ        -18.8826   28.0665  342.5627 C.ar      4 PHE5        0.0000 
    119 CZ        -20.0921   27.8054  343.4104 C.ar      4 PHE5        0.0000 
    120 N         -20.1069   26.3780  342.9497 N.2       2 ALA2        0.0000 
    121 OG        -15.3495   25.1198  346.6960 O.2       1 SER1        0.0000 
    122 N         -12.9451   24.2146  344.5398 N.2       2 ALA2        0.0000 
    123 OG        -14.1547   23.9535  345.3875 O.2       1 SER1        0.0000 
    124 DU        -15.3642   23.6924  346.2353 H         6 CUB7        0.0000 
    125 N         -12.9598   22.7872  344.0791 N.2       2 ALA2        0.0000 
    126 CZ        -14.1694   22.5261  344.9268 C.ar      4 PHE5        0.0000 
    127 DU        -15.3790   22.2649  345.7746 H         6 CUB7        0.0000 
    128 CZ        -15.3937   20.8375  345.3139 C.ar      4 PHE5        0.0000 
@<TRIPOS>BOND
@<TRIPOS>SUBSTRUCTURE
     1 SER1        1 GROUP   
     2 ALA2       11 GROUP   
     3 LYS4        4 GROUP   
     4 PHE5       17 GROUP   
     5 GLY6        5 GROUP   
     6 CUB7        8 GROUP   
@<TRIPOS>SET

