#    Name: 1hv9_UD1_1_INTS_M
#    Modification time : Tue Mar 25 06:15:52 2014

@<TRIPOS>MOLECULE
1hv9_UD1_1_INTS_M
   79     0     9     0     0
SMALL
NO_CHARGES


@<TRIPOS>ATOM
      1 CA        -13.8730   26.1870  346.6375 C.3       3 GLC5        0.0000 
      2 CA        -15.3860   25.5330  345.1550 C.3       9 GLL5        0.0000 
      3 CA        -12.3600   26.8410  348.1200 C.3       6 GLP5        0.0000 
      4 CA        -14.5215   24.4410  340.8700 C.3       3 GLC5        0.0000 
      5 CA        -14.5560   25.1160  342.8230 C.3       9 GLL5        0.0000 
      6 CA        -14.4870   23.7660  338.9170 C.3       6 GLP5        0.0000 
      7 CA        -11.9585   25.1155  341.8985 C.3       3 GLC5        0.0000 
      8 CA        -13.3240   24.4310  343.4060 C.3       9 GLL5        0.0000 
      9 CA        -10.5930   25.8000  340.3910 C.3       6 GLP5        0.0000 
     10 CA        -12.3220   24.3205  347.0060 C.3       3 GLC5        0.0000 
     11 CA        -12.5720   23.0820  345.4540 C.3       9 GLL5        0.0000 
     12 CA        -12.0720   25.5590  348.5580 C.3       6 GLP5        0.0000 
     13 CA        -18.2130   27.6115  341.2740 C.3       3 GLC5        0.0000 
     14 CA        -17.9390   28.5230  343.0790 C.3       9 GLL5        0.0000 
     15 CA        -18.4870   26.7000  339.4690 C.3       6 GLP5        0.0000 
     16 CA        -19.4680   29.2360  342.4005 C.3       3 GLC5        0.0000 
     17 CA        -20.9970   29.9490  341.7220 C.3       6 GLP5        0.0000 
     18 CA        -17.2100   29.3125  341.6210 C.3       3 GLC5        0.0000 
     19 CA        -16.4810   30.1020  340.1630 C.3       6 GLP5        0.0000 
     20 O         -16.9285   26.1145  342.2185 O.2       1 ALC1        0.0000 
     21 O         -16.2480   26.8820  343.2270 O.2       7 ALL1        0.0000 
     22 O         -17.6090   25.3470  341.2100 O.2       4 ALP1        0.0000 
     23 O         -16.2135   26.6315  341.5720 O.2       1 ALC1        0.0000 
     24 O         -16.1790   26.3810  339.9170 O.2       4 ALP1        0.0000 
     25 N         -12.9490   26.5480  341.7595 N.am      2 SEC2        0.0000 
     26 N         -14.2550   25.7630  341.5730 N.am      8 SEL2        0.0000 
     27 N         -11.6430   27.3330  341.9460 N.am      5 SEP2        0.0000 
     28 O         -15.9320   25.5550  341.3915 O.2       1 ALC1        0.0000 
     29 O         -14.2550   25.7630  341.5730 O.2       7 ALL1        0.0000 
     30 O         -15.2170   26.0720  340.7450 O.2       1 ALC1        0.0000 
     31 N         -13.6365   23.0650  341.2160 N.am      2 SEC2        0.0000 
     32 N         -12.8600   23.4050  342.5080 N.am      8 SEL2        0.0000 
     33 N         -14.4130   22.7250  339.9240 N.am      5 SEP2        0.0000 
     34 O         -11.6190   23.4595  342.4100 O.2       1 ALC1        0.0000 
     35 O         -12.8600   23.4050  342.5080 O.2       7 ALL1        0.0000 
     36 O         -10.3780   23.5140  342.3120 O.2       4 ALP1        0.0000 
     37 N         -13.5905   25.9110  346.2725 N.am      2 SEC2        0.0000 
     38 N         -14.2510   24.8180  345.6720 N.am      8 SEL2        0.0000 
     39 N         -12.9300   27.0040  346.8730 N.am      5 SEP2        0.0000 
     40 N         -16.5715   29.7540  345.1705 N.am      2 SEC2        0.0000 
     41 N         -16.0550   28.7670  344.4490 N.am      8 SEL2        0.0000 
     42 N         -17.0880   30.7410  345.8920 N.am      5 SEP2        0.0000 
     43 O         -19.9075   31.3805  353.2245 O.2       1 ALC1        0.0000 
     44 O         -19.3420   30.2980  352.3960 O.2       7 ALL1        0.0000 
     45 O         -20.4730   32.4630  354.0530 O.2       4 ALP1        0.0000 
     46 CA        -20.7670   30.0165  349.1425 C.3       3 GLC5        0.0000 
     47 CA        -19.9520   28.8440  350.5520 C.3       9 GLL5        0.0000 
     48 CA        -21.5820   31.1890  347.7330 C.3       6 GLP5        0.0000 
     49 N         -17.4280   29.7885  355.2060 N.am      2 SEC2        0.0000 
     50 N         -17.5250   30.0610  353.5950 N.am      8 SEL2        0.0000 
     51 N         -17.3310   29.5160  356.8170 N.am      5 SEP2        0.0000 
     52 N         -21.2265   32.0460  351.7170 N.am      2 SEC2        0.0000 
     53 N         -21.2330   30.6890  351.2800 N.am      8 SEL2        0.0000 
     54 N         -21.2200   33.4030  352.1540 N.am      5 SEP2        0.0000 
     55 N         -21.9605   31.0900  349.9515 N.am      2 SEC2        0.0000 
     56 N         -22.6880   31.4910  348.6230 N.am      5 SEP2        0.0000 
     57 CA        -15.3785   29.1575  352.5430 C.3       3 GLC5        0.0000 
     58 CA        -16.6530   27.7780  352.1220 C.3       9 GLL5        0.0000 
     59 CA        -14.1040   30.5370  352.9640 C.3       6 GLP5        0.0000 
     60 CA        -18.3220   26.4120  353.9795 C.3       3 GLC5        0.0000 
     61 CA        -16.8280   26.3170  352.5720 C.3       9 GLL5        0.0000 
     62 CA        -19.8160   26.5070  355.3870 C.3       6 GLP5        0.0000 
     63 CA        -13.3665   27.1185  350.5250 C.3       3 GLC5        0.0000 
     64 CA        -15.1830   26.5140  350.8200 C.3       9 GLL5        0.0000 
     65 CA        -11.5500   27.7230  350.2300 C.3       6 GLP5        0.0000 
     66 O         -13.4190   24.7715  353.2550 O.2       1 ALC1        0.0000 
     67 O         -14.5100   25.8190  353.0200 O.2       7 ALL1        0.0000 
     68 O         -12.3280   23.7240  353.4900 O.2       4 ALP1        0.0000 
     69 O         -14.3980   24.3225  353.4465 O.2       1 ALC1        0.0000 
     70 O         -14.2860   22.8260  353.8730 O.2       4 ALP1        0.0000 
     71 CA        -14.0155   26.3810  348.7920 C.3       3 GLC5        0.0000 
     72 CA        -15.6710   25.9210  349.4640 C.3       9 GLL5        0.0000 
     73 CA        -12.9860   21.5503  344.1960 C.3       3 GLC5        0.0000 
     74 CA        -13.7420   23.7750  344.7740 C.3       9 GLL5        0.0000 
     75 CA        -12.8150   19.6720  343.2780 C.3       6 GLP5        0.0000 
     76 CA        -18.0995   28.9670  349.2812 C.3       3 GLC5        0.0000 
     77 CA        -18.8200   28.1300  350.7650 C.3       9 GLL5        0.0000 
     78 CA        -16.8130   29.4470  347.9040 C.3       6 GLP5        0.0000 
     79 CA        -16.1200   27.8322  349.0230 C.3       3 GLC5        0.0000 
@<TRIPOS>BOND
@<TRIPOS>SUBSTRUCTURE
     1 ALC1       20 GROUP        1 X    ALC  0     ROOT ALC X 1
     2 SEC2       25 GROUP        1 X    SEC  0     **** SEC X 2
     3 GLC5        1 GROUP        1 X    GLC  0     **** GLC X 6
     4 ALP1       22 GROUP        1 Y    ALP  0     ROOT ALP Y 8
     5 SEP2       27 GROUP        1 Y    SEP  0     **** SEP Y 9
     6 GLP5        3 GROUP        1 Y    GLP  0     **** GLP Y 13
     7 ALL1       21 GROUP        1 Z    ALL  0     ROOT ALL Z 15
     8 SEL2       26 GROUP        1 Z    SEL  0     **** SEL Z 16
     9 GLL5        2 GROUP        1 Z    GLL  0     **** GLL Z 20
@<TRIPOS>SET

