#    Name: 1hv9_UD1_1_ligand
#    Modification time : Tue Mar 25 06:15:52 2014

@<TRIPOS>MOLECULE
1hv9_UD1_1_ligand
   64    66     1     0     0
SMALL
NO_CHARGES


@<TRIPOS>ATOM
      1 C1'       -15.3860   25.5330  345.1550 C.3       1 UD13001     0.0000 
      2 C2'       -15.0580   26.2060  343.7990 C.3       1 UD13001     0.0000 
      3 C3'       -14.5560   25.1160  342.8230 C.3       1 UD13001     0.0000 
      4 C4'       -13.3240   24.4310  343.4060 C.3       1 UD13001     0.0000 
      5 C5'       -13.7420   23.7750  344.7740 C.3       1 UD13001     0.0000 
      6 C6'       -12.5720   23.0820  345.4540 C.3       1 UD13001     0.0000 
      7 C7'       -16.6560   28.0620  343.6480 C.2       1 UD13001     0.0000 
      8 C8'       -17.9390   28.5230  343.0790 C.3       1 UD13001     0.0000 
      9 N2'       -16.2480   26.8820  343.2270 N.am      1 UD13001     0.0000 
     10 O1'       -16.4570   24.6090  344.9600 O.3       1 UD13001     0.0000 
     11 O3'       -14.2550   25.7630  341.5730 O.3       1 UD13001     0.0000 
     12 O4'       -12.8600   23.4050  342.5080 O.3       1 UD13001     0.0000 
     13 O5'       -14.2510   24.8180  345.6720 O.3       1 UD13001     0.0000 
     14 O6'       -13.0540   22.5430  346.6900 O.3       1 UD13001     0.0000 
     15 O7'       -16.0550   28.7670  344.4490 O.2       1 UD13001     0.0000 
     16 N1        -17.8950   28.5370  351.8720 N.am      1 UD13001     0.0000 
     17 C2        -18.2040   29.6380  352.6690 C.2       1 UD13001     0.0000 
     18 N3        -19.3420   30.2980  352.3960 N.am      1 UD13001     0.0000 
     19 C4        -20.2240   30.0040  351.4280 C.2       1 UD13001     0.0000 
     20 C5        -19.9520   28.8440  350.5520 C.2       1 UD13001     0.0000 
     21 C6        -18.8200   28.1300  350.7650 C.2       1 UD13001     0.0000 
     22 O2        -17.5250   30.0610  353.5950 O.2       1 UD13001     0.0000 
     23 O4        -21.2330   30.6890  351.2800 O.2       1 UD13001     0.0000 
     24 C1B       -16.6530   27.7780  352.1220 C.3       1 UD13001     0.0000 
     25 C2B       -16.8280   26.3170  352.5720 C.3       1 UD13001     0.0000 
     26 O2'       -17.0130   26.2800  354.0000 O.3       1 UD13001     0.0000 
     27 C3B       -15.5360   25.6500  352.0500 C.3       1 UD13001     0.0000 
     28 C4B       -15.1830   26.5140  350.8200 C.3       1 UD13001     0.0000 
     29 O4B       -15.8740   27.7380  350.9490 O.3       1 UD13001     0.0000 
     30 O3B       -14.5100   25.8190  353.0200 O.3       1 UD13001     0.0000 
     31 C5B       -15.6710   25.9210  349.4640 C.3       1 UD13001     0.0000 
     32 O5B       -17.0690   25.5710  349.4460 O.3       1 UD13001     0.0000 
     33 PA        -17.5970   24.2860  348.7570 P.3       1 UD13001     0.0000 
     34 O1A       -19.1000   24.3630  348.7910 O.co2     1 UD13001     0.0000 
     35 O2A       -17.1170   23.1260  349.5020 O.co2     1 UD13001     0.0000 
     36 O3A       -17.0260   24.3180  347.3900 O.3       1 UD13001     0.0000 
     37 PB        -17.6390   24.5640  345.9920 P.3       1 UD13001     0.0000 
     38 O1B       -18.3980   25.8300  345.9660 O.co2     1 UD13001     0.0000 
     39 O2B       -18.4090   23.3660  345.5590 O.co2     1 UD13001     0.0000 
     40 H         -15.6865   26.3169  345.8356 H         1 UD13001     0.0000 
     41 H         -14.2589   26.9048  343.9535 H         1 UD13001     0.0000 
     42 H         -15.3419   24.3954  342.7119 H         1 UD13001     0.0000 
     43 H         -12.5815   25.1601  343.6129 H         1 UD13001     0.0000 
     44 H         -14.5118   23.0540  344.5703 H         1 UD13001     0.0000 
     45 H         -11.7872   23.8168  345.6125 H         1 UD13001     0.0000 
     46 H         -12.2051   22.3040  344.7898 H         1 UD13001     0.0000 
     47 H         -16.7297   26.3489  342.4704 H         1 UD13001     0.0000 
     48 H         -19.5714   31.1581  353.0237 H         1 UD13001     0.0000 
     49 H         -20.6264   28.6362  349.8312 H         1 UD13001     0.0000 
     50 H         -18.5449   27.3224  350.2194 H         1 UD13001     0.0000 
     51 H         -16.0728   28.2807  352.9138 H         1 UD13001     0.0000 
     52 H         -17.6518   25.9226  352.0212 H         1 UD13001     0.0000 
     53 H         -15.7307   24.6905  351.7572 H         1 UD13001     0.0000 
     54 H         -14.1350   26.6601  350.7700 H         1 UD13001     0.0000 
     55 H         -15.0302   25.0406  349.2500 H         1 UD13001     0.0000 
     56 H         -15.4309   26.6704  348.6815 H         1 UD13001     0.0000 
     57 H         -18.2019   29.4200  343.4343 H         1 UD13001     0.0000 
     58 H         -17.8961   28.6032  342.0831 H         1 UD13001     0.0000 
     59 H         -18.6866   27.8934  343.2904 H         1 UD13001     0.0000 
     60 H         -15.1395   25.8753  341.1203 H         1 UD13001     0.0000 
     61 H         -12.0191   23.7710  342.1094 H         1 UD13001     0.0000 
     62 H         -12.2646   22.0835  347.0972 H         1 UD13001     0.0000 
     63 H         -16.1264   26.0005  354.3686 H         1 UD13001     0.0000 
     64 H         -13.9457   24.9968  352.9456 H         1 UD13001     0.0000 
@<TRIPOS>BOND
     1    2    1 1    
     2   10    1 1    
     3   13    1 1    
     4   40    1 1    
     5    3    2 1    
     6    9    2 1    
     7   41    2 1    
     8    4    3 1    
     9   11    3 1    
    10   42    3 1    
    11    5    4 1    
    12   12    4 1    
    13   43    4 1    
    14    6    5 1    
    15   13    5 1    
    16   44    5 1    
    17   14    6 1    
    18   45    6 1    
    19   46    6 1    
    20    8    7 1    
    21    9    7 am   
    22   15    7 2    
    23   57    8 1    
    24   58    8 1    
    25   59    8 1    
    26   47    9 1    
    27   37   10 1    
    28   60   11 1    
    29   61   12 1    
    30   62   14 1    
    31   17   16 1    
    32   21   16 1    
    33   24   16 1    
    34   18   17 1    
    35   22   17 2    
    36   19   18 1    
    37   48   18 1    
    38   20   19 1    
    39   23   19 2    
    40   21   20 2    
    41   49   20 1    
    42   50   21 1    
    43   25   24 1    
    44   29   24 1    
    45   51   24 1    
    46   26   25 1    
    47   27   25 1    
    48   52   25 1    
    49   63   26 1    
    50   28   27 1    
    51   30   27 1    
    52   53   27 1    
    53   29   28 1    
    54   31   28 1    
    55   54   28 1    
    56   64   30 1    
    57   32   31 1    
    58   55   31 1    
    59   56   31 1    
    60   33   32 1    
    61   34   33 ar   
    62   35   33 ar   
    63   36   33 1    
    64   37   36 1    
    65   38   37 ar   
    66   39   37 ar   
@<TRIPOS>SUBSTRUCTURE
     1 UD13001     1 GROUP   
@<TRIPOS>SET

