#    Name: 1UEV_1_CAVITY_N1_ALL.mol2
#    Modification time : Tue Mar 11 13:28:24 2014

@<TRIPOS>MOLECULE
1UEV_1_CAVITY_N1_ALL.mol2
  159     0     7     0     0
SMALL
NO_CHARGES


@<TRIPOS>ATOM
      1 CZ         22.5154   26.8155   38.2330 C.ar      5 PHE5        0.0000 
      2 O          20.2062   31.3303   32.5072 O.2       2 ALA2        0.0000 
      3 DU         20.4676   30.2510   33.5156 H         7 CUB7        0.0000 
      4 CZ         21.7744   24.8544   38.5573 C.ar      5 PHE5        0.0000 
      5 O          19.2038   30.4485   31.8233 O.2       2 ALA2        0.0000 
      6 DU         19.4652   29.3692   32.8316 H         7 CUB7        0.0000 
      7 OG         20.7721   23.9727   37.8734 O.2       1 SER1        0.0000 
      8 O          17.9401   30.6461   30.1309 O.2       2 ALA2        0.0000 
      9 DU         18.2015   29.5668   31.1393 H         7 CUB7        0.0000 
     10 DU         18.4629   28.4875   32.1476 H         7 CUB7        0.0000 
     11 CA         17.1992   28.6850   30.4553 C.3       6 GLY6        0.0000 
     12 O          15.7172   24.7629   31.1040 O.2       2 ALA2        0.0000 
     13 OG         14.7149   23.8811   30.4201 O.2       1 SER1        0.0000 
     14 OG         14.9763   22.8018   31.4284 O.2       1 SER1        0.0000 
     15 DU         15.2376   21.7225   32.4368 H         7 CUB7        0.0000 
     16 OG         13.9739   21.9201   30.7444 O.2       1 SER1        0.0000 
     17 DU         14.2353   20.8408   31.7528 H         7 CUB7        0.0000 
     18 NZ         14.4967   19.7615   32.7611 N.2       4 LYS4        0.0000 
     19 OG         13.4943   18.8797   32.0772 O.2       1 SER1        0.0000 
     20 N          12.7770   32.3399   35.5136 N.2       2 ALA2        0.0000 
     21 N          13.0384   31.2606   36.5220 N.2       2 ALA2        0.0000 
     22 O          11.7747   31.4581   34.8296 O.2       2 ALA2        0.0000 
     23 CA         13.8619   31.7853   34.6388 C.3       6 GLY6        0.0000 
     24 CA         14.1233   30.7060   35.6471 C.3       6 GLY6        0.0000 
     25 CA         14.3847   29.6266   36.6555 C.3       6 GLY6        0.0000 
     26 NZ         14.6461   28.5473   37.6638 N.2       4 LYS4        0.0000 
     27 CZ         12.5982   31.9828   32.9464 C.ar      5 PHE5        0.0000 
     28 O          12.8596   30.9035   33.9548 O.2       2 ALA2        0.0000 
     29 N          13.1210   29.8242   34.9631 N.2       2 ALA2        0.0000 
     30 N          13.3823   28.7449   35.9715 N.2       2 ALA2        0.0000 
     31 NZ         13.6437   27.6656   36.9798 N.2       4 LYS4        0.0000 
     32 O          11.8572   30.0218   33.2708 O.2       2 ALA2        0.0000 
     33 O          12.1186   28.9425   34.2791 O.2       2 ALA2        0.0000 
     34 N          12.3800   27.8631   35.2875 N.2       2 ALA2        0.0000 
     35 O          11.1163   28.0607   33.5952 O.2       2 ALA2        0.0000 
     36 O          11.3777   26.9814   34.6035 O.2       2 ALA2        0.0000 
     37 CA         10.1139   27.1790   32.9112 C.3       6 GLY6        0.0000 
     38 CZ         17.7356   29.7562   38.1569 C.ar      5 PHE5        0.0000 
     39 CA         18.2584   27.5976   40.1736 C.3       6 GLY6        0.0000 
     40 O          15.9492   32.1124   34.4479 O.2       2 ALA2        0.0000 
     41 OG         16.2105   31.0331   35.4562 O.2       1 SER1        0.0000 
     42 OG         16.4719   29.9538   36.4646 O.2       1 SER1        0.0000 
     43 CZ         16.7333   28.8745   37.4729 C.ar      5 PHE5        0.0000 
     44 NZ         16.9947   27.7952   38.4813 N.2       4 LYS4        0.0000 
     45 NZ         17.2560   26.7158   39.4896 N.2       4 LYS4        0.0000 
     46 O          14.6854   32.3100   32.7555 O.2       2 ALA2        0.0000 
     47 O          14.9468   31.2306   33.7639 O.2       2 ALA2        0.0000 
     48 CA         15.2082   30.1513   34.7722 C.3       6 GLY6        0.0000 
     49 CA         15.4696   29.0720   35.7806 C.3       6 GLY6        0.0000 
     50 NZ         15.7309   27.9927   36.7889 N.2       4 LYS4        0.0000 
     51 CA         13.9445   30.3489   33.0799 C.3       6 GLY6        0.0000 
     52 DU         14.2059   29.2696   34.0883 H         7 CUB7        0.0000 
     53 DU         14.4672   28.1903   35.0966 H         7 CUB7        0.0000 
     54 NZ         14.7286   27.1110   36.1050 N.2       4 LYS4        0.0000 
     55 CA         12.9421   29.4671   32.3959 C.3       6 GLY6        0.0000 
     56 DU         13.2035   28.3878   33.4043 H         7 CUB7        0.0000 
     57 DU         13.4649   27.3085   34.4126 H         7 CUB7        0.0000 
     58 NZ         13.7263   26.2292   35.4210 N.2       4 LYS4        0.0000 
     59 O          11.9398   28.5854   31.7119 O.2       2 ALA2        0.0000 
     60 O          12.2012   27.5061   32.7203 O.2       2 ALA2        0.0000 
     61 CA         12.4625   26.4268   33.7286 C.3       6 GLY6        0.0000 
     62 CA         12.7239   25.3475   34.7370 C.3       6 GLY6        0.0000 
     63 NZ         10.9375   27.7036   31.0280 N.2       4 LYS4        0.0000 
     64 CA         11.1988   26.6243   32.0363 C.3       6 GLY6        0.0000 
     65 CA         11.4602   25.5450   33.0447 C.3       6 GLY6        0.0000 
     66 CA         11.7216   24.4657   34.0530 C.3       6 GLY6        0.0000 
     67 NZ         11.9830   23.3864   35.0614 N.2       4 LYS4        0.0000 
     68 CA         10.9806   22.5047   34.3774 C.3       6 GLY6        0.0000 
     69 OG          9.7169   22.7022   32.6851 O.2       1 SER1        0.0000 
     70 CA          9.9783   21.6229   33.6934 C.3       6 GLY6        0.0000 
     71 OG         19.8229   30.0833   37.9660 O.2       1 SER1        0.0000 
     72 CZ         20.0842   29.0040   38.9744 C.ar      5 PHE5        0.0000 
     73 CA         20.3456   27.9247   39.9827 C.3       6 GLY6        0.0000 
     74 O          18.0364   32.4395   34.2570 O.2       2 ALA2        0.0000 
     75 OG         18.2978   31.3602   35.2653 O.2       1 SER1        0.0000 
     76 OG         18.5591   30.2809   36.2737 O.2       1 SER1        0.0000 
     77 OG         18.8205   29.2016   37.2820 O.2       1 SER1        0.0000 
     78 CZ         19.0819   28.1223   38.2904 C.ar      5 PHE5        0.0000 
     79 CA         19.3433   27.0430   39.2987 C.3       6 GLY6        0.0000 
     80 CA         19.6047   25.9637   40.3071 C.3       6 GLY6        0.0000 
     81 O          17.0341   31.5578   33.5730 O.2       2 ALA2        0.0000 
     82 OG         17.2954   30.4785   34.5813 O.2       1 SER1        0.0000 
     83 OG         17.5568   29.3991   35.5897 O.2       1 SER1        0.0000 
     84 DU         17.8182   28.3198   36.5981 H         7 CUB7        0.0000 
     85 NZ         18.0796   27.2405   37.6064 N.2       4 LYS4        0.0000 
     86 NZ         18.3409   26.1612   38.6148 N.2       4 LYS4        0.0000 
     87 NZ         18.6023   25.0819   39.6231 N.2       4 LYS4        0.0000 
     88 CZ         15.7703   31.7553   31.8807 C.ar      5 PHE5        0.0000 
     89 CA         16.0317   30.6760   32.8890 C.3       6 GLY6        0.0000 
     90 DU         16.2931   29.5967   33.8974 H         7 CUB7        0.0000 
     91 DU         16.5545   28.5174   34.9057 H         7 CUB7        0.0000 
     92 NZ         16.8158   27.4381   35.9141 N.2       4 LYS4        0.0000 
     93 NZ         17.0772   26.3588   36.9224 N.2       4 LYS4        0.0000 
     94 CA         15.0294   29.7943   32.2050 C.3       6 GLY6        0.0000 
     95 DU         15.2907   28.7150   33.2134 H         7 CUB7        0.0000 
     96 DU         15.5521   27.6356   34.2217 H         7 CUB7        0.0000 
     97 NZ         15.8135   26.5563   35.2301 N.2       4 LYS4        0.0000 
     98 NZ         16.0749   25.4770   36.2384 N.2       4 LYS4        0.0000 
     99 O          14.0270   28.9125   31.5211 O.2       2 ALA2        0.0000 
    100 O          14.2884   27.8332   32.5294 O.2       2 ALA2        0.0000 
    101 DU         14.5498   26.7539   33.5378 H         7 CUB7        0.0000 
    102 DU         14.8112   25.6746   34.5461 H         7 CUB7        0.0000 
    103 OD1        15.0725   24.5953   35.5545 O.3       3 ASP3        0.0000 
    104 O          13.2861   26.9515   31.8454 O.2       2 ALA2        0.0000 
    105 DU         13.5474   25.8721   32.8538 H         7 CUB7        0.0000 
    106 DU         13.8088   24.7928   33.8621 H         7 CUB7        0.0000 
    107 NZ         14.0702   23.7135   34.8705 N.2       4 LYS4        0.0000 
    108 CA         12.2837   26.0697   31.1614 C.3       6 GLY6        0.0000 
    109 OG         12.5451   24.9904   32.1698 O.2       1 SER1        0.0000 
    110 CA         12.8065   23.9111   33.1781 C.3       6 GLY6        0.0000 
    111 NZ         13.0679   22.8318   34.1865 N.2       4 LYS4        0.0000 
    112 OG         11.5428   24.1087   31.4858 O.2       1 SER1        0.0000 
    113 OG         11.8041   23.0293   32.4942 O.2       1 SER1        0.0000 
    114 DU         12.0655   21.9500   33.5025 H         7 CUB7        0.0000 
    115 CA         12.3269   20.8707   34.5109 C.3       6 GLY6        0.0000 
    116 OG         10.8018   22.1476   31.8102 O.2       1 SER1        0.0000 
    117 OG         11.0632   21.0683   32.8185 O.2       1 SER1        0.0000 
    118 O           9.7995   21.2658   31.1262 O.2       2 ALA2        0.0000 
    119 CA         21.9101   30.4105   37.7751 C.3       6 GLY6        0.0000 
    120 CA         22.1715   29.3312   38.7835 C.3       6 GLY6        0.0000 
    121 N          20.3850   31.6873   35.0744 N.2       2 ALA2        0.0000 
    122 DU         21.1691   28.4494   38.0995 H         7 CUB7        0.0000 
    123 CZ         21.4305   27.3701   39.1078 C.ar      5 PHE5        0.0000 
    124 O          19.1213   31.8849   33.3821 O.2       2 ALA2        0.0000 
    125 OG         19.3827   30.8056   34.3905 O.2       1 SER1        0.0000 
    126 OG         19.6440   29.7263   35.3988 O.2       1 SER1        0.0000 
    127 DU         19.9054   28.6470   36.4072 H         7 CUB7        0.0000 
    128 DU         20.4282   26.4883   38.4239 H         7 CUB7        0.0000 
    129 CZ         20.6895   25.4090   39.4322 C.ar      5 PHE5        0.0000 
    130 O          17.8576   32.0825   31.6898 O.2       2 ALA2        0.0000 
    131 O          18.1190   31.0031   32.6981 O.2       2 ALA2        0.0000 
    132 DU         18.3803   29.9238   33.7065 H         7 CUB7        0.0000 
    133 DU         18.6417   28.8445   34.7148 H         7 CUB7        0.0000 
    134 DU         19.1645   26.6859   36.7315 H         7 CUB7        0.0000 
    135 DU         19.4258   25.6066   37.7399 H         7 CUB7        0.0000 
    136 NZ         19.6872   24.5273   38.7482 N.2       4 LYS4        0.0000 
    137 CZ         16.8552   31.2007   31.0058 C.ar      5 PHE5        0.0000 
    138 CA         17.1166   30.1214   32.0141 C.3       6 GLY6        0.0000 
    139 DU         17.3780   29.0421   33.0225 H         7 CUB7        0.0000 
    140 DU         17.9007   26.8835   35.0392 H         7 CUB7        0.0000 
    141 NZ         18.6849   23.6455   38.0643 N.2       4 LYS4        0.0000 
    142 CA         16.1143   29.2396   31.3302 C.3       6 GLY6        0.0000 
    143 DU         16.3756   28.1603   32.3385 H         7 CUB7        0.0000 
    144 DU         16.8984   26.0017   34.3552 H         7 CUB7        0.0000 
    145 O          15.3733   27.2786   31.6545 O.2       2 ALA2        0.0000 
    146 DU         15.6347   26.1993   32.6629 H         7 CUB7        0.0000 
    147 DU         15.8961   25.1200   33.6712 H         7 CUB7        0.0000 
    148 O          14.3710   26.3968   30.9706 O.2       2 ALA2        0.0000 
    149 O          14.6323   25.3175   31.9789 O.2       2 ALA2        0.0000 
    150 DU         14.8937   24.2382   32.9873 H         7 CUB7        0.0000 
    151 NZ         15.1551   23.1589   33.9956 N.2       4 LYS4        0.0000 
    152 OG         13.6300   24.4358   31.2949 O.2       1 SER1        0.0000 
    153 OG         13.8914   23.3565   32.3033 O.2       1 SER1        0.0000 
    154 NZ         14.1527   22.2772   33.3116 N.2       4 LYS4        0.0000 
    155 NZ         14.4141   21.1978   34.3200 N.2       4 LYS4        0.0000 
    156 OG         12.8890   22.4747   31.6193 O.2       1 SER1        0.0000 
    157 OG         13.1504   21.3954   32.6276 O.2       1 SER1        0.0000 
    158 NZ         13.4118   20.3161   33.6360 N.2       4 LYS4        0.0000 
    159 OG         12.1481   20.5137   31.9437 O.2       1 SER1        0.0000 
@<TRIPOS>BOND
@<TRIPOS>SUBSTRUCTURE
     1 SER1        7 GROUP   
     2 ALA2        2 GROUP   
     3 ASP3      103 GROUP   
     4 LYS4       18 GROUP   
     5 PHE5        1 GROUP   
     6 GLY6       11 GROUP   
     7 CUB7        3 GROUP   
@<TRIPOS>SET

