#    Name: 1uev_ATP_1_INTS_M
#    Modification time : Tue Mar 25 06:35:10 2014

@<TRIPOS>MOLECULE
1uev_ATP_1_INTS_M
   45     0    12     0     0
SMALL
NO_CHARGES


@<TRIPOS>ATOM
      1 NZ          8.7125   23.4045   29.6805 N.4       3 LYC4        0.0000 
      2 NZ          9.4010   22.3410   29.9820 N.4      11 LYL4        0.0000 
      3 NZ          8.0240   24.4680   29.3790 N.4       7 LYP4        0.0000 
      4 N           8.0885   21.4220   30.5430 N.am      2 SEC2        0.0000 
      5 N           9.4010   22.3410   29.9820 N.am     10 SEL2        0.0000 
      6 N           6.7760   20.5030   31.1040 N.am      6 SEP2        0.0000 
      7 N           8.7125   23.4045   29.6805 N.am      2 SEC2        0.0000 
      8 N           8.0240   24.4680   29.3790 N.am      6 SEP2        0.0000 
      9 N           8.0900   21.2745   31.8025 N.am      2 SEC2        0.0000 
     10 N           9.4040   22.0460   32.5010 N.am     10 SEL2        0.0000 
     11 NZ          9.5400   24.7790   29.5885 N.4       3 LYC4        0.0000 
     12 NZ         11.0560   25.0900   29.7980 N.4      11 LYL4        0.0000 
     13 NZ          8.4780   25.4410   29.7860 N.4       3 LYC4        0.0000 
     14 NZ          8.9320   26.4140   30.1930 N.4      11 LYL4        0.0000 
     15 N           8.4780   25.4410   29.7860 N.am      2 SEC2        0.0000 
     16 N           8.9320   26.4140   30.1930 N.am     10 SEL2        0.0000 
     17 N           8.4900   27.5620   30.7050 N.am      2 SEC2        0.0000 
     18 N           8.0480   28.7100   31.2170 N.am      6 SEP2        0.0000 
     19 N           8.7065   24.4110   30.4470 N.am      2 SEC2        0.0000 
     20 N           9.3890   24.3540   31.5150 N.am     10 SEL2        0.0000 
     21 O          13.1670   22.8665   36.7865 O.2       1 ALC1        0.0000 
     22 O          12.0210   23.6720   36.6280 O.2       9 ALL1        0.0000 
     23 O          14.3130   22.0610   36.9450 O.2       5 ALP1        0.0000 
     24 CA         13.6580   26.2415   38.2540 C.3       4 GLC5        0.0000 
     25 CA         13.7240   26.2010   36.0060 C.3      12 GLL5        0.0000 
     26 CA         13.5920   26.2820   40.5020 C.3       8 GLP5        0.0000 
     27 CA         14.2010   32.9480   34.4485 C.3       4 GLC5        0.0000 
     28 CA         14.6410   30.8430   34.7950 C.3      12 GLL5        0.0000 
     29 CA         13.7610   35.0530   34.1020 C.3       8 GLP5        0.0000 
     30 O          15.8190   33.1740   34.1200 O.2       1 ALC1        0.0000 
     31 O          15.5140   31.8520   34.8040 O.2       9 ALL1        0.0000 
     32 O          16.1240   34.4960   33.4360 O.2       5 ALP1        0.0000 
     33 O          16.5930   32.1185   36.1420 O.2       1 ALC1        0.0000 
     34 O          17.6720   32.3850   37.4800 O.2       5 ALP1        0.0000 
     35 CA         12.5685   22.6067   36.2395 C.3       4 GLC5        0.0000 
     36 CA         12.1480   24.4790   35.4520 C.3      12 GLL5        0.0000 
     37 CA         12.3190   20.8390   37.3870 C.3       8 GLP5        0.0000 
     38 CA         10.8127   25.0971   34.7922 C.3       4 GLC5        0.0000 
     39 CA         12.2150   25.9680   35.8250 C.3      12 GLL5        0.0000 
     40 CA          9.1090   25.0230   34.1260 C.3       8 GLP5        0.0000 
     41 CA         11.5439   26.5066   37.0226 C.3       4 GLC5        0.0000 
     42 CA         10.1350   27.3010   38.2230 C.3       8 GLP5        0.0000 
     43 CA         15.0885   31.1082   36.6953 C.3       4 GLC5        0.0000 
     44 CA         14.8570   29.6300   35.4500 C.3      12 GLL5        0.0000 
     45 CA         15.4280   31.9800   38.2680 C.3       8 GLP5        0.0000 
@<TRIPOS>BOND
@<TRIPOS>SUBSTRUCTURE
     1 ALC1       21 GROUP        1 X    ALC  0     ROOT ALC X 1
     2 SEC2        4 GROUP        1 X    SEC  0     **** SEC X 2
     3 LYC4        1 GROUP        1 X    LYC  0     **** LYC X 4
     4 GLC5       24 GROUP        1 X    GLC  0     **** GLC X 6
     5 ALP1       23 GROUP        1 Y    ALP  0     ROOT ALP Y 8
     6 SEP2        6 GROUP        1 Y    SEP  0     **** SEP Y 9
     7 LYP4        3 GROUP        1 Y    LYP  0     **** LYP Y 11
     8 GLP5       26 GROUP        1 Y    GLP  0     **** GLP Y 13
     9 ALL1       22 GROUP        1 Z    ALL  0     ROOT ALL Z 15
    10 SEL2        5 GROUP        1 Z    SEL  0     **** SEL Z 16
    11 LYL4        2 GROUP        1 Z    LYL  0     **** LYL Z 18
    12 GLL5       25 GROUP        1 Z    GLL  0     **** GLL Z 20
@<TRIPOS>SET

