#    Name: 1uev_ATP_1_ligand
#    Modification time : Tue Mar 25 06:35:10 2014

@<TRIPOS>MOLECULE
1uev_ATP_1_ligand
   43    45     1     0     0
SMALL
NO_CHARGES


@<TRIPOS>ATOM
      1 PG          9.8270   22.8190   31.3150 P.3       1 ATP501      0.0000 
      2 O1G         9.4010   22.3410   29.9820 O.co2     1 ATP501      0.0000 
      3 O2G         9.4040   22.0460   32.5010 O.co2     1 ATP501      0.0000 
      4 O3G        11.4310   22.9050   31.3150 O.co2     1 ATP501      0.0000 
      5 PB         10.0450   25.6100   30.7460 P.3       1 ATP501      0.0000 
      6 O1B        11.0560   25.0900   29.7980 O.co2     1 ATP501      0.0000 
      7 O2B         8.9320   26.4140   30.1930 O.co2     1 ATP501      0.0000 
      8 O3B         9.3890   24.3540   31.5150 O.3       1 ATP501      0.0000 
      9 PA         12.1750   26.4130   32.5110 P.3       1 ATP501      0.0000 
     10 O1A        12.1230   27.0970   33.8220 O.co2     1 ATP501      0.0000 
     11 O2A        13.1540   26.8910   31.5110 O.co2     1 ATP501      0.0000 
     12 O3A        10.6770   26.5110   31.9280 O.3       1 ATP501      0.0000 
     13 O5'        12.3460   24.8180   32.6390 O.3       1 ATP501      0.0000 
     14 C5'        13.4880   24.1850   33.2190 C.3       1 ATP501      0.0000 
     15 C4'        13.4880   24.2700   34.7320 C.3       1 ATP501      0.0000 
     16 O4'        14.3200   25.4400   34.9690 O.3       1 ATP501      0.0000 
     17 C3'        12.1480   24.4790   35.4520 C.3       1 ATP501      0.0000 
     18 O3'        12.0210   23.6720   36.6280 O.3       1 ATP501      0.0000 
     19 C2'        12.2150   25.9680   35.8250 C.3       1 ATP501      0.0000 
     20 O2'        11.5320   26.2680   37.0200 O.3       1 ATP501      0.0000 
     21 C1'        13.7240   26.2010   36.0060 C.3       1 ATP501      0.0000 
     22 N9         14.3370   27.5680   36.0230 N.pl3     1 ATP501      0.0000 
     23 C8         15.5270   27.8860   36.5440 C.2       1 ATP501      0.0000 
     24 N7         15.8510   29.1280   36.1850 N.2       1 ATP501      0.0000 
     25 C5         14.8570   29.6300   35.4500 C.ar      1 ATP501      0.0000 
     26 C6         14.6410   30.8430   34.7950 C.ar      1 ATP501      0.0000 
     27 N6         15.5140   31.8520   34.8040 N.pl3     1 ATP501      0.0000 
     28 N1         13.4930   30.9820   34.1050 N.ar      1 ATP501      0.0000 
     29 C2         12.5760   30.0350   34.0360 C.ar      1 ATP501      0.0000 
     30 N3         12.7630   28.8780   34.6590 N.ar      1 ATP501      0.0000 
     31 C4         13.8840   28.6360   35.3600 C.ar      1 ATP501      0.0000 
     32 H          14.4291   24.6427   32.8544 H         1 ATP501      0.0000 
     33 H          13.5379   23.1136   32.9403 H         1 ATP501      0.0000 
     34 H          13.9946   23.4105   35.1326 H         1 ATP501      0.0000 
     35 H          11.3697   24.3570   34.7492 H         1 ATP501      0.0000 
     36 H          11.9066   26.5334   34.9818 H         1 ATP501      0.0000 
     37 H          14.0014   25.6789   36.9664 H         1 ATP501      0.0000 
     38 H          16.0728   27.2967   37.1016 H         1 ATP501      0.0000 
     39 H          16.1133   31.9082   35.6025 H         1 ATP501      0.0000 
     40 H          15.4905   32.4613   34.0114 H         1 ATP501      0.0000 
     41 H          11.6933   30.1945   33.4865 H         1 ATP501      0.0000 
     42 H          12.8555   23.1217   36.6555 H         1 ATP501      0.0000 
     43 H          11.6179   25.4446   37.5808 H         1 ATP501      0.0000 
@<TRIPOS>BOND
     1    2    1 ar   
     2    3    1 ar   
     3    4    1 ar   
     4    8    1 1    
     5    6    5 ar   
     6    7    5 ar   
     7    8    5 1    
     8   12    5 1    
     9   10    9 ar   
    10   11    9 ar   
    11   12    9 1    
    12   13    9 1    
    13   14   13 1    
    14   15   14 1    
    15   32   14 1    
    16   33   14 1    
    17   16   15 1    
    18   17   15 1    
    19   34   15 1    
    20   21   16 1    
    21   18   17 1    
    22   19   17 1    
    23   35   17 1    
    24   42   18 1    
    25   20   19 1    
    26   21   19 1    
    27   36   19 1    
    28   43   20 1    
    29   22   21 1    
    30   37   21 1    
    31   23   22 1    
    32   31   22 1    
    33   24   23 2    
    34   38   23 1    
    35   25   24 1    
    36   26   25 ar   
    37   31   25 ar   
    38   27   26 1    
    39   28   26 ar   
    40   39   27 1    
    41   40   27 1    
    42   29   28 ar   
    43   30   29 ar   
    44   41   29 1    
    45   31   30 ar   
@<TRIPOS>SUBSTRUCTURE
     1 ATP501      1 GROUP   
@<TRIPOS>SET

