#    Name: 1jr1_IMP_1_INTS_M
#    Modification time : Tue Mar 25 09:18:00 2014

@<TRIPOS>MOLECULE
1jr1_IMP_1_INTS_M
   61     0     9     0     0
SMALL
NO_CHARGES


@<TRIPOS>ATOM
      1 N          75.6605   57.3725   28.7940 N.am      2 SEC2        0.0000 
      2 N          76.2560   58.6700   29.1700 N.am      8 SEL2        0.0000 
      3 N          75.0650   56.0750   28.4180 N.am      5 SEP2        0.0000 
      4 N          75.9585   58.0780   27.6215 N.am      2 SEC2        0.0000 
      5 N          75.6610   57.4860   26.0730 N.am      5 SEP2        0.0000 
      6 N          75.8270   58.8585   30.7210 N.am      2 SEC2        0.0000 
      7 N          75.3980   59.0470   32.2720 N.am      5 SEP2        0.0000 
      8 N          79.4890   60.5480   28.5325 N.am      2 SEC2        0.0000 
      9 N          78.4170   59.8840   29.2590 N.am      8 SEL2        0.0000 
     10 N          80.5610   61.2120   27.8060 N.am      5 SEP2        0.0000 
     11 N          76.7500   58.0305   26.6795 N.am      2 SEC2        0.0000 
     12 N          77.8390   58.5750   27.2860 N.am      8 SEL2        0.0000 
     13 N          78.3000   59.5995   26.4260 N.am      2 SEC2        0.0000 
     14 N          78.7610   60.6240   25.5660 N.am      5 SEP2        0.0000 
     15 N          78.9070   58.0685   26.4845 N.am      2 SEC2        0.0000 
     16 N          79.9750   57.5620   25.6830 N.am      5 SEP2        0.0000 
     17 CA         81.3640   56.9655   27.7970 C.3       3 GLC5        0.0000 
     18 CA         79.8490   57.4580   29.1430 C.3       9 GLL5        0.0000 
     19 CA         82.8790   56.4730   26.4510 C.3       6 GLP5        0.0000 
     20 CA         79.1105   55.9820   27.8365 C.3       3 GLC5        0.0000 
     21 CA         78.3720   54.5060   26.5300 C.3       6 GLP5        0.0000 
     22 CA         80.3750   58.9280   27.9010 C.3       3 GLC5        0.0000 
     23 CA         80.9010   60.3980   26.6590 C.3       6 GLP5        0.0000 
     24 CA         79.0115   57.5570   31.6945 C.3       3 GLC5        0.0000 
     25 CA         80.4220   56.6610   30.3080 C.3       9 GLL5        0.0000 
     26 CA         77.6010   58.4530   33.0810 C.3       6 GLP5        0.0000 
     27 CA         83.0565   58.0410   29.4220 C.3       3 GLC5        0.0000 
     28 CA         81.9390   56.4850   30.1360 C.3       9 GLL5        0.0000 
     29 CA         84.1740   59.5970   28.7080 C.3       6 GLP5        0.0000 
     30 CA         82.4090   56.4790   28.2935 C.3       3 GLC5        0.0000 
     31 N          83.4695   57.7815   29.9290 N.am      2 SEC2        0.0000 
     32 N          82.7150   57.3710   30.9270 N.am      8 SEL2        0.0000 
     33 N          84.2240   58.1920   28.9310 N.am      5 SEP2        0.0000 
     34 N          83.9020   56.7180   31.5435 N.am      2 SEC2        0.0000 
     35 N          85.0890   56.0650   32.1600 N.am      5 SEP2        0.0000 
     36 O          82.2505   57.9475   31.9585 O.2       1 ALC1        0.0000 
     37 O          82.7150   57.3710   30.9270 O.2       7 ALL1        0.0000 
     38 O          81.7860   58.5240   32.9900 O.2       4 ALP1        0.0000 
     39 O          82.3620   55.9695   33.1685 O.2       1 ALC1        0.0000 
     40 O          82.1530   55.1010   32.1980 O.2       7 ALL1        0.0000 
     41 O          82.5710   56.8380   34.1390 O.2       4 ALP1        0.0000 
     42 N          82.3250   51.5325   26.5140 N.am      2 SEC2        0.0000 
     43 N          81.7060   52.0770   27.6860 N.am      8 SEL2        0.0000 
     44 N          82.9440   50.9880   25.3420 N.am      5 SEP2        0.0000 
     45 CA         79.5445   52.3765   26.8675 C.3       3 GLC5        0.0000 
     46 CA         80.7390   51.3430   28.2760 C.3       9 GLL5        0.0000 
     47 CA         78.3500   53.4100   25.4590 C.3       6 GLP5        0.0000 
     48 CA         80.7520   51.4805   26.3940 C.3       3 GLC5        0.0000 
     49 CA         80.7650   51.6180   24.5120 C.3       6 GLP5        0.0000 
     50 N          81.6960   48.9335   26.5045 N.am      2 SEC2        0.0000 
     51 N          80.4850   49.4620   26.9230 N.am      8 SEL2        0.0000 
     52 N          82.9070   48.4050   26.0860 N.am      5 SEP2        0.0000 
     53 O          78.3740   48.6270   28.5185 O.2       1 ALC1        0.0000 
     54 O          79.2000   49.6890   28.8070 O.2       7 ALL1        0.0000 
     55 O          77.5480   47.5650   28.2300 O.2       4 ALP1        0.0000 
     56 CA         79.3145   53.2865   28.0040 C.3       3 GLC5        0.0000 
     57 CA         80.2570   52.0670   29.4780 C.3       9 GLL5        0.0000 
     58 CA         78.1690   51.6640   29.7350 C.3       3 GLC5        0.0000 
     59 CA         76.0810   51.2610   29.9920 C.3       6 GLP5        0.0000 
     60 CA         78.1693   56.1763   30.0678 C.3       3 GLC5        0.0000 
     61 CA         76.2030   55.2930   30.4100 C.3       6 GLP5        0.0000 
@<TRIPOS>BOND
@<TRIPOS>SUBSTRUCTURE
     1 ALC1       36 GROUP        1 X    ALC  0     ROOT ALC X 1
     2 SEC2        1 GROUP        1 X    SEC  0     **** SEC X 2
     3 GLC5       17 GROUP        1 X    GLC  0     **** GLC X 6
     4 ALP1       38 GROUP        1 Y    ALP  0     ROOT ALP Y 8
     5 SEP2        3 GROUP        1 Y    SEP  0     **** SEP Y 9
     6 GLP5       19 GROUP        1 Y    GLP  0     **** GLP Y 13
     7 ALL1       37 GROUP        1 Z    ALL  0     ROOT ALL Z 15
     8 SEL2        2 GROUP        1 Z    SEL  0     **** SEL Z 16
     9 GLL5       18 GROUP        1 Z    GLL  0     **** GLL Z 20
@<TRIPOS>SET

