#    Name: 1jr1_IMP_1_ligand
#    Modification time : Tue Mar 25 09:18:00 2014

@<TRIPOS>MOLECULE
1jr1_IMP_1_ligand
   34    36     1     0     0
SMALL
NO_CHARGES


@<TRIPOS>ATOM
      1 P          77.7040   58.6720   28.7660 P.3       1 IMP1332     0.0000 
      2 O1P        76.2560   58.6700   29.1700 O.co2     1 IMP1332     0.0000 
      3 O2P        78.4170   59.8840   29.2590 O.co2     1 IMP1332     0.0000 
      4 O3P        77.8390   58.5750   27.2860 O.co2     1 IMP1332     0.0000 
      5 O5'        78.4060   57.4570   29.3290 O.3       1 IMP1332     0.0000 
      6 C5'        79.8490   57.4580   29.1430 C.3       1 IMP1332     0.0000 
      7 C4'        80.4220   56.6610   30.3080 C.3       1 IMP1332     0.0000 
      8 O4'        79.8200   55.3520   30.3280 O.3       1 IMP1332     0.0000 
      9 C3'        81.9390   56.4850   30.1360 C.3       1 IMP1332     0.0000 
     10 O3'        82.7150   57.3710   30.9270 O.3       1 IMP1332     0.0000 
     11 C2'        82.1300   55.0940   30.7610 C.3       1 IMP1332     0.0000 
     12 O2'        82.1530   55.1010   32.1980 O.3       1 IMP1332     0.0000 
     13 C1'        80.8390   54.3780   30.3730 C.3       1 IMP1332     0.0000 
     14 N9         80.9990   53.2190   29.5080 N.pl3     1 IMP1332     0.0000 
     15 C8         81.8560   53.1970   28.4300 C.2       1 IMP1332     0.0000 
     16 N7         81.7060   52.0770   27.6860 N.2       1 IMP1332     0.0000 
     17 C5         80.7390   51.3430   28.2760 C.2       1 IMP1332     0.0000 
     18 C6         80.1700   50.0970   27.9290 C.2       1 IMP1332     0.0000 
     19 O6         80.4850   49.4620   26.9230 O.2       1 IMP1332     0.0000 
     20 N1         79.2000   49.6890   28.8070 N.am      1 IMP1332     0.0000 
     21 C2         78.7440   50.3650   29.9510 C.2       1 IMP1332     0.0000 
     22 N3         79.2650   51.5500   30.2880 N.2       1 IMP1332     0.0000 
     23 C4         80.2570   52.0670   29.4780 C.2       1 IMP1332     0.0000 
     24 H          80.2501   58.4578   29.1793 H         1 IMP1332     0.0000 
     25 H          80.1278   56.9713   28.2225 H         1 IMP1332     0.0000 
     26 H          80.2419   57.1867   31.2176 H         1 IMP1332     0.0000 
     27 H          82.1824   56.4252   29.1378 H         1 IMP1332     0.0000 
     28 H          82.9258   54.6033   30.3121 H         1 IMP1332     0.0000 
     29 H          80.6246   53.8499   31.4881 H         1 IMP1332     0.0000 
     30 H          82.4965   53.9168   28.2354 H         1 IMP1332     0.0000 
     31 H          78.7227   48.7383   28.6072 H         1 IMP1332     0.0000 
     32 H          77.9986   49.9180   30.5175 H         1 IMP1332     0.0000 
     33 H          82.0553   58.0103   31.3222 H         1 IMP1332     0.0000 
     34 H          82.3882   56.0401   32.4484 H         1 IMP1332     0.0000 
@<TRIPOS>BOND
     1    2    1 ar   
     2    3    1 ar   
     3    4    1 ar   
     4    5    1 1    
     5    6    5 1    
     6    7    6 1    
     7   24    6 1    
     8   25    6 1    
     9    8    7 1    
    10    9    7 1    
    11   26    7 1    
    12   13    8 1    
    13   10    9 1    
    14   11    9 1    
    15   27    9 1    
    16   33   10 1    
    17   12   11 1    
    18   13   11 1    
    19   28   11 1    
    20   34   12 1    
    21   14   13 1    
    22   29   13 1    
    23   15   14 1    
    24   23   14 1    
    25   16   15 2    
    26   30   15 1    
    27   17   16 1    
    28   18   17 1    
    29   23   17 2    
    30   19   18 2    
    31   20   18 am   
    32   21   20 1    
    33   31   20 1    
    34   22   21 2    
    35   32   21 1    
    36   23   22 1    
@<TRIPOS>SUBSTRUCTURE
     1 IMP1332     1 GROUP   
@<TRIPOS>SET

