#    Name: 3h2b_SAH_1_INTS_M
#    Modification time : Tue Mar 25 13:29:03 2014

@<TRIPOS>MOLECULE
3h2b_SAH_1_INTS_M
   74     0    12     0     0
SMALL
NO_CHARGES


@<TRIPOS>ATOM
      1 O          27.8380   40.0130   35.4000 O.2       1 ALC1        0.0000 
      2 O          27.7560   41.1650   34.3030 O.2       9 ALL1        0.0000 
      3 O          27.9200   38.8610   36.4970 O.2       5 ALP1        0.0000 
      4 O          27.1280   42.3205   35.1030 O.2       1 ALC1        0.0000 
      5 O          26.5000   43.4760   35.9030 O.2       5 ALP1        0.0000 
      6 O          28.7050   41.1400   33.5800 O.2       1 ALC1        0.0000 
      7 O          29.6540   41.1150   32.8570 O.2       5 ALP1        0.0000 
      8 CA         28.0230   38.8140   34.4180 C.3       4 GLC5        0.0000 
      9 CA         26.5240   40.4280   34.0160 C.3      12 GLL5        0.0000 
     10 CA         29.5220   37.2000   34.8200 C.3       8 GLP5        0.0000 
     11 CA         21.4730   39.3135   37.0175 C.3       4 GLC5        0.0000 
     12 CA         22.9190   40.1790   36.3830 C.3      12 GLL5        0.0000 
     13 CA         20.0270   38.4480   37.6520 C.3       8 GLP5        0.0000 
     14 NZ         25.4825   42.7520   31.2975 N.4       3 LYC4        0.0000 
     15 NZ         25.9650   42.2230   32.4840 N.4      11 LYL4        0.0000 
     16 NZ         25.0420   42.4880   29.0480 N.4       7 LYP4        0.0000 
     17 N          25.6690   41.7175   30.8455 N.am      2 SEC2        0.0000 
     18 N          25.9650   42.2230   32.4840 N.am     10 SEL2        0.0000 
     19 N          25.3730   41.2120   29.2070 N.am      6 SEP2        0.0000 
     20 N          25.4825   42.7520   31.2975 N.am      2 SEC2        0.0000 
     21 N          25.0000   43.2810   30.1110 N.am      6 SEP2        0.0000 
     22 NZ         25.3230   40.6985   30.5600 N.4       3 LYC4        0.0000 
     23 NZ         25.2730   40.1850   31.9130 N.4      11 LYL4        0.0000 
     24 N          25.3230   40.6985   30.5600 N.am      2 SEC2        0.0000 
     25 N          25.2730   40.1850   31.9130 N.am     10 SEL2        0.0000 
     26 CA         22.0340   39.5535   38.4210 C.3       4 GLC5        0.0000 
     27 CA         23.9290   40.0600   37.9380 C.3      12 GLL5        0.0000 
     28 CA         20.1390   39.0470   38.9040 C.3       8 GLP5        0.0000 
     29 CA         25.0440   41.1605   38.9595 C.3       4 GLC5        0.0000 
     30 CA         26.1590   42.2610   39.9810 C.3       8 GLP5        0.0000 
     31 CA         26.7250   38.3365   38.3575 C.3       4 GLC5        0.0000 
     32 CA         24.6270   38.7430   38.2110 C.3      12 GLL5        0.0000 
     33 CA         28.8230   37.9300   38.5040 C.3       8 GLP5        0.0000 
     34 CA         26.0075   40.0650   38.9595 C.3       4 GLC5        0.0000 
     35 CA         27.3880   41.3870   39.7080 C.3       8 GLP5        0.0000 
     36 CA         21.8810   37.2580   37.8225 C.3       4 GLC5        0.0000 
     37 CA         23.6990   37.4500   38.0920 C.3      12 GLL5        0.0000 
     38 CA         20.0630   37.0660   37.5530 C.3       8 GLP5        0.0000 
     39 O          25.4790   35.9840   37.1860 O.2       1 ALC1        0.0000 
     40 O          24.2850   36.4850   37.1420 O.2       9 ALL1        0.0000 
     41 O          26.6730   35.4830   37.2300 O.2       5 ALP1        0.0000 
     42 CA         21.9470   36.9095   39.7300 C.3       4 GLC5        0.0000 
     43 CA         23.5800   36.9420   39.5290 C.3      12 GLL5        0.0000 
     44 CA         20.3140   36.8770   39.9310 C.3       8 GLP5        0.0000 
     45 O          24.6330   34.8285   39.1710 O.2       1 ALC1        0.0000 
     46 O          23.7130   35.5210   39.7560 O.2       9 ALL1        0.0000 
     47 O          25.5530   34.1360   38.5860 O.2       5 ALP1        0.0000 
     48 CA         22.4280   38.0215   40.1920 C.3       4 GLC5        0.0000 
     49 CA         24.5760   37.7720   40.3360 C.3      12 GLL5        0.0000 
     50 CA         20.2800   38.2710   40.0480 C.3       8 GLP5        0.0000 
     51 CA         28.2760   35.7325   45.2670 C.3       4 GLC5        0.0000 
     52 CA         27.4540   37.4650   44.2930 C.3      12 GLL5        0.0000 
     53 CA         29.0980   34.0000   46.2410 C.3       8 GLP5        0.0000 
     54 CA         29.1865   38.2770   44.5020 C.3       4 GLC5        0.0000 
     55 CA         30.9190   39.0890   44.7110 C.3       8 GLP5        0.0000 
     56 N          29.7730   36.6265   44.5690 N.am      2 SEC2        0.0000 
     57 N          28.5800   37.0150   43.5970 N.am     10 SEL2        0.0000 
     58 N          30.9660   36.2380   45.5410 N.am      6 SEP2        0.0000 
     59 CA         28.6555   37.3965   40.3880 C.3       4 GLC5        0.0000 
     60 CA         28.4880   36.8630   42.2720 C.3      12 GLL5        0.0000 
     61 CA         27.9710   35.4120   41.6345 C.3       4 GLC5        0.0000 
     62 CA         27.4540   33.9610   40.9970 C.3       8 GLP5        0.0000 
     63 CA         29.2845   35.4465   43.6710 C.3       4 GLC5        0.0000 
     64 CA         30.0810   34.0300   45.0700 C.3       8 GLP5        0.0000 
     65 CA         29.7035   37.9760   43.4915 C.3       4 GLC5        0.0000 
     66 CA         27.5590   37.7330   40.3495 C.3       4 GLC5        0.0000 
     67 CA         26.2950   37.5360   42.1950 C.3      12 GLL5        0.0000 
     68 CA         22.4207   39.5212   34.4525 C.3       4 GLC5        0.0000 
     69 CA         21.2710   39.0040   33.1430 C.3       8 GLP5        0.0000 
     70 CA         26.7595   39.2657   45.2310 C.3       4 GLC5        0.0000 
     71 CA         26.2140   37.7540   43.5830 C.3      12 GLL5        0.0000 
     72 CA         26.6850   40.9220   46.5240 C.3       8 GLP5        0.0000 
     73 CA         26.4567   35.6944   42.5482 C.3       4 GLC5        0.0000 
     74 CA         26.3490   33.8160   42.0300 C.3       8 GLP5        0.0000 
@<TRIPOS>BOND
@<TRIPOS>SUBSTRUCTURE
     1 ALC1        1 GROUP        1 X    ALC  0     ROOT ALC X 1
     2 SEC2       17 GROUP        1 X    SEC  0     **** SEC X 2
     3 LYC4       14 GROUP        1 X    LYC  0     **** LYC X 4
     4 GLC5        8 GROUP        1 X    GLC  0     **** GLC X 6
     5 ALP1        3 GROUP        1 Y    ALP  0     ROOT ALP Y 8
     6 SEP2       19 GROUP        1 Y    SEP  0     **** SEP Y 9
     7 LYP4       16 GROUP        1 Y    LYP  0     **** LYP Y 11
     8 GLP5       10 GROUP        1 Y    GLP  0     **** GLP Y 13
     9 ALL1        2 GROUP        1 Z    ALL  0     ROOT ALL Z 15
    10 SEL2       18 GROUP        1 Z    SEL  0     **** SEL Z 16
    11 LYL4       15 GROUP        1 Z    LYL  0     **** LYL Z 18
    12 GLL5        9 GROUP        1 Z    GLL  0     **** GLL Z 20
@<TRIPOS>SET

