#    Name: 3h2b_SAH_1_ligand
#    Modification time : Tue Mar 25 13:29:03 2014

@<TRIPOS>MOLECULE
3h2b_SAH_1_ligand
   46    48     1     0     0
SMALL
NO_CHARGES


@<TRIPOS>ATOM
      1 N          27.7560   41.1650   34.3030 N.4       1 SAH301      0.0000 
      2 CA         26.5240   40.4280   34.0160 C.3       1 SAH301      0.0000 
      3 CB         25.5750   40.6190   35.2250 C.3       1 SAH301      0.0000 
      4 CG         24.2220   39.8980   35.1410 C.3       1 SAH301      0.0000 
      5 SD         22.9190   40.1790   36.3830 S.3       1 SAH301      0.0000 
      6 C          25.8700   40.9750   32.6980 C.2       1 SAH301      0.0000 
      7 O          25.9650   42.2230   32.4840 O.co2     1 SAH301      0.0000 
      8 OXT        25.2730   40.1850   31.9130 O.co2     1 SAH301      0.0000 
      9 C5'        23.9290   40.0600   37.9380 C.3       1 SAH301      0.0000 
     10 C4'        24.6270   38.7430   38.2110 C.3       1 SAH301      0.0000 
     11 O4'        25.1860   38.8260   39.5360 O.3       1 SAH301      0.0000 
     12 C3'        23.6990   37.4500   38.0920 C.3       1 SAH301      0.0000 
     13 O3'        24.2850   36.4850   37.1420 O.3       1 SAH301      0.0000 
     14 C2'        23.5800   36.9420   39.5290 C.3       1 SAH301      0.0000 
     15 O2'        23.7130   35.5210   39.7560 O.3       1 SAH301      0.0000 
     16 C1'        24.5760   37.7720   40.3360 C.3       1 SAH301      0.0000 
     17 N9         25.0160   37.8590   41.7170 N.pl3     1 SAH301      0.0000 
     18 C8         24.2390   38.2650   42.8260 C.2       1 SAH301      0.0000 
     19 N7         24.9420   38.2080   43.9400 N.2       1 SAH301      0.0000 
     20 C5         26.2140   37.7540   43.5830 C.ar      1 SAH301      0.0000 
     21 C6         27.4540   37.4650   44.2930 C.ar      1 SAH301      0.0000 
     22 N6         27.5580   37.6120   45.6230 N.pl3     1 SAH301      0.0000 
     23 N1         28.5800   37.0150   43.5970 N.ar      1 SAH301      0.0000 
     24 C2         28.4880   36.8630   42.2720 C.ar      1 SAH301      0.0000 
     25 N3         27.4280   37.0810   41.4990 N.ar      1 SAH301      0.0000 
     26 C4         26.2950   37.5360   42.1950 C.ar      1 SAH301      0.0000 
     27 H          26.7177   39.3887   33.8949 H         1 SAH301      0.0000 
     28 H          25.3941   41.7049   35.3575 H         1 SAH301      0.0000 
     29 H          26.1038   40.2819   36.1394 H         1 SAH301      0.0000 
     30 H          24.3282   38.7913   35.1735 H         1 SAH301      0.0000 
     31 H          23.6814   40.1192   34.1945 H         1 SAH301      0.0000 
     32 H          23.1835   40.3321   38.6893 H         1 SAH301      0.0000 
     33 H          24.6095   40.9049   37.8069 H         1 SAH301      0.0000 
     34 H          25.4326   38.6207   37.4851 H         1 SAH301      0.0000 
     35 H          22.7416   37.8101   37.7724 H         1 SAH301      0.0000 
     36 H          22.5719   37.2945   39.8866 H         1 SAH301      0.0000 
     37 H          25.6555   36.9217   39.9720 H         1 SAH301      0.0000 
     38 H          23.3079   38.5420   42.7257 H         1 SAH301      0.0000 
     39 H          28.4417   37.3715   46.0245 H         1 SAH301      0.0000 
     40 H          26.7425   37.9489   46.0936 H         1 SAH301      0.0000 
     41 H          29.3996   36.5160   41.7625 H         1 SAH301      0.0000 
     42 H          28.4261   40.5966   34.7804 H         1 SAH301      0.0000 
     43 H          28.1944   41.4955   33.4672 H         1 SAH301      0.0000 
     44 H          27.5851   41.9638   34.8798 H         1 SAH301      0.0000 
     45 H          25.2266   36.3554   37.4527 H         1 SAH301      0.0000 
     46 H          24.4903   35.2407   39.1927 H         1 SAH301      0.0000 
@<TRIPOS>BOND
     1    2    1 1    
     2   42    1 1    
     3   43    1 1    
     4   44    1 1    
     5    3    2 1    
     6    6    2 1    
     7   27    2 1    
     8    4    3 1    
     9   28    3 1    
    10   29    3 1    
    11    5    4 1    
    12   30    4 1    
    13   31    4 1    
    14    9    5 1    
    15    7    6 ar   
    16    8    6 ar   
    17   10    9 1    
    18   32    9 1    
    19   33    9 1    
    20   11   10 1    
    21   12   10 1    
    22   34   10 1    
    23   16   11 1    
    24   13   12 1    
    25   14   12 1    
    26   35   12 1    
    27   45   13 1    
    28   15   14 1    
    29   16   14 1    
    30   36   14 1    
    31   46   15 1    
    32   17   16 1    
    33   37   16 1    
    34   18   17 1    
    35   26   17 1    
    36   19   18 2    
    37   38   18 1    
    38   20   19 1    
    39   21   20 ar   
    40   26   20 ar   
    41   22   21 1    
    42   23   21 ar   
    43   39   22 1    
    44   40   22 1    
    45   24   23 ar   
    46   25   24 ar   
    47   41   24 1    
    48   26   25 ar   
@<TRIPOS>SUBSTRUCTURE
     1 SAH301      1 GROUP   
@<TRIPOS>SET

