#    Name: 4MX1_1_CAVITY_N1_6.mol2
#    Modification time : Tue Mar 11 15:38:23 2014

@<TRIPOS>MOLECULE
4MX1_1_CAVITY_N1_6.mol2
   62     0     6     0     0
SMALL
NO_CHARGES


@<TRIPOS>ATOM
      1 O         -26.6179   17.3049   -7.5774 O.2       2 ALA2        0.0000 
      2 N         -25.7346   18.0850  -10.7177 N.2       2 ALA2        0.0000 
      3 CA        -27.9494   15.6549   -7.6453 C.3       5 GLY6        0.0000 
      4 CA        -27.3693   15.5352  -16.1099 C.3       5 GLY6        0.0000 
      5 CZ        -24.7164   17.1724   -8.5085 C.ar      4 PHE5        0.0000 
      6 CA        -25.4547   16.3624   -7.4844 C.3       5 GLY6        0.0000 
      7 N         -24.5714   17.1425  -10.6246 N.2       2 ALA2        0.0000 
      8 CZ        -25.3097   16.3324   -9.6005 C.ar      4 PHE5        0.0000 
      9 O         -26.0479   15.5224   -8.5764 O.2       2 ALA2        0.0000 
     10 N         -25.1647   16.3025  -11.7167 N.2       2 ALA2        0.0000 
     11 DU        -25.9029   15.4925  -10.6926 H         6 CUB7        0.0000 
     12 OG        -26.6412   14.6824   -9.6684 O.2       1 SER1        0.0000 
     13 N         -25.0196   16.2726  -13.8328 N.2       2 ALA2        0.0000 
     14 N         -25.7579   15.4626  -12.8087 N.2       2 ALA2        0.0000 
     15 OG        -26.4962   14.6525  -11.7846 O.2       1 SER1        0.0000 
     16 OG        -27.2344   13.8425  -10.7605 O.2       1 SER1        0.0000 
     17 O         -25.6129   15.4326  -14.9249 O.2       2 ALA2        0.0000 
     18 DU        -26.3511   14.6226  -13.9007 H         6 CUB7        0.0000 
     19 OG        -27.0894   13.8126  -12.8766 O.2       1 SER1        0.0000 
     20 O         -26.9444   13.7826  -14.9928 O.2       2 ALA2        0.0000 
     21 OG        -27.6826   12.9726  -13.9686 O.2       1 SER1        0.0000 
     22 OG        -28.4209   12.1626  -12.9445 O.2       1 SER1        0.0000 
     23 CA        -27.5376   12.9427  -16.0848 C.3       5 GLY6        0.0000 
     24 DU        -28.2759   12.1326  -15.0607 H         6 CUB7        0.0000 
     25 CZ        -23.4082   16.2000  -10.5316 C.ar      4 PHE5        0.0000 
     26 CZ        -24.1465   15.3899   -9.5075 C.ar      4 PHE5        0.0000 
     27 CZ        -24.8847   14.5799   -8.4834 C.ar      4 PHE5        0.0000 
     28 N         -24.0014   15.3600  -11.6236 N.2       2 ALA2        0.0000 
     29 OG        -24.7397   14.5500  -10.5995 O.2       1 SER1        0.0000 
     30 OG        -25.4780   13.7399   -9.5754 O.2       1 SER1        0.0000 
     31 OG        -26.2162   12.9299   -8.5513 O.2       1 SER1        0.0000 
     32 N         -24.5947   14.5201  -12.7157 N.2       2 ALA2        0.0000 
     33 OG        -25.3329   13.7100  -11.6916 O.2       1 SER1        0.0000 
     34 O         -24.4497   14.4901  -14.8318 O.2       2 ALA2        0.0000 
     35 CZ        -25.1879   13.6801  -13.8077 C.ar      4 PHE5        0.0000 
     36 OG        -25.9262   12.8701  -12.7836 O.2       1 SER1        0.0000 
     37 CZ        -25.7812   12.8401  -14.8997 C.ar      4 PHE5        0.0000 
     38 OG        -26.5194   12.0301  -13.8756 O.2       1 SER1        0.0000 
     39 CZ        -26.3744   12.0002  -15.9918 C.ar      4 PHE5        0.0000 
     40 O         -24.4598   12.8274   -7.3662 O.2       2 ALA2        0.0000 
     41 N         -22.8382   14.4175  -11.5306 N.2       2 ALA2        0.0000 
     42 CZ        -23.5765   13.6075  -10.5065 C.ar      4 PHE5        0.0000 
     43 OG        -24.3148   12.7974   -9.4824 O.2       1 SER1        0.0000 
     44 OG        -25.0530   11.9874   -8.4583 O.2       1 SER1        0.0000 
     45 N         -23.4315   13.5776  -12.6226 N.2       2 ALA2        0.0000 
     46 OG        -24.1697   12.7675  -11.5985 O.2       1 SER1        0.0000 
     47 CZ        -24.0247   12.7376  -13.7147 C.ar      4 PHE5        0.0000 
     48 OG        -24.7630   11.9276  -12.6906 O.2       1 SER1        0.0000 
     49 CZ        -25.3562   11.0876  -13.7826 C.ar      4 PHE5        0.0000 
     50 CZ        -23.2966   11.8849   -7.2732 C.ar      4 PHE5        0.0000 
     51 N         -24.0348   11.0748   -6.2491 N.2       2 ALA2        0.0000 
     52 NZ        -22.4133   12.6650  -10.4135 N.2       3 LYS4        0.0000 
     53 CZ        -23.1516   11.8549   -9.3893 C.ar      4 PHE5        0.0000 
     54 CZ        -23.8898   11.0449   -8.3652 C.ar      4 PHE5        0.0000 
     55 CZ        -24.6281   10.2349   -7.3411 C.ar      4 PHE5        0.0000 
     56 O         -22.2683   12.6351  -12.5296 O.2       2 ALA2        0.0000 
     57 O         -23.0065   11.8250  -11.5055 O.2       2 ALA2        0.0000 
     58 CZ        -23.7448   11.0150  -10.4814 C.ar      4 PHE5        0.0000 
     59 O         -21.9883   10.9124   -9.2963 O.2       2 ALA2        0.0000 
     60 CA        -22.7266   10.1024   -8.2722 C.3       5 GLY6        0.0000 
     61 CA        -23.4649    9.2924   -7.2481 C.3       5 GLY6        0.0000 
     62 CZ        -23.3198    9.2624   -9.3642 C.ar      4 PHE5        0.0000 
@<TRIPOS>BOND
@<TRIPOS>SUBSTRUCTURE
     1 SER1       12 GROUP   
     2 ALA2        1 GROUP   
     3 LYS4       52 GROUP   
     4 PHE5        5 GROUP   
     5 GLY6        3 GROUP   
     6 CUB7       11 GROUP   
@<TRIPOS>SET

