#    Name: 4mx1_1MX_1_INTS_M
#    Modification time : Tue Mar 25 12:25:11 2014

@<TRIPOS>MOLECULE
4mx1_1MX_1_INTS_M
   42     0     9     0     0
SMALL
NO_CHARGES


@<TRIPOS>ATOM
      1 O         -24.4760    6.6340   -5.2945 O.2       1 ALC1        0.0000 
      2 O         -24.2870    8.0680   -5.2840 O.2       7 ALL1        0.0000 
      3 O         -24.6650    5.2000   -5.3050 O.2       4 ALP1        0.0000 
      4 N         -22.2405    8.4150  -10.6715 N.am      2 SEC2        0.0000 
      5 N         -22.1220    8.2520   -9.2320 N.am      8 SEL2        0.0000 
      6 N         -22.3590    8.5780  -12.1110 N.am      5 SEP2        0.0000 
      7 N         -25.4420   14.5555   -6.7210 N.am      2 SEC2        0.0000 
      8 N         -25.5170   14.6200   -8.1710 N.am      8 SEL2        0.0000 
      9 N         -25.3670   14.4910   -5.2710 N.am      5 SEP2        0.0000 
     10 N         -25.0005   14.7775  -16.3035 N.am      2 SEC2        0.0000 
     11 N         -25.1990   15.1030  -14.9190 N.am      8 SEL2        0.0000 
     12 N         -24.8020   14.4520  -17.6880 N.am      5 SEP2        0.0000 
     13 CA        -25.5730   11.7905   -6.4275 C.3       3 GLC5        0.0000 
     14 CA        -24.0210   10.7840   -7.5220 C.3       9 GLL5        0.0000 
     15 CA        -27.1250   12.7970   -5.3330 C.3       6 GLP5        0.0000 
     16 N         -21.8675   10.6090  -10.7810 N.am      2 SEC2        0.0000 
     17 N         -22.9010   10.9390   -9.6780 N.am      8 SEL2        0.0000 
     18 N         -20.8340   10.2790  -11.8840 N.am      5 SEP2        0.0000 
     19 N         -22.6300    9.7585  -10.8945 N.am      2 SEC2        0.0000 
     20 O         -23.4115   14.2380  -11.2000 O.2       1 ALC1        0.0000 
     21 O         -24.6770   14.6440  -10.2080 O.2       7 ALL1        0.0000 
     22 O         -22.1460   13.8320  -12.1920 O.2       4 ALP1        0.0000 
     23 O         -23.5640   15.9055  -13.1485 O.2       1 ALC1        0.0000 
     24 O         -25.2110   15.6490  -12.7770 O.2       7 ALL1        0.0000 
     25 O         -21.9170   16.1620  -13.5200 O.2       4 ALP1        0.0000 
     26 CA        -23.7280   15.7750   -9.0605 C.3       3 GLC5        0.0000 
     27 CA        -25.1500   16.0490  -10.4410 C.3       9 GLL5        0.0000 
     28 CA        -22.3060   15.5010   -7.6800 C.3       6 GLP5        0.0000 
     29 CA        -27.2850    8.7400  -16.6695 C.3       3 GLC5        0.0000 
     30 CA        -27.2960    9.9230  -14.8060 C.3       9 GLL5        0.0000 
     31 CA        -27.2740    7.5570  -18.5330 C.3       6 GLP5        0.0000 
     32 CA        -26.9230   10.3760  -17.4545 C.3       3 GLC5        0.0000 
     33 CA        -27.4810   11.0540  -15.5980 C.3       9 GLL5        0.0000 
     34 CA        -26.3650    9.6980  -19.3110 C.3       6 GLP5        0.0000 
     35 CA        -21.8107   10.3220   -7.5303 C.3       3 GLC5        0.0000 
     36 CA        -23.2180   10.1600   -8.5610 C.3       9 GLL5        0.0000 
     37 CA        -20.0020   10.1720   -7.0190 C.3       6 GLP5        0.0000 
     38 CA        -26.5845    8.0595  -14.2800 C.3       3 GLC5        0.0000 
     39 CA        -26.7100   10.0730  -13.5600 C.3       9 GLL5        0.0000 
     40 CA        -26.1660    6.1210  -14.3770 C.3       6 GLP5        0.0000 
     41 CA        -26.6632   12.8885  -16.8957 C.3       3 GLC5        0.0000 
     42 CA        -26.0400   14.0790  -18.3910 C.3       6 GLP5        0.0000 
@<TRIPOS>BOND
@<TRIPOS>SUBSTRUCTURE
     1 ALC1        1 GROUP        1 X    ALC  0     ROOT ALC X 1
     2 SEC2        4 GROUP        1 X    SEC  0     **** SEC X 2
     3 GLC5       13 GROUP        1 X    GLC  0     **** GLC X 6
     4 ALP1        3 GROUP        1 Y    ALP  0     ROOT ALP Y 8
     5 SEP2        6 GROUP        1 Y    SEP  0     **** SEP Y 9
     6 GLP5       15 GROUP        1 Y    GLP  0     **** GLP Y 13
     7 ALL1        2 GROUP        1 Z    ALL  0     ROOT ALL Z 15
     8 SEL2        5 GROUP        1 Z    SEL  0     **** SEL Z 16
     9 GLL5       14 GROUP        1 Z    GLL  0     **** GLL Z 20
@<TRIPOS>SET

