#    Name: 4mx1_1MX_1_ligand
#    Modification time : Tue Mar 25 12:25:11 2014

@<TRIPOS>MOLECULE
4mx1_1MX_1_ligand
   43    45     1     0     0
SMALL
NO_CHARGES


@<TRIPOS>ATOM
      1 C         -23.9710    8.8080   -6.3600 C.2       1 1MX301      0.0000 
      2 N         -24.2870    8.0680   -5.2840 N.pl3     1 1MX301      0.0000 
      3 O         -22.1220    8.2520   -9.2320 O.2       1 1MX301      0.0000 
      4 C1        -22.8220    8.8190   -8.3660 C.2       1 1MX301      0.0000 
      5 N1        -23.1990    8.1510   -7.2600 N.am      1 1MX301      0.0000 
      6 O1        -25.5170   14.6200   -8.1710 O.2       1 1MX301      0.0000 
      7 C2        -23.2180   10.1600   -8.5610 C.ar      1 1MX301      0.0000 
      8 N2        -24.2950   10.0880   -6.4430 N.2       1 1MX301      0.0000 
      9 O2        -25.1990   15.1030  -14.9190 O.2       1 1MX301      0.0000 
     10 C3        -24.0210   10.7840   -7.5220 C.ar      1 1MX301      0.0000 
     11 N3        -24.4810   12.0270   -7.6700 N.ar      1 1MX301      0.0000 
     12 C4        -24.2190   12.6980   -8.8080 C.ar      1 1MX301      0.0000 
     13 N4        -22.9010   10.9390   -9.6780 N.ar      1 1MX301      0.0000 
     14 C5        -23.3510   12.1930   -9.8060 C.ar      1 1MX301      0.0000 
     15 N5        -24.6770   14.6440  -10.2080 N.am      1 1MX301      0.0000 
     16 C6        -24.7670   14.0890   -8.9990 C.2       1 1MX301      0.0000 
     17 N6        -25.2110   15.6490  -12.7770 N.am      1 1MX301      0.0000 
     18 C7        -25.1500   16.0490  -10.4410 C.3       1 1MX301      0.0000 
     19 N7        -26.1190   13.6760  -13.3560 N.am      1 1MX301      0.0000 
     20 C8        -26.0570   16.0010  -11.6500 C.3       1 1MX301      0.0000 
     21 C9        -25.5140   14.7920  -13.7700 C.2       1 1MX301      0.0000 
     22 C10       -26.5030   12.4790  -13.9200 C.ar      1 1MX301      0.0000 
     23 C11       -26.3360   11.3710  -13.1410 C.ar      1 1MX301      0.0000 
     24 C12       -26.7100   10.0730  -13.5600 C.ar      1 1MX301      0.0000 
     25 C13       -27.2960    9.9230  -14.8060 C.ar      1 1MX301      0.0000 
     26 C14       -27.4810   11.0540  -15.5980 C.ar      1 1MX301      0.0000 
     27 C15       -27.0920   12.3420  -15.2030 C.ar      1 1MX301      0.0000 
     28 H         -24.7613    7.2067   -5.4662 H         1 1MX301      0.0000 
     29 H         -24.0197    8.4446   -4.3970 H         1 1MX301      0.0000 
     30 H         -22.9145    7.1786   -7.0995 H         1 1MX301      0.0000 
     31 H         -23.0965   12.7978  -10.5884 H         1 1MX301      0.0000 
     32 H         -24.2928   14.1679  -11.0323 H         1 1MX301      0.0000 
     33 H         -24.2579   16.1424  -12.7822 H         1 1MX301      0.0000 
     34 H         -24.3118   16.6918  -10.6440 H         1 1MX301      0.0000 
     35 H         -25.7041   16.3982   -9.5878 H         1 1MX301      0.0000 
     36 H         -26.3982   13.7112  -12.2339 H         1 1MX301      0.0000 
     37 H         -26.8204   15.2549  -11.4844 H         1 1MX301      0.0000 
     38 H         -26.5084   16.9728  -11.7867 H         1 1MX301      0.0000 
     39 H         -25.9130   11.4646  -12.1850 H         1 1MX301      0.0000 
     40 H         -26.5469    9.2774  -12.9511 H         1 1MX301      0.0000 
     41 H         -27.5874    9.0050  -15.1402 H         1 1MX301      0.0000 
     42 H         -27.9337   10.9404  -16.5377 H         1 1MX301      0.0000 
     43 H         -27.2217   13.1387  -15.7979 H         1 1MX301      0.0000 
@<TRIPOS>BOND
     1    2    1 1    
     2    5    1 1    
     3    8    1 2    
     4   28    2 1    
     5   29    2 1    
     6    4    3 2    
     7    5    4 am   
     8    7    4 1    
     9   30    5 1    
    10   16    6 2    
    11   10    7 ar   
    12   13    7 ar   
    13   10    8 1    
    14   21    9 2    
    15   11   10 ar   
    16   12   11 ar   
    17   14   12 ar   
    18   16   12 1    
    19   14   13 ar   
    20   31   14 1    
    21   16   15 am   
    22   18   15 1    
    23   32   15 1    
    24   20   17 1    
    25   21   17 am   
    26   33   17 1    
    27   20   18 1    
    28   34   18 1    
    29   35   18 1    
    30   21   19 am   
    31   22   19 1    
    32   36   19 1    
    33   37   20 1    
    34   38   20 1    
    35   23   22 ar   
    36   27   22 ar   
    37   24   23 ar   
    38   39   23 1    
    39   25   24 ar   
    40   40   24 1    
    41   26   25 ar   
    42   41   25 1    
    43   27   26 ar   
    44   42   26 1    
    45   43   27 1    
@<TRIPOS>SUBSTRUCTURE
     1 1MX301      1 GROUP   
@<TRIPOS>SET

