#    Name: 4ccu_AWF_1_INTS_M
#    Modification time : Tue Mar 25 09:11:30 2014

@<TRIPOS>MOLECULE
4ccu_AWF_1_INTS_M
   69     0     9     0     0
SMALL
NO_CHARGES


@<TRIPOS>ATOM
      1 CA         36.2965   47.1790   11.9405 C.3       3 GLC5        0.0000 
      2 CA         34.9340   46.7420   10.3000 C.3       9 GLL5        0.0000 
      3 CA         37.6590   47.6160   13.5810 C.3       6 GLP5        0.0000 
      4 CA         32.1370   45.1350   11.5810 C.3       3 GLC5        0.0000 
      5 CA         33.4390   44.7990   10.3460 C.3       9 GLL5        0.0000 
      6 CA         30.8350   45.4710   12.8160 C.3       6 GLP5        0.0000 
      7 CA         26.0590   45.6175    8.7545 C.3       3 GLC5        0.0000 
      8 CA         27.7900   46.4170    9.6050 C.3       9 GLL5        0.0000 
      9 CA         24.3280   44.8180    7.9040 C.3       6 GLP5        0.0000 
     10 CA         27.3285   46.6740   11.4205 C.3       3 GLC5        0.0000 
     11 CA         26.8670   46.9310   13.2360 C.3       6 GLP5        0.0000 
     12 CA         32.1605   46.3140   10.3245 C.3       3 GLC5        0.0000 
     13 CA         33.1320   44.9420    8.9410 C.3       9 GLL5        0.0000 
     14 CA         31.1890   47.6860   11.7080 C.3       6 GLP5        0.0000 
     15 CA         28.0565   45.0285   12.0960 C.3       3 GLC5        0.0000 
     16 CA         28.8550   44.3450   10.1220 C.3       9 GLL5        0.0000 
     17 CA         27.2580   45.7120   14.0700 C.3       6 GLP5        0.0000 
     18 CA         26.9480   47.3020    6.2915 C.3       3 GLC5        0.0000 
     19 CA         26.3670   48.7270    7.4240 C.3       9 GLL5        0.0000 
     20 CA         27.5290   45.8770    5.1590 C.3       6 GLP5        0.0000 
     21 CA         25.3475   46.7725    7.6640 C.3       3 GLC5        0.0000 
     22 CA         27.4180   49.9470    8.8570 C.3       3 GLC5        0.0000 
     23 CA         28.4690   51.1670   10.2900 C.3       6 GLP5        0.0000 
     24 CA         32.8185   42.4960    6.1665 C.3       3 GLC5        0.0000 
     25 CA         32.7850   42.5370    8.1600 C.3       9 GLL5        0.0000 
     26 CA         32.8520   42.4550    4.1730 C.3       6 GLP5        0.0000 
     27 CA         31.9495   41.2060    9.3810 C.3       3 GLC5        0.0000 
     28 CA         31.1140   39.8750   10.6020 C.3       6 GLP5        0.0000 
     29 CA         29.2575   51.8920    8.5570 C.3       3 GLC5        0.0000 
     30 CA         30.0460   52.6170    6.8240 C.3       9 GLL5        0.0000 
     31 CA         31.3490   54.0555    7.5620 C.3       3 GLC5        0.0000 
     32 CA         32.6520   55.4940    8.3000 C.3       6 GLP5        0.0000 
     33 CA         31.2905   43.3185    6.5490 C.3       3 GLC5        0.0000 
     34 CA         32.1420   43.9230    8.3280 C.3       9 GLL5        0.0000 
     35 CA         30.4390   42.7140    4.7700 C.3       6 GLP5        0.0000 
     36 N          26.5780   45.4325   11.0505 N.am      2 SEC2        0.0000 
     37 N          27.7900   45.2170   10.2870 N.am      8 SEL2        0.0000 
     38 N          25.3660   45.6480   11.8140 N.am      5 SEP2        0.0000 
     39 O          27.6145   42.8110   11.5385 O.2       1 ALC1        0.0000 
     40 O          28.8470   43.1210   10.8300 O.2       7 ALL1        0.0000 
     41 O          26.3820   42.5010   12.2470 O.2       4 ALP1        0.0000 
     42 O          32.3855   51.7990    7.5565 O.2       1 ALC1        0.0000 
     43 O          31.8360   51.0580    6.4700 O.2       7 ALL1        0.0000 
     44 O          32.9350   52.5400    8.6430 O.2       4 ALP1        0.0000 
     45 CA         36.1205   46.5700   12.9425 C.3       3 GLC5        0.0000 
     46 CA         34.5820   45.5240   12.3040 C.3       9 GLL5        0.0000 
     47 CA         32.9470   46.2145   12.6565 C.3       3 GLC5        0.0000 
     48 CA         31.3120   46.9050   13.0090 C.3       6 GLP5        0.0000 
     49 CA         29.4265   50.0045    8.9820 C.3       3 GLC5        0.0000 
     50 CA         30.3840   48.8420    7.6740 C.3       9 GLL5        0.0000 
     51 CA         32.9090   46.9502   11.1788 C.3       3 GLC5        0.0000 
     52 CA         28.0503   46.1334    7.1456 C.3       3 GLC5        0.0000 
     53 CA         29.8850   45.9040    8.5890 C.3       9 GLL5        0.0000 
     54 CA         29.8803   47.0379   10.4201 C.3       3 GLC5        0.0000 
     55 CA         28.8210   46.8210    8.7300 C.3       9 GLL5        0.0000 
     56 CA         28.3710   43.3293    8.8293 C.3       3 GLC5        0.0000 
     57 CA         29.9410   44.6560    9.2670 C.3       9 GLL5        0.0000 
     58 CA         27.3440   42.1580    7.9640 C.3       6 GLP5        0.0000 
     59 CA         30.1165   44.9857   11.2553 C.3       3 GLC5        0.0000 
     60 CA         34.0765   44.6937   13.2498 C.3       3 GLC5        0.0000 
     61 CA         34.3240   45.6870   10.9990 C.3       9 GLL5        0.0000 
     62 CA         33.7000   43.7820   14.8480 C.3       6 GLP5        0.0000 
     63 CA         35.9910   44.5293   11.9648 C.3       3 GLC5        0.0000 
     64 CA         37.5290   43.4530   12.2780 C.3       6 GLP5        0.0000 
     65 CA         27.9383   47.1942    6.4327 C.3       3 GLC5        0.0000 
     66 CA         28.8460   48.1030    7.9860 C.3       9 GLL5        0.0000 
     67 CA         28.4082   49.8393    8.9982 C.3       3 GLC5        0.0000 
     68 CA         27.8490   48.9200    7.4270 C.3       9 GLL5        0.0000 
     69 CA         30.4020   48.0793    9.7690 C.3       3 GLC5        0.0000 
@<TRIPOS>BOND
@<TRIPOS>SUBSTRUCTURE
     1 ALC1       39 GROUP        1 X    ALC  0     ROOT ALC X 1
     2 SEC2       36 GROUP        1 X    SEC  0     **** SEC X 2
     3 GLC5        1 GROUP        1 X    GLC  0     **** GLC X 6
     4 ALP1       41 GROUP        1 Y    ALP  0     ROOT ALP Y 8
     5 SEP2       38 GROUP        1 Y    SEP  0     **** SEP Y 9
     6 GLP5        3 GROUP        1 Y    GLP  0     **** GLP Y 13
     7 ALL1       40 GROUP        1 Z    ALL  0     ROOT ALL Z 15
     8 SEL2       37 GROUP        1 Z    SEL  0     **** SEL Z 16
     9 GLL5        2 GROUP        1 Z    GLL  0     **** GLL Z 20
@<TRIPOS>SET

