#    Name: 4ccu_AWF_1_ligand
#    Modification time : Tue Mar 25 09:11:30 2014

@<TRIPOS>MOLECULE
4ccu_AWF_1_ligand
   55    58     1     0     0
SMALL
NO_CHARGES


@<TRIPOS>ATOM
      1 C13        34.6610   46.9170    8.9240 C.ar      1 AWF1500     0.0000 
      2 C14        34.9340   46.7420   10.3000 C.ar      1 AWF1500     0.0000 
      3 C6         29.8850   45.9040    8.5890 C.ar      1 AWF1500     0.0000 
      4 C16        33.4390   44.7990   10.3460 C.ar      1 AWF1500     0.0000 
      5 C20        33.1040   47.4080    5.0940 C.2       1 AWF1500     0.0000 
      6 C21        33.4890   46.1150    4.7530 C.2       1 AWF1500     0.0000 
      7 C4         27.7900   46.4170    9.6050 C.ar      1 AWF1500     0.0000 
      8 C5         28.8210   46.8210    8.7300 C.ar      1 AWF1500     0.0000 
      9 C10        33.1320   44.9420    8.9410 C.ar      1 AWF1500     0.0000 
     10 C12        33.7680   46.0350    8.2280 C.ar      1 AWF1500     0.0000 
     11 C1         29.9410   44.6560    9.2670 C.ar      1 AWF1500     0.0000 
     12 C15        34.3240   45.6870   10.9990 C.ar      1 AWF1500     0.0000 
     13 C23        28.8460   48.1030    7.9860 C.2       1 AWF1500     0.0000 
     14 C24        27.8490   48.9200    7.4270 C.2       1 AWF1500     0.0000 
     15 C2         28.8550   44.3450   10.1220 C.ar      1 AWF1500     0.0000 
     16 C26        29.6350   50.1390    6.8480 C.2       1 AWF1500     0.0000 
     17 C30        26.3670   48.7270    7.4240 C.3       1 AWF1500     0.0000 
     18 C11        32.7850   42.5370    8.1600 C.3       1 AWF1500     0.0000 
     19 C31        30.0460   52.6170    6.8240 C.3       1 AWF1500     0.0000 
     20 C32        30.2210   51.2610    4.7090 C.3       1 AWF1500     0.0000 
     21 C9         32.1420   43.9230    8.3280 C.3       1 AWF1500     0.0000 
     22 C28        30.4360   51.2650    6.2290 C.3       1 AWF1500     0.0000 
     23 N3         27.7900   45.2170   10.2870 N.ar      1 AWF1500     0.0000 
     24 N19        33.1540   47.5550    6.4170 N.2       1 AWF1500     0.0000 
     25 N22        33.7890   45.4190    5.8530 N.2       1 AWF1500     0.0000 
     26 N25        28.3190   50.0640    6.7910 N.2       1 AWF1500     0.0000 
     27 N18        33.5740   46.3220    6.8380 N.pl3     1 AWF1500     0.0000 
     28 N8         28.8470   43.1210   10.8300 N.pl3     1 AWF1500     0.0000 
     29 O29        31.8360   51.0580    6.4700 O.3       1 AWF1500     0.0000 
     30 O7         30.9610   43.7170    9.1740 O.3       1 AWF1500     0.0000 
     31 F17        34.5820   45.5240   12.3040 F         1 AWF1500     0.0000 
     32 S27        30.3840   48.8420    7.6740 S.3       1 AWF1500     0.0000 
     33 H          35.1032   47.6832    8.4069 H         1 AWF1500     0.0000 
     34 H          35.5696   47.3790   10.7781 H         1 AWF1500     0.0000 
     35 H          30.6760   46.1524    7.9528 H         1 AWF1500     0.0000 
     36 H          32.9993   44.0340   10.8676 H         1 AWF1500     0.0000 
     37 H          32.8446   48.0763    4.4421 H         1 AWF1500     0.0000 
     38 H          33.5244   45.7942    3.8365 H         1 AWF1500     0.0000 
     39 H          26.9803   47.0774    9.7365 H         1 AWF1500     0.0000 
     40 H          31.8420   44.2654    7.3524 H         1 AWF1500     0.0000 
     41 H          29.6482   42.5356   10.7059 H         1 AWF1500     0.0000 
     42 H          28.0408   42.9447   11.3948 H         1 AWF1500     0.0000 
     43 H          26.1039   47.8784    6.9650 H         1 AWF1500     0.0000 
     44 H          25.9960   48.6856    8.3517 H         1 AWF1500     0.0000 
     45 H          25.8963   49.4731    6.9531 H         1 AWF1500     0.0000 
     46 H          33.5849   42.5689    7.5608 H         1 AWF1500     0.0000 
     47 H          33.0890   42.1601    9.0349 H         1 AWF1500     0.0000 
     48 H          32.1471   41.8774    7.7625 H         1 AWF1500     0.0000 
     49 H          30.1993   52.6462    7.8118 H         1 AWF1500     0.0000 
     50 H          30.5743   53.3655    6.4232 H         1 AWF1500     0.0000 
     51 H          29.0800   52.8253    6.6710 H         1 AWF1500     0.0000 
     52 H          30.7326   51.9933    4.2596 H         1 AWF1500     0.0000 
     53 H          30.5161   50.4002    4.2944 H         1 AWF1500     0.0000 
     54 H          29.2582   51.3866    4.4698 H         1 AWF1500     0.0000 
     55 H          32.0546   51.6475    7.2477 H         1 AWF1500     0.0000 
@<TRIPOS>BOND
     1    2    1 ar   
     2   10    1 ar   
     3   33    1 1    
     4   12    2 ar   
     5   34    2 1    
     6    8    3 ar   
     7   11    3 ar   
     8   35    3 1    
     9    9    4 ar   
    10   12    4 ar   
    11   36    4 1    
    12    6    5 1    
    13   24    5 2    
    14   37    5 1    
    15   25    6 2    
    16   38    6 1    
    17    8    7 ar   
    18   23    7 ar   
    19   39    7 1    
    20   13    8 1    
    21   10    9 ar   
    22   21    9 1    
    23   27   10 1    
    24   15   11 ar   
    25   30   11 1    
    26   31   12 1    
    27   14   13 2    
    28   32   13 1    
    29   17   14 1    
    30   26   14 1    
    31   23   15 ar   
    32   28   15 1    
    33   22   16 1    
    34   26   16 2    
    35   32   16 1    
    36   43   17 1    
    37   44   17 1    
    38   45   17 1    
    39   21   18 1    
    40   46   18 1    
    41   47   18 1    
    42   48   18 1    
    43   22   19 1    
    44   49   19 1    
    45   50   19 1    
    46   51   19 1    
    47   22   20 1    
    48   52   20 1    
    49   53   20 1    
    50   54   20 1    
    51   30   21 1    
    52   40   21 1    
    53   29   22 1    
    54   27   24 1    
    55   27   25 1    
    56   41   28 1    
    57   42   28 1    
    58   55   29 1    
@<TRIPOS>SUBSTRUCTURE
     1 AWF1500     1 GROUP   
@<TRIPOS>SET

