#    Name: 2vnm_CM8_1_INTS_M
#    Modification time : Tue Mar 25 02:12:49 2014

@<TRIPOS>MOLECULE
2vnm_CM8_1_INTS_M
   85     0     9     0     0
SMALL
NO_CHARGES


@<TRIPOS>ATOM
      1 CA         27.2995   -5.7735   33.8950 C.3       3 GLC5        0.0000 
      2 CA         27.5940   -3.7460   34.1580 C.3       9 GLL5        0.0000 
      3 CA         27.0050   -7.8010   33.6320 C.3       6 GLP5        0.0000 
      4 CA         25.8165   -4.5845   33.6225 C.3       3 GLC5        0.0000 
      5 CA         24.0390   -5.4230   33.0870 C.3       6 GLP5        0.0000 
      6 CA         29.7260   -5.1520   32.7355 C.3       3 GLC5        0.0000 
      7 CA         29.0930   -3.7890   34.1330 C.3       9 GLL5        0.0000 
      8 CA         30.3590   -6.5150   31.3380 C.3       6 GLP5        0.0000 
      9 N          31.7780   -0.2125   42.7440 N.am      2 SEC2        0.0000 
     10 N          31.5210   -0.3330   41.2100 N.am      8 SEL2        0.0000 
     11 N          32.0350   -0.0920   44.2780 N.am      5 SEP2        0.0000 
     12 N          28.5895   -1.7105   40.6340 N.am      2 SEC2        0.0000 
     13 N          29.9080   -1.6170   39.9730 N.am      8 SEL2        0.0000 
     14 N          27.2710   -1.8040   41.2950 N.am      5 SEP2        0.0000 
     15 CA         33.5355    1.7280   38.1720 C.3       3 GLC5        0.0000 
     16 CA         33.2070   -0.1180   38.7200 C.3       9 GLL5        0.0000 
     17 CA         33.8640    3.5740   37.6240 C.3       6 GLP5        0.0000 
     18 CA         33.5545   -0.3495   36.5145 C.3       3 GLC5        0.0000 
     19 CA         33.9020   -0.5810   34.3090 C.3       6 GLP5        0.0000 
     20 CA         32.0090    2.1055   36.4960 C.3       3 GLC5        0.0000 
     21 CA         30.9570    0.3880   36.6520 C.3       9 GLL5        0.0000 
     22 CA         33.0610    3.8230   36.3400 C.3       6 GLP5        0.0000 
     23 CA         29.1255   -3.0345   38.1820 C.3       3 GLC5        0.0000 
     24 CA         30.7130   -2.0430   37.1350 C.3       9 GLL5        0.0000 
     25 CA         27.5380   -4.0260   39.2290 C.3       6 GLP5        0.0000 
     26 N          32.5545    2.0180   34.2235 N.am      2 SEC2        0.0000 
     27 N          31.0480    2.1890   34.2710 N.am      8 SEL2        0.0000 
     28 N          34.0610    1.8470   34.1760 N.am      5 SEP2        0.0000 
     29 O          27.8225    0.5960   34.0995 O.2       1 ALC1        0.0000 
     30 O          28.9100    1.4440   33.7650 O.2       7 ALL1        0.0000 
     31 O          26.7350   -0.2520   34.4340 O.2       4 ALP1        0.0000 
     32 CA         26.2985    1.0925   32.7565 C.3       3 GLC5        0.0000 
     33 CA         28.0620    1.6300   31.5080 C.3       9 GLL5        0.0000 
     34 CA         24.5350    0.5550   34.0050 C.3       6 GLP5        0.0000 
     35 CA         31.1990    1.9945   31.2475 C.3       3 GLC5        0.0000 
     36 CA         30.2370    0.2220   31.1100 C.3       9 GLL5        0.0000 
     37 CA         32.1610    3.7670   31.3850 C.3       6 GLP5        0.0000 
     38 CA         30.2130   -4.3665   31.0220 C.3       3 GLC5        0.0000 
     39 CA         30.0670   -2.2180   30.7060 C.3       9 GLL5        0.0000 
     40 CA         26.1400    2.0385   33.5930 C.3       3 GLC5        0.0000 
     41 CA         27.7450    3.5220   33.1810 C.3       9 GLL5        0.0000 
     42 O          25.7650    3.8300   32.2510 O.2       1 ALC1        0.0000 
     43 O          27.4050    4.3810   32.0630 O.2       7 ALL1        0.0000 
     44 O          24.1250    3.2790   32.4390 O.2       4 ALP1        0.0000 
     45 O          26.4040    4.0170   31.3750 O.2       1 ALC1        0.0000 
     46 O          25.4030    3.6530   30.6870 O.2       4 ALP1        0.0000 
     47 CA         27.6430    8.4510   34.9055 C.3       3 GLC5        0.0000 
     48 CA         28.4170    6.6630   35.1540 C.3       9 GLL5        0.0000 
     49 CA         26.8690   10.2390   34.6570 C.3       6 GLP5        0.0000 
     50 CA         27.0235    7.4070   36.5780 C.3       3 GLC5        0.0000 
     51 CA         25.6300    8.1510   38.0020 C.3       6 GLP5        0.0000 
     52 CA         27.5700    7.3065   31.2825 C.3       3 GLC5        0.0000 
     53 CA         29.0030    7.7940   32.8750 C.3       9 GLL5        0.0000 
     54 CA         26.1370    6.8190   29.6900 C.3       6 GLP5        0.0000 
     55 CA         29.8670    6.7640   30.3695 C.3       3 GLC5        0.0000 
     56 CA         29.5480    8.9010   30.6400 C.3       9 GLL5        0.0000 
     57 CA         30.1860    4.6270   30.0990 C.3       6 GLP5        0.0000 
     58 CA         29.1925    6.2970   29.4335 C.3       3 GLC5        0.0000 
     59 CA         29.0130    7.9130   29.8910 C.3       9 GLL5        0.0000 
     60 CA         29.3720    4.6810   28.9760 C.3       6 GLP5        0.0000 
     61 CA         26.9450   10.6285   31.2595 C.3       3 GLC5        0.0000 
     62 CA         28.6240    9.8490   30.8620 C.3       9 GLL5        0.0000 
     63 CA         25.2660   11.4080   31.6570 C.3       6 GLP5        0.0000 
     64 CA         27.7465   10.0440   32.7595 C.3       3 GLC5        0.0000 
     65 CA         32.4663   -0.3815   35.7015 C.3       3 GLC5        0.0000 
     66 CA         29.4498    0.5480   38.1475 C.3       3 GLC5        0.0000 
     67 CA         27.8690    1.2780   39.2010 C.3       6 GLP5        0.0000 
     68 CA         32.0061   -0.9510   34.8987 C.3       3 GLC5        0.0000 
     69 CA         30.3550    0.2100   35.3790 C.3       9 GLL5        0.0000 
     70 CA         28.3921   -0.4755   36.3188 C.3       3 GLC5        0.0000 
     71 CA         26.6740    0.3700   37.1490 C.3       6 GLP5        0.0000 
     72 CA         29.2858    3.3228   31.0953 C.3       3 GLC5        0.0000 
     73 CA         28.7090    2.4070   32.6750 C.3       9 GLL5        0.0000 
     74 CA         26.8107   -2.4160   30.5588 C.3       3 GLC5        0.0000 
     75 CA         27.9540   -0.9060   31.0760 C.3       9 GLL5        0.0000 
     76 CA         25.3280   -3.2970   30.1690 C.3       6 GLP5        0.0000 
     77 CA         27.3056    0.7445   29.7561 C.3       3 GLC5        0.0000 
     78 CA         26.4230    1.4630   28.2900 C.3       6 GLP5        0.0000 
     79 CA         29.1597    4.3018   31.8867 C.3       3 GLC5        0.0000 
     80 CA         32.2079    6.5121   32.3866 C.3       3 GLC5        0.0000 
     81 CA         31.3850    8.4430   32.3470 C.3       9 GLL5        0.0000 
     82 CA         33.0680    4.9810   31.5620 C.3       6 GLP5        0.0000 
     83 CA         30.4511    7.7436   28.5656 C.3       3 GLC5        0.0000 
     84 CA         31.3610    6.9360   27.0310 C.3       6 GLP5        0.0000 
     85 CA         27.5446    7.9735   30.1269 C.3       3 GLC5        0.0000 
@<TRIPOS>BOND
@<TRIPOS>SUBSTRUCTURE
     1 ALC1       29 GROUP        1 X    ALC  0     ROOT ALC X 1
     2 SEC2        9 GROUP        1 X    SEC  0     **** SEC X 2
     3 GLC5        1 GROUP        1 X    GLC  0     **** GLC X 6
     4 ALP1       31 GROUP        1 Y    ALP  0     ROOT ALP Y 8
     5 SEP2       11 GROUP        1 Y    SEP  0     **** SEP Y 9
     6 GLP5        3 GROUP        1 Y    GLP  0     **** GLP Y 13
     7 ALL1       30 GROUP        1 Z    ALL  0     ROOT ALL Z 15
     8 SEL2       10 GROUP        1 Z    SEL  0     **** SEL Z 16
     9 GLL5        2 GROUP        1 Z    GLL  0     **** GLL Z 20
@<TRIPOS>SET

