#    Name: 2vnm_CM8_1_ligand
#    Modification time : Tue Mar 25 02:12:49 2014

@<TRIPOS>MOLECULE
2vnm_CM8_1_ligand
   79    82     1     0     0
SMALL
NO_CHARGES


@<TRIPOS>ATOM
      1 C02        27.5940   -3.7460   34.1580 C.3       1 CM82000     0.0000 
      2 C01        29.0930   -3.7890   34.1330 C.3       1 CM82000     0.0000 
      3 C06        33.8450   -2.2450   40.1660 C.3       1 CM82000     0.0000 
      4 C07        32.3550   -2.7130   40.3140 C.3       1 CM82000     0.0000 
      5 S08        31.2970   -1.2030   40.0730 S.o2      1 CM82000     0.0000 
      6 O10        31.5210   -0.3330   41.2100 O.2       1 CM82000     0.0000 
      7 O09        29.9080   -1.6170   39.9730 O.2       1 CM82000     0.0000 
      8 N11        31.7580   -0.4480   38.7880 N.pl3     1 CM82000     0.0000 
      9 C12        33.2070   -0.1180   38.7200 C.3       1 CM82000     0.0000 
     10 C13        31.1040   -0.7520   37.5360 C.ar      1 CM82000     0.0000 
     11 C14        30.9570    0.3880   36.6520 C.ar      1 CM82000     0.0000 
     12 C15        30.3550    0.2100   35.3790 C.ar      1 CM82000     0.0000 
     13 C16        29.9020   -1.0700   34.9410 C.ar      1 CM82000     0.0000 
     14 C17        30.0920   -2.2120   35.8170 C.ar      1 CM82000     0.0000 
     15 C18        30.7130   -2.0430   37.1350 C.ar      1 CM82000     0.0000 
     16 C19        30.1590    1.4160   34.4960 C.2       1 CM82000     0.0000 
     17 O20        31.0480    2.1890   34.2710 O.2       1 CM82000     0.0000 
     18 N21        28.9100    1.4440   33.7650 N.am      1 CM82000     0.0000 
     19 C22        28.7090    2.4070   32.6750 C.3       1 CM82000     0.0000 
     20 C23        28.0620    1.6300   31.5080 C.3       1 CM82000     0.0000 
     21 C24        28.7830    0.2860   31.2290 C.ar      1 CM82000     0.0000 
     22 C29        30.2370    0.2220   31.1100 C.ar      1 CM82000     0.0000 
     23 C28        30.8960   -1.0350   30.8630 C.ar      1 CM82000     0.0000 
     24 C27        30.0670   -2.2180   30.7060 C.ar      1 CM82000     0.0000 
     25 C26        28.6330   -2.1640   30.8210 C.ar      1 CM82000     0.0000 
     26 C25        27.9540   -0.9060   31.0760 C.ar      1 CM82000     0.0000 
     27 C30        27.7450    3.5220   33.1810 C.3       1 CM82000     0.0000 
     28 O31        27.4050    4.3810   32.0630 O.3       1 CM82000     0.0000 
     29 C32        28.5220    4.4310   34.1680 C.3       1 CM82000     0.0000 
     30 N33        27.6380    5.5780   34.5200 N.4       1 CM82000     0.0000 
     31 C34        28.4170    6.6630   35.1540 C.3       1 CM82000     0.0000 
     32 C35        29.4250    7.2870   34.1560 C.ar      1 CM82000     0.0000 
     33 C36        30.8230    7.3540   34.5250 C.ar      1 CM82000     0.0000 
     34 C37        31.7980    7.9330   33.6260 C.ar      1 CM82000     0.0000 
     35 C38        31.3850    8.4430   32.3470 C.ar      1 CM82000     0.0000 
     36 C39        29.9870    8.3600   31.9800 C.ar      1 CM82000     0.0000 
     37 C31        34.0590   -1.4330   38.8260 C.3       1 CM82000     0.0000 
     38 C40        29.0030    7.7940   32.8750 C.ar      1 CM82000     0.0000 
     39 C41        29.5480    8.9010   30.6400 C.3       1 CM82000     0.0000 
     40 F44        30.5910    9.4780   29.9790 F         1 CM82000     0.0000 
     41 F43        29.0130    7.9130   29.8910 F         1 CM82000     0.0000 
     42 N03        29.6870   -3.5480   35.4140 N.pl3     1 CM82000     0.0000 
     43 F42        28.6240    9.8490   30.8620 F         1 CM82000     0.0000 
     44 H          29.4479   -3.0434   33.3866 H         1 CM82000     0.0000 
     45 H          29.4039   -4.7805   33.7338 H         1 CM82000     0.0000 
     46 H          34.4880   -3.1127   40.1494 H         1 CM82000     0.0000 
     47 H          34.0996   -1.6072   40.9997 H         1 CM82000     0.0000 
     48 H          32.1048   -2.9997   41.2802 H         1 CM82000     0.0000 
     49 H          32.0346   -3.3266   39.5400 H         1 CM82000     0.0000 
     50 H          33.4972    0.5297   39.5405 H         1 CM82000     0.0000 
     51 H          33.4533    0.3591   37.7773 H         1 CM82000     0.0000 
     52 H          31.2843    1.2946   36.9520 H         1 CM82000     0.0000 
     53 H          29.4606   -1.1902   34.0494 H         1 CM82000     0.0000 
     54 H          30.8446   -2.8484   37.7188 H         1 CM82000     0.0000 
     55 H          28.1679    0.8021   33.9988 H         1 CM82000     0.0000 
     56 H          29.6115    2.8337   32.3613 H         1 CM82000     0.0000 
     57 H          28.0989    2.2431   30.6072 H         1 CM82000     0.0000 
     58 H          27.0186    1.4264   31.7500 H         1 CM82000     0.0000 
     59 H          30.7784    1.0721   31.2031 H         1 CM82000     0.0000 
     60 H          31.8864   -1.0971   30.8009 H         1 CM82000     0.0000 
     61 H          30.5216   -3.1139   30.5078 H         1 CM82000     0.0000 
     62 H          28.0845   -3.0134   30.7234 H         1 CM82000     0.0000 
     63 H          26.9701   -0.8549   31.1439 H         1 CM82000     0.0000 
     64 H          26.9255    3.1112   33.6497 H         1 CM82000     0.0000 
     65 H          29.4191    4.7745   33.6795 H         1 CM82000     0.0000 
     66 H          28.7654    3.8520   35.0438 H         1 CM82000     0.0000 
     67 H          28.9823    6.2846   36.0106 H         1 CM82000     0.0000 
     68 H          27.7557    7.4599   35.5065 H         1 CM82000     0.0000 
     69 H          31.1225    6.9910   35.4239 H         1 CM82000     0.0000 
     70 H          32.7703    7.9770   33.9018 H         1 CM82000     0.0000 
     71 H          32.0501    8.8500   31.7167 H         1 CM82000     0.0000 
     72 H          33.8053   -2.0850   37.9847 H         1 CM82000     0.0000 
     73 H          35.1188   -1.1724   38.7474 H         1 CM82000     0.0000 
     74 H          28.0354    7.7555   32.6047 H         1 CM82000     0.0000 
     75 H          29.8320   -4.3225   36.0614 H         1 CM82000     0.0000 
     76 H          27.2530   -2.8566   34.4625 H         1 CM82000     0.0000 
     77 H          27.2024   -3.9160   33.2537 H         1 CM82000     0.0000 
     78 H          27.2130   -4.4334   34.7763 H         1 CM82000     0.0000 
     79 H          26.4220    4.2549   31.9295 H         1 CM82000     0.0000 
@<TRIPOS>BOND
     1    2    1 1    
     2   76    1 1    
     3   77    1 1    
     4   78    1 1    
     5   42    2 1    
     6   44    2 1    
     7   45    2 1    
     8    4    3 1    
     9   37    3 1    
    10   46    3 1    
    11   47    3 1    
    12    5    4 1    
    13   48    4 1    
    14   49    4 1    
    15    6    5 2    
    16    7    5 2    
    17    8    5 1    
    18    9    8 1    
    19   10    8 1    
    20   37    9 1    
    21   50    9 1    
    22   51    9 1    
    23   11   10 ar   
    24   15   10 ar   
    25   12   11 ar   
    26   52   11 1    
    27   13   12 ar   
    28   16   12 1    
    29   14   13 ar   
    30   53   13 1    
    31   15   14 ar   
    32   42   14 1    
    33   54   15 1    
    34   17   16 2    
    35   18   16 am   
    36   19   18 1    
    37   55   18 1    
    38   20   19 1    
    39   27   19 1    
    40   56   19 1    
    41   21   20 1    
    42   57   20 1    
    43   58   20 1    
    44   22   21 ar   
    45   26   21 ar   
    46   23   22 ar   
    47   59   22 1    
    48   24   23 ar   
    49   60   23 1    
    50   25   24 ar   
    51   61   24 1    
    52   26   25 ar   
    53   62   25 1    
    54   63   26 1    
    55   28   27 1    
    56   29   27 1    
    57   64   27 1    
    58   79   28 1    
    59   30   29 1    
    60   65   29 1    
    61   66   29 1    
    62   31   30 1    
    63   32   31 1    
    64   67   31 1    
    65   68   31 1    
    66   33   32 ar   
    67   38   32 ar   
    68   34   33 ar   
    69   69   33 1    
    70   35   34 ar   
    71   70   34 1    
    72   36   35 ar   
    73   71   35 1    
    74   38   36 ar   
    75   39   36 1    
    76   72   37 1    
    77   73   37 1    
    78   74   38 1    
    79   40   39 1    
    80   41   39 1    
    81   43   39 1    
    82   75   42 1    
@<TRIPOS>SUBSTRUCTURE
     1 CM82000     1 GROUP   
@<TRIPOS>SET

