#    Name: 1jg0_DDT_2_INTS_M
#    Modification time : Tue Mar 25 08:54:10 2014

@<TRIPOS>MOLECULE
1jg0_DDT_2_INTS_M
   69     0     3     0     0
SMALL
NO_CHARGES


@<TRIPOS>ATOM
      1 CA         14.3800   46.1820  -11.0755 C.3       1 GLC5        0.0000 
      2 CA         13.1240   45.7410   -9.6610 C.3       3 GLL5        0.0000 
      3 CA         15.6360   46.6230  -12.4900 C.3       2 GLP5        0.0000 
      4 CA         12.2380   46.7160   -7.8605 C.3       1 GLC5        0.0000 
      5 CA         11.3520   47.6910   -6.0600 C.3       2 GLP5        0.0000 
      6 CA         10.9160   42.1350  -10.2325 C.3       1 GLC5        0.0000 
      7 CA         11.3780   43.9150  -10.0630 C.3       3 GLL5        0.0000 
      8 CA         10.4540   40.3550  -10.4020 C.3       2 GLP5        0.0000 
      9 CA          7.8275   44.7175  -10.5195 C.3       1 GLC5        0.0000 
     10 CA          8.5670   45.6160  -12.3900 C.3       3 GLL5        0.0000 
     11 CA          7.0880   43.8190   -8.6490 C.3       2 GLP5        0.0000 
     12 CA          7.5780   49.5000  -13.2125 C.3       1 GLC5        0.0000 
     13 CA          8.4830   48.0000  -13.0630 C.3       3 GLL5        0.0000 
     14 CA          6.6730   51.0000  -13.3620 C.3       2 GLP5        0.0000 
     15 CA          5.4960   48.3735   -8.3530 C.3       1 GLC5        0.0000 
     16 CA          6.5800   49.5220   -9.5450 C.3       3 GLL5        0.0000 
     17 CA          4.4120   47.2250   -7.1610 C.3       2 GLP5        0.0000 
     18 CA         10.4925   55.0935  -10.3140 C.3       1 GLC5        0.0000 
     19 CA          8.9430   54.4450   -9.9600 C.3       3 GLL5        0.0000 
     20 CA         12.0420   55.7420  -10.6680 C.3       2 GLP5        0.0000 
     21 CA         11.1985   55.1585   -9.2690 C.3       1 GLC5        0.0000 
     22 CA         10.3550   54.5750   -7.8700 C.3       3 GLL5        0.0000 
     23 CA         12.4505   54.8905   -7.4490 C.3       1 GLC5        0.0000 
     24 CA         14.5460   55.2060   -7.0280 C.3       2 GLP5        0.0000 
     25 CA          9.5140   53.2275   -6.3575 C.3       1 GLC5        0.0000 
     26 CA          8.6730   51.8800   -4.8450 C.3       2 GLP5        0.0000 
     27 CA         13.8990   46.6183  -12.6973 C.3       1 GLC5        0.0000 
     28 CA         12.1960   46.7170  -12.3120 C.3       3 GLL5        0.0000 
     29 CA         13.8882   41.8613  -15.4947 C.3       1 GLC5        0.0000 
     30 CA         11.9190   42.5930  -15.3100 C.3       3 GLL5        0.0000 
     31 CA         15.7900   41.3860  -16.3340 C.3       2 GLP5        0.0000 
     32 CA         13.0577   41.4025  -12.4438 C.3       1 GLC5        0.0000 
     33 CA         12.0540   42.0800  -14.0010 C.3       3 GLL5        0.0000 
     34 CA         14.0390   40.2920  -11.4220 C.3       2 GLP5        0.0000 
     35 CA         14.0983   43.1860  -13.4758 C.3       1 GLC5        0.0000 
     36 CA         12.0990   42.9460  -12.9300 C.3       3 GLL5        0.0000 
     37 CA         16.1200   43.8590  -13.4860 C.3       2 GLP5        0.0000 
     38 CA         11.2653   41.4340  -11.9337 C.3       1 GLC5        0.0000 
     39 CA         13.8163   44.7937  -14.2109 C.3       1 GLC5        0.0000 
     40 CA         12.0350   44.3680  -13.0880 C.3       3 GLL5        0.0000 
     41 CA         15.6680   45.0140  -14.3600 C.3       2 GLP5        0.0000 
     42 CA          6.5003   45.7660  -13.0613 C.3       1 GLC5        0.0000 
     43 CA          8.2620   45.2460  -13.7050 C.3       3 GLL5        0.0000 
     44 CA          4.5860   46.1010  -13.0750 C.3       2 GLP5        0.0000 
     45 CA          6.5810   46.7987  -12.8280 C.3       1 GLC5        0.0000 
     46 CA          8.6690   46.9930  -12.0990 C.3       3 GLL5        0.0000 
     47 CA          6.3014   46.4575  -13.9781 C.3       1 GLC5        0.0000 
     48 CA          8.1780   47.6030  -14.3680 C.3       3 GLL5        0.0000 
     49 CA          7.1829   48.4455  -15.2816 C.3       1 GLC5        0.0000 
     50 CA          8.0650   46.2340  -14.6920 C.3       3 GLL5        0.0000 
     51 CA          6.3490   50.0770  -15.6820 C.3       2 GLP5        0.0000 
     52 CA          8.3585   51.5568   -7.3360 C.3       1 GLC5        0.0000 
     53 CA          8.6230   51.4660   -9.1560 C.3       3 GLL5        0.0000 
     54 CA          7.5570   51.1850   -5.6670 C.3       2 GLP5        0.0000 
     55 CA         12.8965   52.0168   -8.2350 C.3       1 GLC5        0.0000 
     56 CA         11.0160   51.9570   -8.7910 C.3       3 GLL5        0.0000 
     57 CA         14.6210   52.7600   -7.5860 C.3       2 GLP5        0.0000 
     58 CA         10.4988   49.3747   -7.4645 C.3       1 GLC5        0.0000 
     59 CA         11.3280   50.5900   -8.9770 C.3       3 GLL5        0.0000 
     60 CA         10.1690   48.6190   -5.8260 C.3       2 GLP5        0.0000 
     61 CA          6.9570   50.1640  -11.4402 C.3       1 GLC5        0.0000 
     62 CA          7.9020   49.1340   -9.4920 C.3       3 GLL5        0.0000 
     63 CA          7.6003   49.2091   -7.6704 C.3       1 GLC5        0.0000 
     64 CA          7.6950   48.8530   -5.8690 C.3       2 GLP5        0.0000 
     65 CA          6.7082   51.1813  -11.3332 C.3       1 GLC5        0.0000 
     66 CA          6.2480   50.8900   -9.4020 C.3       3 GLL5        0.0000 
     67 CA          5.1493   52.3688   -9.8057 C.3       1 GLC5        0.0000 
     68 CA          3.5550   53.3750  -10.3070 C.3       2 GLP5        0.0000 
     69 CA          7.1502   51.2738   -7.4857 C.3       1 GLC5        0.0000 
@<TRIPOS>BOND
@<TRIPOS>SUBSTRUCTURE
     1 GLC5        1 GROUP        1 X    GLC  0     ROOT GLC X 6
     2 GLP5        3 GROUP        1 Y    GLP  0     ROOT GLP Y 13
     3 GLL5        2 GROUP        1 Z    GLL  0     ROOT GLL Z 20
@<TRIPOS>SET

