#    Name: 1jg0_DDT_2_ligand
#    Modification time : Tue Mar 25 08:54:10 2014

@<TRIPOS>MOLECULE
1jg0_DDT_2_ligand
   78    82     1     0     0
SMALL
NO_CHARGES


@<TRIPOS>ATOM
      1 C1         12.1980   45.3490  -12.0080 C.ar      1 DDT306      0.0000 
      2 C2         12.1960   46.7170  -12.3120 C.ar      1 DDT306      0.0000 
      3 C3         12.1270   47.1940  -13.6490 C.ar      1 DDT306      0.0000 
      4 C4         11.9800   46.3000  -14.6780 C.ar      1 DDT306      0.0000 
      5 C4A        11.9170   44.8870  -14.4250 C.ar      1 DDT306      0.0000 
      6 C5         11.8400   43.9640  -15.5200 C.ar      1 DDT306      0.0000 
      7 C6         11.9190   42.5930  -15.3100 C.ar      1 DDT306      0.0000 
      8 C7         12.0540   42.0800  -14.0010 C.ar      1 DDT306      0.0000 
      9 C8         12.0990   42.9460  -12.9300 C.ar      1 DDT306      0.0000 
     10 C8A        12.0350   44.3680  -13.0880 C.ar      1 DDT306      0.0000 
     11 C9         13.1240   45.7410   -9.6610 C.3       1 DDT306      0.0000 
     12 C10        11.3780   43.9150  -10.0630 C.3       1 DDT306      0.0000 
     13 N1         12.2220   45.0150  -10.6130 N.3       1 DDT306      0.0000 
     14 C11         8.6860   44.8120  -16.7180 C.3       1 DDT306      0.0000 
     15 C12         8.1450   44.0880  -17.9820 C.2       1 DDT306      0.0000 
     16 C13         7.6460   45.8160  -16.0970 C.3       1 DDT306      0.0000 
     17 C14         8.0650   46.2340  -14.6920 C.ar      1 DDT306      0.0000 
     18 C15         8.2620   45.2460  -13.7050 C.ar      1 DDT306      0.0000 
     19 C16         8.5670   45.6160  -12.3900 C.ar      1 DDT306      0.0000 
     20 C17         8.6690   46.9930  -12.0990 C.ar      1 DDT306      0.0000 
     21 C18         8.4830   48.0000  -13.0630 C.ar      1 DDT306      0.0000 
     22 C19         8.1780   47.6030  -14.3680 C.ar      1 DDT306      0.0000 
     23 S          11.4730   44.5980  -17.1250 S.o2      1 DDT306      0.0000 
     24 O1         11.2670   43.3940  -17.9880 O.2       1 DDT306      0.0000 
     25 O2         12.5580   45.5440  -17.5160 O.2       1 DDT306      0.0000 
     26 N          10.0340   45.4760  -16.9210 N.pl3     1 DDT306      0.0000 
     27 OC1         7.9400   44.7890  -18.9960 O.co2     1 DDT306      0.0000 
     28 OC2         7.9650   42.8490  -17.9410 O.co2     1 DDT306      0.0000 
     29 O           9.2130   47.3710  -10.8920 O.3       1 DDT306      0.0000 
     30 S'          8.3090   47.4430   -9.5600 S.o2      1 DDT306      0.0000 
     31 O1'         9.1200   47.0780   -8.3820 O.2       1 DDT306      0.0000 
     32 O2'         7.0540   46.7170   -9.7430 O.2       1 DDT306      0.0000 
     33 C1'         9.6970   52.3910   -8.8540 C.ar      1 DDT306      0.0000 
     34 C2'        11.0160   51.9570   -8.7910 C.ar      1 DDT306      0.0000 
     35 C3'        11.3280   50.5900   -8.9770 C.ar      1 DDT306      0.0000 
     36 C4'        10.3290   49.6710   -9.2290 C.ar      1 DDT306      0.0000 
     37 C4X         8.9600   50.0830   -9.3050 C.ar      1 DDT306      0.0000 
     38 C5'         7.9020   49.1340   -9.4920 C.ar      1 DDT306      0.0000 
     39 C6'         6.5800   49.5220   -9.5450 C.ar      1 DDT306      0.0000 
     40 C7'         6.2480   50.8900   -9.4020 C.ar      1 DDT306      0.0000 
     41 C8'         7.2390   51.8350   -9.2070 C.ar      1 DDT306      0.0000 
     42 C8X         8.6230   51.4660   -9.1560 C.ar      1 DDT306      0.0000 
     43 C9'         8.9430   54.4450   -9.9600 C.3       1 DDT306      0.0000 
     44 CA'        10.3550   54.5750   -7.8700 C.3       1 DDT306      0.0000 
     45 N1'         9.4200   53.7580   -8.7050 N.4       1 DDT306      0.0000 
     46 H          12.2462   47.4101  -11.5428 H         1 DDT306      0.0000 
     47 H          12.1887   48.2011  -13.8187 H         1 DDT306      0.0000 
     48 H          11.9111   46.6171  -15.6563 H         1 DDT306      0.0000 
     49 H          11.8801   41.9416  -16.1027 H         1 DDT306      0.0000 
     50 H          12.1169   41.0665  -13.8645 H         1 DDT306      0.0000 
     51 H          12.1825   42.5751  -11.9607 H         1 DDT306      0.0000 
     52 H           8.8277   44.0168  -15.9352 H         1 DDT306      0.0000 
     53 H           6.6796   45.3243  -16.0662 H         1 DDT306      0.0000 
     54 H           7.5900   46.6858  -16.7427 H         1 DDT306      0.0000 
     55 H           8.1806   44.2558  -13.9560 H         1 DDT306      0.0000 
     56 H           8.7102   44.9248  -11.6699 H         1 DDT306      0.0000 
     57 H           8.5677   48.9744  -12.8170 H         1 DDT306      0.0000 
     58 H           8.0340   48.3081  -15.1008 H         1 DDT306      0.0000 
     59 H          10.1557   46.4508  -16.9467 H         1 DDT306      0.0000 
     60 H          11.7755   52.6237   -8.6091 H         1 DDT306      0.0000 
     61 H          12.3123   50.2929   -8.9212 H         1 DDT306      0.0000 
     62 H          10.5473   48.6758   -9.3667 H         1 DDT306      0.0000 
     63 H           5.8323   48.8380   -9.6861 H         1 DDT306      0.0000 
     64 H           5.2590   51.1694   -9.4454 H         1 DDT306      0.0000 
     65 H           6.9988   52.8328   -9.0935 H         1 DDT306      0.0000 
     66 H           8.4071   53.7814   -8.0348 H         1 DDT306      0.0000 
     67 H          14.0867   45.6416   -9.9125 H         1 DDT306      0.0000 
     68 H          12.9270   46.7211   -9.6371 H         1 DDT306      0.0000 
     69 H          13.0287   45.3999   -8.7258 H         1 DDT306      0.0000 
     70 H          11.5938   43.0346  -10.4854 H         1 DDT306      0.0000 
     71 H          11.5058   43.8063   -9.0772 H         1 DDT306      0.0000 
     72 H          10.4040   44.0824  -10.2156 H         1 DDT306      0.0000 
     73 H           9.6190   54.3875  -10.6947 H         1 DDT306      0.0000 
     74 H           8.0976   54.0391  -10.3072 H         1 DDT306      0.0000 
     75 H           8.7601   55.4159   -9.8053 H         1 DDT306      0.0000 
     76 H          11.2859   54.5631   -8.2352 H         1 DDT306      0.0000 
     77 H          10.0707   55.5326   -7.8231 H         1 DDT306      0.0000 
     78 H          10.4046   54.2376   -6.9299 H         1 DDT306      0.0000 
@<TRIPOS>BOND
     1    2    1 ar   
     2   10    1 ar   
     3   13    1 1    
     4    3    2 ar   
     5   46    2 1    
     6    4    3 ar   
     7   47    3 1    
     8    5    4 ar   
     9   48    4 1    
    10    6    5 ar   
    11   10    5 ar   
    12    7    6 ar   
    13   23    6 1    
    14    8    7 ar   
    15   49    7 1    
    16    9    8 ar   
    17   50    8 1    
    18   10    9 ar   
    19   51    9 1    
    20   13   11 1    
    21   67   11 1    
    22   68   11 1    
    23   69   11 1    
    24   13   12 1    
    25   70   12 1    
    26   71   12 1    
    27   72   12 1    
    28   15   14 1    
    29   16   14 1    
    30   26   14 1    
    31   52   14 1    
    32   27   15 ar   
    33   28   15 ar   
    34   17   16 1    
    35   53   16 1    
    36   54   16 1    
    37   18   17 ar   
    38   22   17 ar   
    39   19   18 ar   
    40   55   18 1    
    41   20   19 ar   
    42   56   19 1    
    43   21   20 ar   
    44   29   20 1    
    45   22   21 ar   
    46   57   21 1    
    47   58   22 1    
    48   24   23 2    
    49   25   23 2    
    50   26   23 1    
    51   59   26 1    
    52   30   29 1    
    53   31   30 2    
    54   32   30 2    
    55   38   30 1    
    56   34   33 ar   
    57   42   33 ar   
    58   45   33 1    
    59   35   34 ar   
    60   60   34 1    
    61   36   35 ar   
    62   61   35 1    
    63   37   36 ar   
    64   62   36 1    
    65   38   37 ar   
    66   42   37 ar   
    67   39   38 ar   
    68   40   39 ar   
    69   63   39 1    
    70   41   40 ar   
    71   64   40 1    
    72   42   41 ar   
    73   65   41 1    
    74   45   43 1    
    75   73   43 1    
    76   74   43 1    
    77   75   43 1    
    78   45   44 1    
    79   76   44 1    
    80   77   44 1    
    81   78   44 1    
    82   66   45 1    
@<TRIPOS>SUBSTRUCTURE
     1 DDT306      1 GROUP   
@<TRIPOS>SET

