#    Name: 2q1l_882_4_INTS_M
#    Modification time : Mon Mar 24 20:25:33 2014

@<TRIPOS>MOLECULE
2q1l_882_4_INTS_M
  104     0    12     0     0
SMALL
NO_CHARGES


@<TRIPOS>ATOM
      1 CA          1.0710   22.1710   20.1175 C.3       4 GLC5        0.0000 
      2 CA          2.6030   23.4940   20.7180 C.3      12 GLL5        0.0000 
      3 CA         -0.4610   20.8480   19.5170 C.3       8 GLP5        0.0000 
      4 CA          2.5560   20.3150   21.8770 C.3       4 GLC5        0.0000 
      5 CA          3.9710   21.4440   20.9530 C.3      12 GLL5        0.0000 
      6 CA          1.1410   19.1860   22.8010 C.3       8 GLP5        0.0000 
      7 CA          4.9860   20.7515   22.6860 C.3       4 GLC5        0.0000 
      8 CA          6.0010   20.0590   24.4190 C.3       8 GLP5        0.0000 
      9 CA         -0.8155   24.4330   24.1925 C.3       4 GLC5        0.0000 
     10 CA         -0.9370   24.7920   22.0760 C.3      12 GLL5        0.0000 
     11 CA         -0.6940   24.0740   26.3090 C.3       8 GLP5        0.0000 
     12 CA         -2.6675   25.6500   22.4015 C.3       4 GLC5        0.0000 
     13 CA         -4.3980   26.5080   22.7270 C.3       8 GLP5        0.0000 
     14 CA         -1.0120   23.8200   20.0940 C.3       4 GLC5        0.0000 
     15 CA         -1.0870   22.8480   18.1120 C.3       8 GLP5        0.0000 
     16 CA         -4.5160   26.6705   17.6535 C.3       4 GLC5        0.0000 
     17 CA         -4.7730   27.9070   19.4230 C.3      12 GLL5        0.0000 
     18 CA         -4.2590   25.4340   15.8840 C.3       8 GLP5        0.0000 
     19 CA         -8.1475   28.1940   19.7225 C.3       4 GLC5        0.0000 
     20 CA         -5.9880   28.4820   19.8070 C.3      12 GLL5        0.0000 
     21 CA        -10.3070   27.9060   19.6380 C.3       8 GLP5        0.0000 
     22 CA          3.7895   21.5745   15.1260 C.3       4 GLC5        0.0000 
     23 CA          3.3500   23.4190   16.1160 C.3      12 GLL5        0.0000 
     24 CA          4.2290   19.7300   14.1360 C.3       8 GLP5        0.0000 
     25 CA         -2.2035   30.1665   21.4740 C.3       4 GLC5        0.0000 
     26 CA         -3.6270   29.8470   20.2540 C.3      12 GLL5        0.0000 
     27 CA         -0.7800   30.4860   22.6940 C.3       8 GLP5        0.0000 
     28 NZ          3.2675   17.9110   16.5105 N.4       3 LYC4        0.0000 
     29 NZ          4.5090   18.4200   17.4600 N.4      11 LYL4        0.0000 
     30 NZ          2.0260   17.4020   15.5610 N.4       7 LYP4        0.0000 
     31 NZ          4.2560   17.1490   18.3135 N.4       3 LYC4        0.0000 
     32 NZ          4.0030   15.8780   19.1670 N.4       7 LYP4        0.0000 
     33 N           4.4960   18.4665   16.1375 N.am      2 SEC2        0.0000 
     34 N           4.5090   18.4200   17.4600 N.am     10 SEL2        0.0000 
     35 N           4.4830   18.5130   14.8150 N.am      6 SEP2        0.0000 
     36 NZ          2.3140   18.4550   16.4255 N.4       3 LYC4        0.0000 
     37 NZ          2.6020   19.5080   17.2900 N.4      11 LYL4        0.0000 
     38 N           2.3140   18.4550   16.4255 N.am      2 SEC2        0.0000 
     39 N           2.6020   19.5080   17.2900 N.am     10 SEL2        0.0000 
     40 N           2.0260   17.4020   15.5610 N.am      6 SEP2        0.0000 
     41 N           3.5425   19.0105   16.0525 N.am      2 SEC2        0.0000 
     42 CA          2.4375   19.3570   21.0980 C.3       4 GLC5        0.0000 
     43 CA          3.7340   19.5280   19.3950 C.3      12 GLL5        0.0000 
     44 CA          1.6365   20.1880   19.4560 C.3       4 GLC5        0.0000 
     45 N           5.9855   21.1395   17.7290 N.am      2 SEC2        0.0000 
     46 N           5.3540   21.3150   19.0380 N.am     10 SEL2        0.0000 
     47 N           6.6170   20.9640   16.4200 N.am      6 SEP2        0.0000 
     48 N           6.1280   22.2070   18.1075 N.am      2 SEC2        0.0000 
     49 N           6.9020   23.0990   17.1770 N.am      6 SEP2        0.0000 
     50 O           6.3040   21.0485   19.9285 O.2       1 ALC1        0.0000 
     51 O           5.3540   21.3150   19.0380 O.2       9 ALL1        0.0000 
     52 O           7.2540   20.7820   20.8190 O.2       5 ALP1        0.0000 
     53 N           3.4455   22.6640   23.3950 N.am      2 SEC2        0.0000 
     54 N           4.3650   23.3570   22.3420 N.am     10 SEL2        0.0000 
     55 N           2.5260   21.9710   24.4480 N.am      6 SEP2        0.0000 
     56 N           5.0945   22.9620   23.4785 N.am      2 SEC2        0.0000 
     57 N           5.8240   22.5670   24.6150 N.am      6 SEP2        0.0000 
     58 O           4.3175   24.6050   22.9265 O.2       1 ALC1        0.0000 
     59 O           4.3650   23.3570   22.3420 O.2       9 ALL1        0.0000 
     60 O           4.2700   25.8530   23.5110 O.2       5 ALP1        0.0000 
     61 CA          6.2745   22.7295   14.1255 C.3       4 GLC5        0.0000 
     62 CA          4.8490   23.7770   14.3580 C.3      12 GLL5        0.0000 
     63 CA          7.7000   21.6820   13.8930 C.3       8 GLP5        0.0000 
     64 CA          4.5390   21.7535   14.2470 C.3       4 GLC5        0.0000 
     65 CA          4.7375   26.4150   16.6995 C.3       4 GLC5        0.0000 
     66 CA          2.8870   26.1770   16.3050 C.3      12 GLL5        0.0000 
     67 CA          6.5880   26.6530   17.0940 C.3       8 GLP5        0.0000 
     68 CA         -0.4625   28.8365   22.4410 C.3       4 GLC5        0.0000 
     69 CA         -0.1450   27.1870   22.1880 C.3      12 GLL5        0.0000 
     70 CA         -0.6375   27.1345   24.0300 C.3       4 GLC5        0.0000 
     71 CA         -1.1300   27.0820   25.8720 C.3       8 GLP5        0.0000 
     72 CA         -2.2715   26.8475   22.4575 C.3       4 GLC5        0.0000 
     73 CA         -2.1620   27.2130   11.1525 C.3       4 GLC5        0.0000 
     74 CA         -1.6480   27.6810   12.9030 C.3      12 GLL5        0.0000 
     75 CA         -2.6760   26.7450    9.4020 C.3       8 GLP5        0.0000 
     76 N          -3.7235   25.7085   20.8835 N.am      2 SEC2        0.0000 
     77 N          -2.7500   25.9670   19.9310 N.am     10 SEL2        0.0000 
     78 N          -4.6970   25.4500   21.8360 N.am      6 SEP2        0.0000 
     79 CA          0.6368   23.7282   17.6130 C.3       4 GLC5        0.0000 
     80 CA          2.2460   25.2930   17.1690 C.3      12 GLL5        0.0000 
     81 CA         -2.6963   26.0422   15.0700 C.3       4 GLC5        0.0000 
     82 CA         -1.0040   25.9790   14.3840 C.3      12 GLL5        0.0000 
     83 CA         -0.2805   24.0610   14.3840 C.3       4 GLC5        0.0000 
     84 CA          0.2360   22.3430   13.7520 C.3       8 GLP5        0.0000 
     85 CA         -4.1492   27.7778   21.3111 C.3       4 GLC5        0.0000 
     86 CA         -3.5750   28.5890   19.6500 C.3      12 GLL5        0.0000 
     87 CA          5.9290   19.5505   19.5195 C.3       4 GLC5        0.0000 
     88 CA          4.0500   21.0080   19.4970 C.3      12 GLL5        0.0000 
     89 CA          7.9660   18.8330   19.5930 C.3       8 GLP5        0.0000 
     90 CA          1.8454   23.1626   14.8379 C.3       4 GLC5        0.0000 
     91 CA          2.4750   23.9240   17.0590 C.3      12 GLL5        0.0000 
     92 CA          5.4773   25.5155   15.9625 C.3       4 GLC5        0.0000 
     93 CA          3.4315   23.8965   13.4520 C.3       4 GLC5        0.0000 
     94 CA          2.6300   23.8050   11.8700 C.3       8 GLP5        0.0000 
     95 CA         -0.8097   24.4457   17.1352 C.3       4 GLC5        0.0000 
     96 CA         -0.4750   26.5080   16.6690 C.3      12 GLL5        0.0000 
     97 CA         -2.3958   25.7388   16.0212 C.3       4 GLC5        0.0000 
     98 CA         -0.5900   25.5790   15.6480 C.3      12 GLL5        0.0000 
     99 CA         -2.5855   26.7505   15.8283 C.3       4 GLC5        0.0000 
    100 CA         -0.7040   27.8630   16.4080 C.3      12 GLL5        0.0000 
    101 CA         -5.5514   28.4115   21.8643 C.3       4 GLC5        0.0000 
    102 CA         -5.6760   27.0590   23.3570 C.3       8 GLP5        0.0000 
    103 CA         -0.2745   24.3645   18.4401 C.3       4 GLC5        0.0000 
    104 CA          0.0060   26.1290   18.0250 C.3      12 GLL5        0.0000 
@<TRIPOS>BOND
@<TRIPOS>SUBSTRUCTURE
     1 ALC1       50 GROUP        1 X    ALC  0     ROOT ALC X 1
     2 SEC2       33 GROUP        1 X    SEC  0     **** SEC X 2
     3 LYC4       28 GROUP        1 X    LYC  0     **** LYC X 4
     4 GLC5        1 GROUP        1 X    GLC  0     **** GLC X 6
     5 ALP1       52 GROUP        1 Y    ALP  0     ROOT ALP Y 8
     6 SEP2       35 GROUP        1 Y    SEP  0     **** SEP Y 9
     7 LYP4       30 GROUP        1 Y    LYP  0     **** LYP Y 11
     8 GLP5        3 GROUP        1 Y    GLP  0     **** GLP Y 13
     9 ALL1       51 GROUP        1 Z    ALL  0     ROOT ALL Z 15
    10 SEL2       34 GROUP        1 Z    SEL  0     **** SEL Z 16
    11 LYL4       29 GROUP        1 Z    LYL  0     **** LYL Z 18
    12 GLL5        2 GROUP        1 Z    GLL  0     **** GLL Z 20
@<TRIPOS>SET

