#    Name: 2q1l_882_4_ligand
#    Modification time : Mon Mar 24 20:25:33 2014

@<TRIPOS>MOLECULE
2q1l_882_4_ligand
   75    78     1     0     0
SMALL
NO_CHARGES


@<TRIPOS>ATOM
      1 N1          0.3190   25.8370   20.1800 N.pl3     1 882876      0.0000 
      2 C4          1.4520   25.4220   19.5580 C.2       1 882876      0.0000 
      3 C5          1.2670   25.6650   18.2240 C.2       1 882876      0.0000 
      4 C6          0.1410   25.7900   21.6610 C.3       1 882876      0.0000 
      5 C7          2.7320   24.8980   20.1760 C.3       1 882876      0.0000 
      6 C8          2.6030   23.4940   20.7180 C.3       1 882876      0.0000 
      7 C10         3.9710   21.4440   20.9530 C.3       1 882876      0.0000 
      8 C13        -0.9370   24.7920   22.0760 C.3       1 882876      0.0000 
      9 C15         3.7710   25.6650   15.3480 C.ar      1 882876      0.0000 
     10 C17        -4.7730   27.9070   19.4230 C.ar      1 882876      0.0000 
     11 C20        -5.9880   28.4820   19.8070 C.ar      1 882876      0.0000 
     12 C21         2.4750   23.9240   17.0590 C.ar      1 882876      0.0000 
     13 C22        -1.0040   25.9790   14.3840 C.ar      1 882876      0.0000 
     14 C24         3.3500   23.4190   16.1160 C.ar      1 882876      0.0000 
     15 C26        -3.6270   29.8470   20.2540 C.ar      1 882876      0.0000 
     16 C28        -1.2630   27.3220   14.1280 C.ar      1 882876      0.0000 
     17 O7          4.5090   18.4200   17.4600 O.co2     1 882876      0.0000 
     18 C36         3.6010   19.1240   17.9470 C.2       1 882876      0.0000 
     19 O6          2.6020   19.5080   17.2900 O.co2     1 882876      0.0000 
     20 C35         3.7340   19.5280   19.3950 C.3       1 882876      0.0000 
     21 C11         4.0500   21.0080   19.4970 C.3       1 882876      0.0000 
     22 O3          5.3540   21.3150   19.0380 O.3       1 882876      0.0000 
     23 C9          4.0040   22.9600   21.0370 C.3       1 882876      0.0000 
     24 O4          4.3650   23.3570   22.3420 O.3       1 882876      0.0000 
     25 C27         2.2460   25.2930   17.1690 C.ar      1 882876      0.0000 
     26 C30         3.9970   24.2930   15.2600 C.ar      1 882876      0.0000 
     27 F1          4.8490   23.7770   14.3580 F         1 882876      0.0000 
     28 C18         2.8870   26.1770   16.3050 C.ar      1 882876      0.0000 
     29 C14        -0.1450   27.1870   22.1880 C.3       1 882876      0.0000 
     30 C2         -0.5730   26.3080   19.2660 C.2       1 882876      0.0000 
     31 C1          0.0060   26.1290   18.0250 C.2       1 882876      0.0000 
     32 C31        -0.4750   26.5080   16.6690 C.ar      1 882876      0.0000 
     33 C25        -0.5900   25.5790   15.6480 C.ar      1 882876      0.0000 
     34 F2         -1.6480   27.6810   12.9030 F         1 882876      0.0000 
     35 C19        -1.1200   28.2710   15.1370 C.ar      1 882876      0.0000 
     36 C16        -0.7040   27.8630   16.4080 C.ar      1 882876      0.0000 
     37 C3         -1.9730   26.7940   19.4630 C.2       1 882876      0.0000 
     38 O1         -2.7500   25.9670   19.9310 O.2       1 882876      0.0000 
     39 N2         -2.3110   28.0670   19.2860 N.am      1 882876      0.0000 
     40 C32        -3.5750   28.5890   19.6500 C.ar      1 882876      0.0000 
     41 C23        -4.8450   30.4200   20.6320 C.ar      1 882876      0.0000 
     42 C29        -6.0290   29.7340   20.4150 C.ar      1 882876      0.0000 
     43 H           1.0923   25.4601   22.1095 H         1 882876      0.0000 
     44 H           3.0407   25.5741   20.9907 H         1 882876      0.0000 
     45 H           3.5329   24.9219   19.4183 H         1 882876      0.0000 
     46 H           2.1409   22.8540   19.9791 H         1 882876      0.0000 
     47 H           2.0129   23.5007   21.6239 H         1 882876      0.0000 
     48 H           4.8149   21.0324   21.4984 H         1 882876      0.0000 
     49 H           3.0468   21.0770   21.3891 H         1 882876      0.0000 
     50 H           4.2553   26.3081   14.7071 H         1 882876      0.0000 
     51 H          -4.7615   26.9844   18.9746 H         1 882876      0.0000 
     52 H          -6.8685   27.9677   19.6359 H         1 882876      0.0000 
     53 H           1.9779   23.2754   17.6982 H         1 882876      0.0000 
     54 H          -1.1196   25.2826   13.6356 H         1 882876      0.0000 
     55 H           3.5183   22.4100   16.0507 H         1 882876      0.0000 
     56 H          -2.7480   30.3654   20.4253 H         1 882876      0.0000 
     57 H           4.5346   18.9560   19.8619 H         1 882876      0.0000 
     58 H           2.8017   19.3221   19.9189 H         1 882876      0.0000 
     59 H           3.2985   21.5629   18.9541 H         1 882876      0.0000 
     60 H           4.6783   23.3304   20.2946 H         1 882876      0.0000 
     61 H           2.7178   27.1795   16.3656 H         1 882876      0.0000 
     62 H          -0.3682   24.5883   15.8250 H         1 882876      0.0000 
     63 H          -1.3166   29.2571   14.9528 H         1 882876      0.0000 
     64 H          -0.5665   28.5581   17.1502 H         1 882876      0.0000 
     65 H          -1.6290   28.7502   18.8560 H         1 882876      0.0000 
     66 H          -4.8561   31.3494   21.0700 H         1 882876      0.0000 
     67 H          -6.9251   30.1401   20.6972 H         1 882876      0.0000 
     68 H          -0.7186   23.8633   21.7762 H         1 882876      0.0000 
     69 H          -1.0512   24.7602   23.0689 H         1 882876      0.0000 
     70 H          -1.8280   25.0241   21.6858 H         1 882876      0.0000 
     71 H           0.6026   27.8200   21.9870 H         1 882876      0.0000 
     72 H          -0.9736   27.5741   21.7836 H         1 882876      0.0000 
     73 H          -0.2736   27.1907   23.1797 H         1 882876      0.0000 
     74 H           5.9552   21.1094   19.8102 H         1 882876      0.0000 
     75 H           4.1926   24.3416   22.3699 H         1 882876      0.0000 
@<TRIPOS>BOND
     1    2    1 1    
     2    4    1 1    
     3   30    1 1    
     4    3    2 2    
     5    5    2 1    
     6   25    3 1    
     7   31    3 1    
     8    8    4 1    
     9   29    4 1    
    10   43    4 1    
    11    6    5 1    
    12   44    5 1    
    13   45    5 1    
    14   23    6 1    
    15   46    6 1    
    16   47    6 1    
    17   21    7 1    
    18   23    7 1    
    19   48    7 1    
    20   49    7 1    
    21   68    8 1    
    22   69    8 1    
    23   70    8 1    
    24   26    9 ar   
    25   28    9 ar   
    26   50    9 1    
    27   11   10 ar   
    28   40   10 ar   
    29   51   10 1    
    30   42   11 ar   
    31   52   11 1    
    32   14   12 ar   
    33   25   12 ar   
    34   53   12 1    
    35   16   13 ar   
    36   33   13 ar   
    37   54   13 1    
    38   26   14 ar   
    39   55   14 1    
    40   40   15 ar   
    41   41   15 ar   
    42   56   15 1    
    43   34   16 1    
    44   35   16 ar   
    45   18   17 ar   
    46   19   18 ar   
    47   20   18 1    
    48   21   20 1    
    49   57   20 1    
    50   58   20 1    
    51   22   21 1    
    52   59   21 1    
    53   74   22 1    
    54   24   23 1    
    55   60   23 1    
    56   75   24 1    
    57   28   25 ar   
    58   27   26 1    
    59   61   28 1    
    60   71   29 1    
    61   72   29 1    
    62   73   29 1    
    63   31   30 2    
    64   37   30 1    
    65   32   31 1    
    66   33   32 ar   
    67   36   32 ar   
    68   62   33 1    
    69   36   35 ar   
    70   63   35 1    
    71   64   36 1    
    72   38   37 2    
    73   39   37 am   
    74   40   39 1    
    75   65   39 1    
    76   42   41 ar   
    77   66   41 1    
    78   67   42 1    
@<TRIPOS>SUBSTRUCTURE
     1 882876      1 GROUP   
@<TRIPOS>SET

