#    Name: 3zsz_OM2_1_INTS_M
#    Modification time : Tue Mar 25 03:57:46 2014

@<TRIPOS>MOLECULE
3zsz_OM2_1_INTS_M
   66     0     9     0     0
SMALL
NO_CHARGES


@<TRIPOS>ATOM
      1 CA         13.2215  -48.3020    5.4720 C.3       3 GLC5        0.0000 
      2 CA         11.0820  -48.8570    5.4910 C.3       9 GLL5        0.0000 
      3 CA         15.3610  -47.7470    5.4530 C.3       6 GLP5        0.0000 
      4 CA         10.7560  -43.8415   -3.2055 C.3       3 GLC5        0.0000 
      5 CA         12.1910  -44.5200   -1.8840 C.3       9 GLL5        0.0000 
      6 CA          9.3210  -43.1630   -4.5270 C.3       6 GLP5        0.0000 
      7 CA         14.3395  -43.5880    0.9295 C.3       3 GLC5        0.0000 
      8 CA         14.0410  -45.0710   -0.4730 C.3       9 GLL5        0.0000 
      9 CA         14.6380  -42.1050    2.3320 C.3       6 GLP5        0.0000 
     10 CA         17.3245  -43.3975   -1.8435 C.3       3 GLC5        0.0000 
     11 CA         15.7280  -44.2460   -1.6520 C.3       9 GLL5        0.0000 
     12 CA         18.9210  -42.5490   -2.0350 C.3       6 GLP5        0.0000 
     13 CA         14.5530  -45.5930   -2.8260 C.3       3 GLC5        0.0000 
     14 CA         13.3780  -46.9400   -4.0000 C.3       6 GLP5        0.0000 
     15 CA         15.5020  -42.3370   -1.8620 C.3       3 GLC5        0.0000 
     16 CA         15.2760  -40.4280   -2.0720 C.3       6 GLP5        0.0000 
     17 CA          6.9200  -41.5770   -0.0405 C.3       3 GLC5        0.0000 
     18 CA          7.9040  -42.1320    1.4780 C.3       9 GLL5        0.0000 
     19 CA          5.9360  -41.0220   -1.5590 C.3       6 GLP5        0.0000 
     20 CA          6.6090  -40.7890    1.9330 C.3       3 GLC5        0.0000 
     21 CA          5.3140  -39.4460    2.3880 C.3       6 GLP5        0.0000 
     22 CA          4.3635  -42.5430    4.0975 C.3       3 GLC5        0.0000 
     23 CA          6.1730  -43.5540    3.4870 C.3       9 GLL5        0.0000 
     24 CA          2.5540  -41.5320    4.7080 C.3       6 GLP5        0.0000 
     25 CA          6.0620  -41.7155    4.1650 C.3       3 GLC5        0.0000 
     26 CA          5.9510  -39.8770    4.8430 C.3       6 GLP5        0.0000 
     27 CA          9.8985  -47.4905   -1.7835 C.3       3 GLC5        0.0000 
     28 CA         10.9630  -48.2390   -0.0680 C.3       9 GLL5        0.0000 
     29 CA          8.8340  -46.7420   -3.4990 C.3       6 GLP5        0.0000 
     30 O           8.9620  -44.6605    4.6300 O.2       1 ALC1        0.0000 
     31 O           8.0350  -45.1340    3.7710 O.2       7 ALL1        0.0000 
     32 O           9.8890  -44.1870    5.4890 O.2       4 ALP1        0.0000 
     33 N          15.7670  -45.8250    3.2530 N.am      2 SEC2        0.0000 
     34 N          14.7890  -45.5190    2.2480 N.am      8 SEL2        0.0000 
     35 N          16.7450  -46.1310    4.2580 N.am      5 SEP2        0.0000 
     36 N          15.0070  -44.2055    1.7635 N.am      2 SEC2        0.0000 
     37 N          15.2250  -42.8920    1.2790 N.am      5 SEP2        0.0000 
     38 N          13.6460  -47.0030    3.7890 N.am      2 SEC2        0.0000 
     39 N          13.1430  -47.0500    2.3700 N.am      8 SEL2        0.0000 
     40 N          14.1490  -46.9560    5.2080 N.am      5 SEP2        0.0000 
     41 N          16.4390  -46.0835    0.2095 N.am      2 SEC2        0.0000 
     42 N          15.4380  -45.0110   -0.4540 N.am      8 SEL2        0.0000 
     43 N          17.4400  -47.1560    0.8730 N.am      5 SEP2        0.0000 
     44 CA          9.7360  -45.8688    6.8875 C.3       3 GLC5        0.0000 
     45 CA         10.2620  -48.0120    6.2140 C.3       9 GLL5        0.0000 
     46 CA          9.7030  -44.1030    7.8720 C.3       6 GLP5        0.0000 
     47 CA         11.6065  -46.8043    5.7022 C.3       3 GLC5        0.0000 
     48 CA         12.5410  -45.1740    5.5520 C.3       6 GLP5        0.0000 
     49 CA         10.8637  -46.2325    5.2290 C.3       3 GLC5        0.0000 
     50 CA          9.2760  -47.2570    5.5920 C.3       9 GLL5        0.0000 
     51 CA         11.4733  -46.8662    4.6800 C.3       3 GLC5        0.0000 
     52 CA          9.9140  -48.1800    3.4960 C.3       9 GLL5        0.0000 
     53 CA         12.5680  -45.8495   -2.6982 C.3       3 GLC5        0.0000 
     54 CA         11.3250  -44.9980   -0.9090 C.3       9 GLL5        0.0000 
     55 CA         10.2960  -45.7505   -2.4478 C.3       3 GLC5        0.0000 
     56 CA         13.5448  -42.9275   -2.9743 C.3       3 GLC5        0.0000 
     57 CA         14.2170  -41.3120   -4.1840 C.3       6 GLP5        0.0000 
     58 CA         12.7970  -43.7103    1.2235 C.3       3 GLC5        0.0000 
     59 CA         13.1900  -45.5680    0.5200 C.3       9 GLL5        0.0000 
     60 CA         13.0950  -41.8730    2.0430 C.3       6 GLP5        0.0000 
     61 CA         13.5877  -45.8792   -2.5295 C.3       3 GLC5        0.0000 
     62 CA          5.5945  -44.4627    1.4658 C.3       3 GLC5        0.0000 
     63 CA          7.4270  -44.1730    2.8620 C.3       9 GLL5        0.0000 
     64 CA          4.3890  -45.0620   -0.2430 C.3       6 GLP5        0.0000 
     65 CA          8.7046  -41.9753    3.2380 C.3       3 GLC5        0.0000 
     66 CA          9.6060  -40.5500    4.0630 C.3       6 GLP5        0.0000 
@<TRIPOS>BOND
@<TRIPOS>SUBSTRUCTURE
     1 ALC1       30 GROUP        1 X    ALC  0     ROOT ALC X 1
     2 SEC2       33 GROUP        1 X    SEC  0     **** SEC X 2
     3 GLC5        1 GROUP        1 X    GLC  0     **** GLC X 6
     4 ALP1       32 GROUP        1 Y    ALP  0     ROOT ALP Y 8
     5 SEP2       35 GROUP        1 Y    SEP  0     **** SEP Y 9
     6 GLP5        3 GROUP        1 Y    GLP  0     **** GLP Y 13
     7 ALL1       31 GROUP        1 Z    ALL  0     ROOT ALL Z 15
     8 SEL2       34 GROUP        1 Z    SEL  0     **** SEL Z 16
     9 GLL5        2 GROUP        1 Z    GLL  0     **** GLL Z 20
@<TRIPOS>SET

