#    Name: 3zsz_OM2_1_ligand
#    Modification time : Tue Mar 25 03:57:46 2014

@<TRIPOS>MOLECULE
3zsz_OM2_1_ligand
   55    57     1     0     0
SMALL
NO_CHARGES


@<TRIPOS>ATOM
      1 C1         10.2620  -48.0120    6.2140 C.ar      1 OM21215     0.0000 
      2 C2         11.0820  -48.8570    5.4910 C.ar      1 OM21215     0.0000 
      3 C3          9.2760  -47.2570    5.5920 C.ar      1 OM21215     0.0000 
      4 C4         10.8970  -48.9370    4.1200 C.ar      1 OM21215     0.0000 
      5 C5         11.3250  -44.9980   -0.9090 C.ar      1 OM21215     0.0000 
      6 C6         12.1910  -44.5200   -1.8840 C.ar      1 OM21215     0.0000 
      7 C7          9.0970  -47.3250    4.2200 C.ar      1 OM21215     0.0000 
      8 C8         13.1900  -45.5680    0.5200 C.ar      1 OM21215     0.0000 
      9 C9          9.9140  -48.1800    3.4960 C.ar      1 OM21215     0.0000 
     10 C10        11.8080  -45.5270    0.2880 C.ar      1 OM21215     0.0000 
     11 C11        13.5540  -44.5660   -1.6450 C.ar      1 OM21215     0.0000 
     12 C12        14.0410  -45.0710   -0.4730 C.ar      1 OM21215     0.0000 
     13 C13         8.0380  -46.5020    3.5090 C.2       1 OM21215     0.0000 
     14 C14        13.7490  -46.1020    1.8010 C.2       1 OM21215     0.0000 
     15 C15        15.7280  -44.2460   -1.6520 C.3       1 OM21215     0.0000 
     16 C16         7.9040  -42.1320    1.4780 C.3       1 OM21215     0.0000 
     17 C17         6.1730  -43.5540    3.4870 C.3       1 OM21215     0.0000 
     18 C18        10.9630  -48.2390   -0.0680 C.3       1 OM21215     0.0000 
     19 C19         9.7360  -48.2680    2.0130 C.3       1 OM21215     0.0000 
     20 C20        10.8210  -46.0610    1.3010 C.3       1 OM21215     0.0000 
     21 C21         8.4550  -43.1240    2.4500 C.3       1 OM21215     0.0000 
     22 C22         7.4270  -44.1730    2.8620 C.3       1 OM21215     0.0000 
     23 N23         8.0350  -45.1340    3.7710 N.am      1 OM21215     0.0000 
     24 N24        10.8180  -47.5770    1.2740 N.4       1 OM21215     0.0000 
     25 O25        14.7890  -45.5190    2.2480 O.co2     1 OM21215     0.0000 
     26 O26         7.2350  -47.0020    2.7250 O.2       1 OM21215     0.0000 
     27 O27        13.1430  -47.0500    2.3700 O.co2     1 OM21215     0.0000 
     28 O28        14.5680  -44.1390   -2.4920 O.3       1 OM21215     0.0000 
     29 O29        15.4380  -45.0110   -0.4540 O.3       1 OM21215     0.0000 
     30 H          10.3829  -47.9377    7.2433 H         1 OM21215     0.0000 
     31 H          11.8043  -49.4077    5.9521 H         1 OM21215     0.0000 
     32 H           8.6715  -46.6397    6.1590 H         1 OM21215     0.0000 
     33 H          11.4940  -49.5640    3.5567 H         1 OM21215     0.0000 
     34 H          10.3026  -44.9622   -1.0709 H         1 OM21215     0.0000 
     35 H          11.8273  -44.1421   -2.7600 H         1 OM21215     0.0000 
     36 H          16.0902  -43.2365   -1.3698 H         1 OM21215     0.0000 
     37 H          16.5593  -44.7260   -2.2074 H         1 OM21215     0.0000 
     38 H           8.7604  -47.8298    1.7397 H         1 OM21215     0.0000 
     39 H           9.7024  -49.3305    1.7157 H         1 OM21215     0.0000 
     40 H           9.8236  -45.6939    1.0661 H         1 OM21215     0.0000 
     41 H          11.0991  -45.7184    2.2960 H         1 OM21215     0.0000 
     42 H           8.8079  -42.6049    3.3536 H         1 OM21215     0.0000 
     43 H           9.3222  -43.6373    2.0084 H         1 OM21215     0.0000 
     44 H           7.1112  -44.6987    1.9469 H         1 OM21215     0.0000 
     45 H           8.4712  -44.7631    4.6305 H         1 OM21215     0.0000 
     46 H          11.7928  -47.8963    1.8388 H         1 OM21215     0.0000 
     47 H           8.5860  -41.4484    1.2181 H         1 OM21215     0.0000 
     48 H           7.5932  -42.5712    0.6351 H         1 OM21215     0.0000 
     49 H           7.1219  -41.6367    1.8560 H         1 OM21215     0.0000 
     50 H           6.3892  -43.0265    4.3086 H         1 OM21215     0.0000 
     51 H           5.7100  -42.9337    2.8539 H         1 OM21215     0.0000 
     52 H           5.5077  -44.2515    3.7532 H         1 OM21215     0.0000 
     53 H          11.6808  -47.8113   -0.6175 H         1 OM21215     0.0000 
     54 H          11.1980  -49.2071    0.0189 H         1 OM21215     0.0000 
     55 H          10.1177  -48.1891   -0.6000 H         1 OM21215     0.0000 
@<TRIPOS>BOND
     1    2    1 ar   
     2    3    1 ar   
     3   30    1 1    
     4    4    2 ar   
     5   31    2 1    
     6    7    3 ar   
     7   32    3 1    
     8    9    4 ar   
     9   33    4 1    
    10    6    5 ar   
    11   10    5 ar   
    12   34    5 1    
    13   11    6 ar   
    14   35    6 1    
    15    9    7 ar   
    16   13    7 1    
    17   10    8 ar   
    18   12    8 ar   
    19   14    8 1    
    20   19    9 1    
    21   20   10 1    
    22   12   11 ar   
    23   28   11 1    
    24   29   12 1    
    25   23   13 am   
    26   26   13 2    
    27   25   14 ar   
    28   27   14 ar   
    29   28   15 1    
    30   29   15 1    
    31   36   15 1    
    32   37   15 1    
    33   21   16 1    
    34   47   16 1    
    35   48   16 1    
    36   49   16 1    
    37   22   17 1    
    38   50   17 1    
    39   51   17 1    
    40   52   17 1    
    41   24   18 1    
    42   53   18 1    
    43   54   18 1    
    44   55   18 1    
    45   24   19 1    
    46   38   19 1    
    47   39   19 1    
    48   24   20 1    
    49   40   20 1    
    50   41   20 1    
    51   22   21 1    
    52   42   21 1    
    53   43   21 1    
    54   23   22 1    
    55   44   22 1    
    56   45   23 1    
    57   46   24 1    
@<TRIPOS>SUBSTRUCTURE
     1 OM21215     1 GROUP   
@<TRIPOS>SET

