#    Name: 2zza_FOL_2_INTS_M
#    Modification time : Mon Apr  7 18:53:32 2014

@<TRIPOS>MOLECULE
2zza_FOL_2_INTS_M
   54     0    12     0     0
SMALL
NO_CHARGES


@<TRIPOS>ATOM
      1 O         -12.8465   24.6845   26.7025 O.2       1 ALC1        0.0000 
      2 O         -13.4930   23.7110   25.7220 O.2       9 ALL1        0.0000 
      3 O         -12.2000   25.6580   27.6830 O.2       5 ALP1        0.0000 
      4 N         -13.7075   26.5390   25.7105 N.am      2 SEC2        0.0000 
      5 N         -14.2610   25.7560   24.8100 N.am     10 SEL2        0.0000 
      6 N         -13.1540   27.3220   26.6110 N.am      6 SEP2        0.0000 
      7 CA        -16.7290   27.3010   23.6345 C.3       4 GLC5        0.0000 
      8 CA        -15.5720   25.6670   22.8000 C.3      12 GLL5        0.0000 
      9 CA        -17.8860   28.9350   24.4690 C.3       8 GLP5        0.0000 
     10 CA        -17.7540   27.1485   21.8960 C.3       4 GLC5        0.0000 
     11 CA        -16.6970   25.5310   20.7790 C.3      12 GLL5        0.0000 
     12 CA        -18.8110   28.7660   23.0130 C.3       8 GLP5        0.0000 
     13 CA        -16.0150   22.4805   19.5970 C.3       4 GLC5        0.0000 
     14 CA        -16.5890   24.1460   20.8240 C.3      12 GLL5        0.0000 
     15 CA        -15.4410   20.8150   18.3700 C.3       8 GLP5        0.0000 
     16 N         -17.0845   23.8685   23.0400 N.am      2 SEC2        0.0000 
     17 N         -15.9900   23.5520   21.8400 N.am     10 SEL2        0.0000 
     18 N         -18.1790   24.1850   24.2400 N.am      6 SEP2        0.0000 
     19 CA        -16.1705   22.8625   24.1220 C.3       4 GLC5        0.0000 
     20 CA        -15.4700   24.2810   22.8350 C.3      12 GLL5        0.0000 
     21 CA        -16.8710   21.4440   25.4090 C.3       8 GLP5        0.0000 
     22 CA        -18.3870   25.2585   18.0410 C.3       4 GLC5        0.0000 
     23 CA        -17.3930   26.1810   19.5810 C.3      12 GLL5        0.0000 
     24 CA        -19.3810   24.3360   16.5010 C.3       8 GLP5        0.0000 
     25 CA        -17.0510   26.9005   17.5430 C.3       4 GLC5        0.0000 
     26 CA        -16.7090   27.6200   15.5050 C.3       8 GLP5        0.0000 
     27 CA        -18.6565   25.0470   20.0080 C.3       4 GLC5        0.0000 
     28 CA        -19.9200   23.9130   20.4350 C.3       8 GLP5        0.0000 
     29 CA        -12.8220   26.6850   17.0280 C.3       4 GLC5        0.0000 
     30 CA        -13.6480   27.8090   18.4820 C.3      12 GLL5        0.0000 
     31 CA        -11.9960   25.5610   15.5740 C.3       8 GLP5        0.0000 
     32 CA        -10.6345   28.5860   16.0650 C.3       4 GLC5        0.0000 
     33 CA         -9.7680   29.3900   17.5900 C.3      12 GLL5        0.0000 
     34 CA        -11.5010   27.7820   14.5400 C.3       8 GLP5        0.0000 
     35 NZ         -8.2705   26.5800   16.7760 N.4       3 LYC4        0.0000 
     36 NZ         -9.2250   27.1400   18.1030 N.4      11 LYL4        0.0000 
     37 NZ         -7.7430   24.8320   15.8580 N.4       7 LYP4        0.0000 
     38 N          -8.2705   26.5800   16.7760 N.am      2 SEC2        0.0000 
     39 N          -9.2250   27.1400   18.1030 N.am     10 SEL2        0.0000 
     40 N          -7.3160   26.0200   15.4490 N.am      6 SEP2        0.0000 
     41 N          -8.7950   25.9280   17.5655 N.am      2 SEC2        0.0000 
     42 N          -8.3650   24.7160   17.0280 N.am      6 SEP2        0.0000 
     43 NZ         -7.8160   28.2900   16.8120 N.4      11 LYL4        0.0000 
     44 N          -7.5660   27.1550   16.1305 N.am      2 SEC2        0.0000 
     45 N          -7.8160   28.2900   16.8120 N.am     10 SEL2        0.0000 
     46 CA        -13.9220   29.5204   20.5166 C.3       4 GLC5        0.0000 
     47 CA        -13.4910   29.1870   18.3760 C.3      12 GLL5        0.0000 
     48 CA        -12.9380   29.4900   22.2560 C.3       8 GLP5        0.0000 
     49 CA        -16.2882   28.2125   17.2952 C.3       4 GLC5        0.0000 
     50 CA        -15.7860   29.4940   19.0380 C.3      12 GLL5        0.0000 
     51 CA        -13.6000   28.5162   20.4630 C.3       4 GLC5        0.0000 
     52 CA        -14.8760   27.2760   18.8580 C.3      12 GLL5        0.0000 
     53 CA        -15.1805   26.8923   17.0305 C.3       4 GLC5        0.0000 
     54 CA        -16.0990   26.2420   15.3910 C.3       8 GLP5        0.0000 
@<TRIPOS>BOND
@<TRIPOS>SUBSTRUCTURE
     1 ALC1        1 GROUP        1 X    ALC  0     ROOT ALC X 1
     2 SEC2        4 GROUP        1 X    SEC  0     **** SEC X 2
     3 LYC4       35 GROUP        1 X    LYC  0     **** LYC X 4
     4 GLC5        7 GROUP        1 X    GLC  0     **** GLC X 6
     5 ALP1        3 GROUP        1 Y    ALP  0     ROOT ALP Y 8
     6 SEP2        6 GROUP        1 Y    SEP  0     **** SEP Y 9
     7 LYP4       37 GROUP        1 Y    LYP  0     **** LYP Y 11
     8 GLP5        9 GROUP        1 Y    GLP  0     **** GLP Y 13
     9 ALL1        2 GROUP        1 Z    ALL  0     ROOT ALL Z 15
    10 SEL2        5 GROUP        1 Z    SEL  0     **** SEL Z 16
    11 LYL4       36 GROUP        1 Z    LYL  0     **** LYL Z 18
    12 GLL5        8 GROUP        1 Z    GLL  0     **** GLL Z 20
@<TRIPOS>SET

