#    Name: 2zza_FOL_2_ligand
#    Modification time : Mon Apr  7 18:53:32 2014

@<TRIPOS>MOLECULE
2zza_FOL_2_ligand
   49    51     1     0     0
SMALL
NO_CHARGES


@<TRIPOS>ATOM
      1 N1        -14.7930   23.6650   23.8160 N.pl3     1 FOL164      0.0000 
      2 C2        -14.1880   24.3570   24.7910 C.2       1 FOL164      0.0000 
      3 NA2       -13.4930   23.7110   25.7220 N.pl3     1 FOL164      0.0000 
      4 N3        -14.2610   25.7560   24.8100 N.2       1 FOL164      0.0000 
      5 C4        -14.9660   26.4180   23.7990 C.2       1 FOL164      0.0000 
      6 O4        -15.0480   27.6450   23.7920 O.2       1 FOL164      0.0000 
      7 C4A       -15.5720   25.6670   22.8000 C.ar      1 FOL164      0.0000 
      8 N5        -16.1890   26.2710   21.7740 N.ar      1 FOL164      0.0000 
      9 C6        -16.6970   25.5310   20.7790 C.ar      1 FOL164      0.0000 
     10 C7        -16.5890   24.1460   20.8240 C.ar      1 FOL164      0.0000 
     11 N8        -15.9900   23.5520   21.8400 N.ar      1 FOL164      0.0000 
     12 C8A       -15.4700   24.2810   22.8350 C.ar      1 FOL164      0.0000 
     13 C9        -17.3930   26.1810   19.5810 C.3       1 FOL164      0.0000 
     14 N10       -17.1340   27.6260   19.4920 N.pl3     1 FOL164      0.0000 
     15 C11       -13.4910   29.1870   18.3760 C.ar      1 FOL164      0.0000 
     16 C12       -14.5610   30.0280   18.6570 C.ar      1 FOL164      0.0000 
     17 C13       -15.7860   29.4940   19.0380 C.ar      1 FOL164      0.0000 
     18 C14       -15.9490   28.1160   19.1330 C.ar      1 FOL164      0.0000 
     19 C15       -14.8760   27.2760   18.8580 C.ar      1 FOL164      0.0000 
     20 C16       -13.6480   27.8090   18.4820 C.ar      1 FOL164      0.0000 
     21 C         -12.1520   29.7830   17.9330 C.2       1 FOL164      0.0000 
     22 O         -12.0750   30.9420   17.5310 O.2       1 FOL164      0.0000 
     23 N         -11.1130   28.9560   17.9930 N.am      1 FOL164      0.0000 
     24 CA         -9.7680   29.3900   17.5900 C.3       1 FOL164      0.0000 
     25 CB         -9.2260   30.3910   18.6120 C.3       1 FOL164      0.0000 
     26 CG         -8.8760   31.7110   17.9230 C.3       1 FOL164      0.0000 
     27 CD         -9.4110   32.8980   18.7270 C.2       1 FOL164      0.0000 
     28 OE1        -9.7210   33.9240   18.0830 O.co2     1 FOL164      0.0000 
     29 OE2        -9.5170   32.7460   19.9630 O.co2     1 FOL164      0.0000 
     30 CT         -8.8520   28.1690   17.5000 C.2       1 FOL164      0.0000 
     31 O1         -9.2250   27.1400   18.1030 O.co2     1 FOL164      0.0000 
     32 O2         -7.8160   28.2900   16.8120 O.co2     1 FOL164      0.0000 
     33 H         -14.7361   22.6114   23.8191 H         1 FOL164      0.0000 
     34 H         -13.4768   22.7140   25.6464 H         1 FOL164      0.0000 
     35 H         -13.0491   24.2803   26.4139 H         1 FOL164      0.0000 
     36 H         -16.9948   23.5981   20.0330 H         1 FOL164      0.0000 
     37 H         -18.4752   25.9881   19.6677 H         1 FOL164      0.0000 
     38 H         -17.0481   25.6706   18.6664 H         1 FOL164      0.0000 
     39 H         -17.9434   28.2393   19.7297 H         1 FOL164      0.0000 
     40 H         -14.4459   31.0482   18.5828 H         1 FOL164      0.0000 
     41 H         -16.5756   30.1197   19.2507 H         1 FOL164      0.0000 
     42 H         -14.9909   26.2552   18.9330 H         1 FOL164      0.0000 
     43 H         -12.8558   27.1846   18.2823 H         1 FOL164      0.0000 
     44 H         -11.1899   27.9761   18.3212 H         1 FOL164      0.0000 
     45 H          -9.8028   29.8649   16.6274 H         1 FOL164      0.0000 
     46 H          -8.3349   29.9817   19.0776 H         1 FOL164      0.0000 
     47 H          -9.9797   30.5715   19.3721 H         1 FOL164      0.0000 
     48 H          -9.3156   31.7244   16.9283 H         1 FOL164      0.0000 
     49 H          -7.7952   31.7950   17.8358 H         1 FOL164      0.0000 
@<TRIPOS>BOND
     1    2    1 1    
     2   12    1 1    
     3   33    1 1    
     4    3    2 1    
     5    4    2 2    
     6   34    3 1    
     7   35    3 1    
     8    5    4 1    
     9    6    5 2    
    10    7    5 1    
    11    8    7 ar   
    12   12    7 ar   
    13    9    8 ar   
    14   10    9 ar   
    15   13    9 1    
    16   11   10 ar   
    17   36   10 1    
    18   12   11 ar   
    19   14   13 1    
    20   37   13 1    
    21   38   13 1    
    22   18   14 1    
    23   39   14 1    
    24   16   15 ar   
    25   20   15 ar   
    26   21   15 1    
    27   17   16 ar   
    28   40   16 1    
    29   18   17 ar   
    30   41   17 1    
    31   19   18 ar   
    32   20   19 ar   
    33   42   19 1    
    34   43   20 1    
    35   22   21 2    
    36   23   21 am   
    37   24   23 1    
    38   44   23 1    
    39   25   24 1    
    40   30   24 1    
    41   45   24 1    
    42   26   25 1    
    43   46   25 1    
    44   47   25 1    
    45   27   26 1    
    46   48   26 1    
    47   49   26 1    
    48   28   27 ar   
    49   29   27 ar   
    50   31   30 ar   
    51   32   30 ar   
@<TRIPOS>SUBSTRUCTURE
     1 FOL164      1 GROUP   
@<TRIPOS>SET

