#    Name: 4b00_I6X_1_INTS_M
#    Modification time : Tue Mar 25 06:25:57 2014

@<TRIPOS>MOLECULE
4b00_I6X_1_INTS_M
   74     0     9     0     0
SMALL
NO_CHARGES


@<TRIPOS>ATOM
      1 CA          9.5745    5.7625  -23.0430 C.3       3 GLC5        0.0000 
      2 CA          7.9850    6.6420  -22.9300 C.3       9 GLL5        0.0000 
      3 CA         11.1640    4.8830  -23.1560 C.3       6 GLP5        0.0000 
      4 N           7.1095    5.8305  -26.2905 N.am      2 SEC2        0.0000 
      5 N           6.3100    6.3960  -25.2630 N.am      8 SEL2        0.0000 
      6 N           7.9090    5.2650  -27.3180 N.am      5 SEP2        0.0000 
      7 CA          5.8005    2.9950  -25.9115 C.3       3 GLC5        0.0000 
      8 CA          4.2890    4.4770  -25.6300 C.3       9 GLL5        0.0000 
      9 CA          7.3120    1.5130  -26.1930 C.3       6 GLP5        0.0000 
     10 CA          2.8175    3.1475  -25.3125 C.3       3 GLC5        0.0000 
     11 CA          1.3460    1.8180  -24.9950 C.3       6 GLP5        0.0000 
     12 CA          2.5940    2.1045  -18.7095 C.3       3 GLC5        0.0000 
     13 CA          4.1960    3.4430  -19.3060 C.3       9 GLL5        0.0000 
     14 CA          0.9920    0.7660  -18.1130 C.3       6 GLP5        0.0000 
     15 O           3.0420    3.1200  -21.1875 O.2       1 ALC1        0.0000 
     16 O           4.1830    3.0320  -20.5330 O.2       7 ALL1        0.0000 
     17 O           1.9010    3.2080  -21.8420 O.2       4 ALP1        0.0000 
     18 O           1.8450    3.5475  -19.3015 O.2       1 ALC1        0.0000 
     19 O           3.0770    3.7260  -18.5590 O.2       7 ALL1        0.0000 
     20 O           0.6130    3.3690  -20.0440 O.2       4 ALP1        0.0000 
     21 O           2.7420    4.1355  -17.1860 O.2       1 ALC1        0.0000 
     22 O           2.4070    4.5450  -15.8130 O.2       4 ALP1        0.0000 
     23 CA          4.2030    2.9380  -15.1985 C.3       3 GLC5        0.0000 
     24 CA          5.2860    4.3020  -16.5230 C.3       9 GLL5        0.0000 
     25 CA          3.1200    1.5740  -13.8740 C.3       6 GLP5        0.0000 
     26 CA          8.6435   -1.0580  -23.9320 C.3       3 GLC5        0.0000 
     27 CA          6.9510   -0.2350  -22.8390 C.3       9 GLL5        0.0000 
     28 CA         10.3360   -1.8810  -25.0250 C.3       6 GLP5        0.0000 
     29 CA          2.4765   -0.6600  -18.7600 C.3       3 GLC5        0.0000 
     30 CA          3.9610   -2.0860  -19.4070 C.3       9 GLL5        0.0000 
     31 CA          3.9050   -6.0800  -18.4830 C.3       3 GLC5        0.0000 
     32 CA          4.5050   -4.1970  -18.4710 C.3       9 GLL5        0.0000 
     33 CA          3.3050   -7.9630  -18.4950 C.3       6 GLP5        0.0000 
     34 CA          6.6835   -4.6925  -20.8840 C.3       3 GLC5        0.0000 
     35 CA          5.9360   -3.2410  -19.9410 C.3       9 GLL5        0.0000 
     36 CA          7.4310   -6.1440  -21.8270 C.3       6 GLP5        0.0000 
     37 CA          1.3735   -3.2170  -19.6625 C.3       3 GLC5        0.0000 
     38 CA          2.4740   -3.1740  -17.7480 C.3       9 GLL5        0.0000 
     39 CA          0.2730   -3.2600  -21.5770 C.3       6 GLP5        0.0000 
     40 CA          2.1750   -1.4340  -15.9175 C.3       3 GLC5        0.0000 
     41 CA          1.4920   -3.2190  -17.0620 C.3       9 GLL5        0.0000 
     42 CA          2.8580    0.3510  -14.7730 C.3       6 GLP5        0.0000 
     43 CA         -0.0115   -5.1165  -15.1535 C.3       3 GLC5        0.0000 
     44 CA          0.2970   -3.2730  -16.2260 C.3       9 GLL5        0.0000 
     45 CA         -0.3200   -6.9600  -14.0810 C.3       6 GLP5        0.0000 
     46 CA          0.3165   -4.4900  -17.7255 C.3       3 GLC5        0.0000 
     47 CA          0.3360   -5.7070  -19.2250 C.3       6 GLP5        0.0000 
     48 CA         -0.7215   -3.2515  -14.8140 C.3       3 GLC5        0.0000 
     49 CA         -1.7400   -3.2300  -13.4020 C.3       6 GLP5        0.0000 
     50 CA          8.7175    7.8083  -24.3970 C.3       3 GLC5        0.0000 
     51 CA          9.7390    8.2800  -25.9580 C.3       6 GLP5        0.0000 
     52 CA          3.8665    5.1233  -22.7715 C.3       3 GLC5        0.0000 
     53 CA          5.7900    3.8150  -22.1410 C.3       9 GLL5        0.0000 
     54 CA          2.3530    6.4680  -22.8010 C.3       6 GLP5        0.0000 
     55 CA          4.5137    2.2340  -24.2825 C.3       3 GLC5        0.0000 
     56 CA          4.9700    3.7420  -23.3430 C.3       9 GLL5        0.0000 
     57 CA          3.9840    0.3120  -24.6970 C.3       6 GLP5        0.0000 
     58 CA          3.5280    5.4958  -23.9062 C.3       3 GLC5        0.0000 
     59 CA          5.1170    4.5700  -24.3930 C.3       9 GLL5        0.0000 
     60 CA          5.1225    0.7703  -23.3300 C.3       3 GLC5        0.0000 
     61 CA          5.8560    1.3770  -21.4190 C.3       9 GLL5        0.0000 
     62 CA          5.3395   -0.2167  -23.5733 C.3       3 GLC5        0.0000 
     63 CA          3.5315   -0.8030  -21.5445 C.3       3 GLC5        0.0000 
     64 CA          5.6380   -1.0060  -20.9590 C.3       9 GLL5        0.0000 
     65 CA          1.5630   -1.2640  -22.2820 C.3       6 GLP5        0.0000 
     66 CA          4.7420   -0.0150  -22.7520 C.3       3 GLC5        0.0000 
     67 CA          3.0598   -1.6810  -21.0225 C.3       3 GLC5        0.0000 
     68 CA          5.1520   -2.1100  -20.1190 C.3       9 GLL5        0.0000 
     69 CA          2.2037   -4.6843  -18.8697 C.3       3 GLC5        0.0000 
     70 CA          3.6380   -3.1260  -18.5580 C.3       9 GLL5        0.0000 
     71 CA          1.1595   -4.4518  -18.3150 C.3       3 GLC5        0.0000 
     72 CA          1.4875   -1.2152  -17.7590 C.3       3 GLC5        0.0000 
     73 CA          1.8027   -3.0975  -14.7480 C.3       3 GLC5        0.0000 
     74 CA          2.7110   -2.9490  -12.8520 C.3       6 GLP5        0.0000 
@<TRIPOS>BOND
@<TRIPOS>SUBSTRUCTURE
     1 ALC1       15 GROUP        1 X    ALC  0     ROOT ALC X 1
     2 SEC2        4 GROUP        1 X    SEC  0     **** SEC X 2
     3 GLC5        1 GROUP        1 X    GLC  0     **** GLC X 6
     4 ALP1       17 GROUP        1 Y    ALP  0     ROOT ALP Y 8
     5 SEP2        6 GROUP        1 Y    SEP  0     **** SEP Y 9
     6 GLP5        3 GROUP        1 Y    GLP  0     **** GLP Y 13
     7 ALL1       16 GROUP        1 Z    ALL  0     ROOT ALL Z 15
     8 SEL2        5 GROUP        1 Z    SEL  0     **** SEL Z 16
     9 GLL5        2 GROUP        1 Z    GLL  0     **** GLL Z 20
@<TRIPOS>SET

