#    Name: 4b00_I6X_1_ligand
#    Modification time : Tue Mar 25 06:25:57 2014

@<TRIPOS>MOLECULE
4b00_I6X_1_ligand
   62    66     1     0     0
SMALL
NO_CHARGES


@<TRIPOS>ATOM
      1 C1          7.4070    8.0310  -22.7420 C.3       1 I6X1507     0.0000 
      2 C2          7.9850    6.6420  -22.9300 C.3       1 I6X1507     0.0000 
      3 N3          6.9370    5.6560  -23.1440 N.am      1 I6X1507     0.0000 
      4 C4          6.7130    4.7870  -22.0930 C.2       1 I6X1507     0.0000 
      5 C5          5.7900    3.8150  -22.1410 C.2       1 I6X1507     0.0000 
      6 C6          4.9700    3.7420  -23.3430 C.2       1 I6X1507     0.0000 
      7 C7          5.1170    4.5700  -24.3930 C.2       1 I6X1507     0.0000 
      8 C8          6.1790    5.6260  -24.3200 C.2       1 I6X1507     0.0000 
      9 O9          6.3100    6.3960  -25.2630 O.2       1 I6X1507     0.0000 
     10 C10         4.2890    4.4770  -25.6300 C.3       1 I6X1507     0.0000 
     11 C11         5.5620    2.8120  -21.0190 C.3       1 I6X1507     0.0000 
     12 C12         6.3750    3.1150  -19.7890 C.ar      1 I6X1507     0.0000 
     13 C13         7.7430    3.0340  -19.5900 C.ar      1 I6X1507     0.0000 
     14 C14         8.2610    3.3830  -18.3530 C.ar      1 I6X1507     0.0000 
     15 C15         7.4290    3.8200  -17.3360 C.ar      1 I6X1507     0.0000 
     16 C16         6.0570    3.8700  -17.5320 C.ar      1 I6X1507     0.0000 
     17 C17         5.5570    3.5110  -18.7710 C.ar      1 I6X1507     0.0000 
     18 C18         4.1960    3.4430  -19.3060 C.2       1 I6X1507     0.0000 
     19 N19         4.1830    3.0320  -20.5330 N.pl3     1 I6X1507     0.0000 
     20 N20         3.0770    3.7260  -18.5590 N.pl3     1 I6X1507     0.0000 
     21 F21         5.2860    4.3020  -16.5230 F         1 I6X1507     0.0000 
     22 C22         5.8560    1.3770  -21.4190 C.ar      1 I6X1507     0.0000 
     23 C23         6.6660    1.0800  -22.5070 C.ar      1 I6X1507     0.0000 
     24 C24         6.9510   -0.2350  -22.8390 C.ar      1 I6X1507     0.0000 
     25 C25         6.4390   -1.2560  -22.0600 C.ar      1 I6X1507     0.0000 
     26 C26         5.6380   -1.0060  -20.9590 C.ar      1 I6X1507     0.0000 
     27 C27         5.3620    0.3220  -20.6550 C.ar      1 I6X1507     0.0000 
     28 C28         5.1520   -2.1100  -20.1190 C.ar      1 I6X1507     0.0000 
     29 C29         3.9610   -2.0860  -19.4070 C.ar      1 I6X1507     0.0000 
     30 C30         3.6380   -3.1260  -18.5580 C.ar      1 I6X1507     0.0000 
     31 C31         4.5050   -4.1970  -18.4710 C.ar      1 I6X1507     0.0000 
     32 N32         5.6470   -4.2860  -19.1580 N.ar      1 I6X1507     0.0000 
     33 C33         5.9360   -3.2410  -19.9410 C.ar      1 I6X1507     0.0000 
     34 C34         2.4740   -3.1740  -17.7480 C.1       1 I6X1507     0.0000 
     35 C35         1.4920   -3.2190  -17.0620 C.1       1 I6X1507     0.0000 
     36 C36         0.2970   -3.2730  -16.2260 C.3       1 I6X1507     0.0000 
     37 H           8.5800    6.3916  -22.0384 H         1 I6X1507     0.0000 
     38 H           8.6766    6.6683  -23.7860 H         1 I6X1507     0.0000 
     39 H           7.3016    4.9073  -21.2238 H         1 I6X1507     0.0000 
     40 H           4.2384    2.9879  -23.3455 H         1 I6X1507     0.0000 
     41 H           8.3606    2.7221  -20.3425 H         1 I6X1507     0.0000 
     42 H           9.2805    3.3162  -18.1879 H         1 I6X1507     0.0000 
     43 H           7.8293    4.1089  -16.4311 H         1 I6X1507     0.0000 
     44 H           3.4392    2.8625  -21.1300 H         1 I6X1507     0.0000 
     45 H           3.2393    4.0155  -17.6157 H         1 I6X1507     0.0000 
     46 H           2.1984    3.6177  -19.0242 H         1 I6X1507     0.0000 
     47 H           7.0603    1.8492  -23.0750 H         1 I6X1507     0.0000 
     48 H           7.5358   -0.4470  -23.6544 H         1 I6X1507     0.0000 
     49 H           6.6627   -2.2452  -22.3089 H         1 I6X1507     0.0000 
     50 H           4.7647    0.5373  -19.8268 H         1 I6X1507     0.0000 
     51 H           3.3169   -1.2871  -19.5145 H         1 I6X1507     0.0000 
     52 H           4.2308   -4.9887  -17.8129 H         1 I6X1507     0.0000 
     53 H           6.8634   -3.2608  -20.4955 H         1 I6X1507     0.0000 
     54 H           8.1222    8.7138  -22.5927 H         1 I6X1507     0.0000 
     55 H           6.8822    8.3261  -23.5404 H         1 I6X1507     0.0000 
     56 H           6.7919    8.0739  -21.9547 H         1 I6X1507     0.0000 
     57 H           4.5440    5.1734  -26.3008 H         1 I6X1507     0.0000 
     58 H           4.3887    3.5884  -26.0777 H         1 I6X1507     0.0000 
     59 H           3.3158    4.5998  -25.4356 H         1 I6X1507     0.0000 
     60 H           0.4987   -3.6254  -15.3121 H         1 I6X1507     0.0000 
     61 H          -0.1145   -2.3693  -16.1074 H         1 I6X1507     0.0000 
     62 H          -0.4055   -3.8655  -16.6202 H         1 I6X1507     0.0000 
@<TRIPOS>BOND
     1    2    1 1    
     2   54    1 1    
     3   55    1 1    
     4   56    1 1    
     5    3    2 1    
     6   37    2 1    
     7   38    2 1    
     8    4    3 1    
     9    8    3 am   
    10    5    4 2    
    11   39    4 1    
    12    6    5 1    
    13   11    5 1    
    14    7    6 2    
    15   40    6 1    
    16    8    7 1    
    17   10    7 1    
    18    9    8 2    
    19   57   10 1    
    20   58   10 1    
    21   59   10 1    
    22   12   11 1    
    23   19   11 1    
    24   22   11 1    
    25   13   12 ar   
    26   17   12 ar   
    27   14   13 ar   
    28   41   13 1    
    29   15   14 ar   
    30   42   14 1    
    31   16   15 ar   
    32   43   15 1    
    33   17   16 ar   
    34   21   16 1    
    35   18   17 1    
    36   19   18 2    
    37   20   18 1    
    38   44   19 1    
    39   45   20 1    
    40   46   20 1    
    41   23   22 ar   
    42   27   22 ar   
    43   24   23 ar   
    44   47   23 1    
    45   25   24 ar   
    46   48   24 1    
    47   26   25 ar   
    48   49   25 1    
    49   27   26 ar   
    50   28   26 1    
    51   50   27 1    
    52   29   28 ar   
    53   33   28 ar   
    54   30   29 ar   
    55   51   29 1    
    56   31   30 ar   
    57   34   30 1    
    58   32   31 ar   
    59   52   31 1    
    60   33   32 ar   
    61   53   33 1    
    62   35   34 3    
    63   36   35 1    
    64   60   36 1    
    65   61   36 1    
    66   62   36 1    
@<TRIPOS>SUBSTRUCTURE
     1 I6X1507     1 GROUP   
@<TRIPOS>SET

