#    Name: 1l5k_1RB_1_INTS_M
#    Modification time : Mon Apr  7 13:57:03 2014

@<TRIPOS>MOLECULE
1l5k_1RB_1_INTS_M
   55     0     9     0     0
SMALL
NO_CHARGES


@<TRIPOS>ATOM
      1 N          55.7455   41.7335   15.2010 N.am      2 SEC2        0.0000 
      2 N          56.3470   41.6110   14.0940 N.am      8 SEL2        0.0000 
      3 N          55.1440   41.8560   16.3080 N.am      5 SEP2        0.0000 
      4 CA         59.4080   40.4055   12.6780 C.3       3 GLC5        0.0000 
      5 CA         57.7620   41.6690   12.3270 C.3       9 GLL5        0.0000 
      6 CA         61.0540   39.1420   13.0290 C.3       6 GLP5        0.0000 
      7 CA         57.6605   40.2340   14.6020 C.3       3 GLC5        0.0000 
      8 CA         57.5640   42.1050   13.6930 C.3       9 GLL5        0.0000 
      9 CA         57.7570   38.3630   15.5110 C.3       6 GLP5        0.0000 
     10 CA         55.7060   43.0635   13.5830 C.3       3 GLC5        0.0000 
     11 CA         53.8480   44.0220   13.4730 C.3       6 GLP5        0.0000 
     12 CA         58.6265   41.9545   16.2205 C.3       3 GLC5        0.0000 
     13 CA         58.5380   42.8960   14.3690 C.3       9 GLL5        0.0000 
     14 CA         58.7150   41.0130   18.0720 C.3       6 GLP5        0.0000 
     15 CA         60.3840   41.2005   13.3580 C.3       3 GLC5        0.0000 
     16 CA         59.7140   43.2590   13.6870 C.3       9 GLL5        0.0000 
     17 CA         61.6725   42.6140   11.1040 C.3       3 GLC5        0.0000 
     18 CA         59.9330   42.8390   12.3240 C.3       9 GLL5        0.0000 
     19 CA         63.4120   42.3890    9.8840 C.3       6 GLP5        0.0000 
     20 CA         58.7940   42.5575    9.6105 C.3       3 GLC5        0.0000 
     21 CA         58.9680   42.0520   11.6430 C.3       9 GLL5        0.0000 
     22 CA         58.6200   43.0630    7.5780 C.3       6 GLP5        0.0000 
     23 N          58.2240   36.7385    5.1405 N.am      2 SEC2        0.0000 
     24 N          59.0490   38.0660    5.2330 N.am      8 SEL2        0.0000 
     25 N          57.3990   35.4110    5.0480 N.am      5 SEP2        0.0000 
     26 N          58.1795   37.9485    4.2880 N.am      2 SEC2        0.0000 
     27 N          57.3100   37.8310    3.3430 N.am      5 SEP2        0.0000 
     28 N          58.5755   41.5085    5.2615 N.am      2 SEC2        0.0000 
     29 N          59.5480   40.4660    5.1150 N.am      8 SEL2        0.0000 
     30 N          57.6030   42.5510    5.4080 N.am      5 SEP2        0.0000 
     31 N          60.9975   37.9660    7.2015 N.am      2 SEC2        0.0000 
     32 N          60.4340   39.1250    6.9520 N.am      8 SEL2        0.0000 
     33 N          61.5610   36.8070    7.4510 N.am      5 SEP2        0.0000 
     34 N          57.7795   41.0960    6.1530 N.am      2 SEC2        0.0000 
     35 N          57.9560   39.6410    6.8980 N.am      8 SEL2        0.0000 
     36 CA         56.5385   38.2410    6.4565 C.3       3 GLC5        0.0000 
     37 CA         57.4690   38.6910    7.8450 C.3       9 GLL5        0.0000 
     38 CA         55.6080   37.7910    5.0680 C.3       6 GLP5        0.0000 
     39 CA         59.9555   38.1155    9.5185 C.3       3 GLC5        0.0000 
     40 CA         57.9510   39.0950    9.2410 C.3       9 GLL5        0.0000 
     41 CA         61.9600   37.1360    9.7960 C.3       6 GLP5        0.0000 
     42 CA         58.2855   41.0790    8.4095 C.3       3 GLC5        0.0000 
     43 CA         58.7400   36.5375   11.2335 C.3       3 GLC5        0.0000 
     44 CA         57.5250   38.1670   10.3650 C.3       9 GLL5        0.0000 
     45 CA         59.9550   34.9080   12.1020 C.3       6 GLP5        0.0000 
     46 N          58.5985   36.8795   12.1220 N.am      2 SEC2        0.0000 
     47 N          58.4020   38.2480   11.5100 N.am      8 SEL2        0.0000 
     48 N          58.7950   35.5110   12.7340 N.am      5 SEP2        0.0000 
     49 O          55.1700   37.0620   11.6550 O.2       1 ALC1        0.0000 
     50 O          55.7020   38.2250   11.9190 O.2       7 ALL1        0.0000 
     51 O          54.6380   35.8990   11.3910 O.2       4 ALP1        0.0000 
     52 CA         61.1848   42.4981   14.0500 C.3       3 GLC5        0.0000 
     53 CA         62.8400   42.0380   14.9240 C.3       6 GLP5        0.0000 
     54 CA         60.6562   41.1137   11.7767 C.3       3 GLC5        0.0000 
     55 CA         61.8620   39.7820   11.5700 C.3       6 GLP5        0.0000 
@<TRIPOS>BOND
@<TRIPOS>SUBSTRUCTURE
     1 ALC1       49 GROUP        1 X    ALC  0     ROOT ALC X 1
     2 SEC2        1 GROUP        1 X    SEC  0     **** SEC X 2
     3 GLC5        4 GROUP        1 X    GLC  0     **** GLC X 6
     4 ALP1       51 GROUP        1 Y    ALP  0     ROOT ALP Y 8
     5 SEP2        3 GROUP        1 Y    SEP  0     **** SEP Y 9
     6 GLP5        6 GROUP        1 Y    GLP  0     **** GLP Y 13
     7 ALL1       50 GROUP        1 Z    ALL  0     ROOT ALL Z 15
     8 SEL2        2 GROUP        1 Z    SEL  0     **** SEL Z 16
     9 GLL5        5 GROUP        1 Z    GLL  0     **** GLL Z 20
@<TRIPOS>SET

