#    Name: 1l5k_1RB_1_ligand
#    Modification time : Mon Apr  7 13:57:03 2014

@<TRIPOS>MOLECULE
1l5k_1RB_1_ligand
   35    37     1     0     0
SMALL
NO_CHARGES


@<TRIPOS>ATOM
      1 N3         56.3470   41.6110   14.0940 N.2       1 1RB990      0.0000 
      2 N1         56.6210   40.9060   11.9230 N.pl3     1 1RB990      0.0000 
      3 C2         55.8480   40.9340   13.0530 C.2       1 1RB990      0.0000 
      4 C7A        57.7620   41.6690   12.3270 C.ar      1 1RB990      0.0000 
      5 C3A        57.5640   42.1050   13.6930 C.ar      1 1RB990      0.0000 
      6 C4         58.5380   42.8960   14.3690 C.ar      1 1RB990      0.0000 
      7 C5         59.7140   43.2590   13.6870 C.ar      1 1RB990      0.0000 
      8 C6         59.9330   42.8390   12.3240 C.ar      1 1RB990      0.0000 
      9 C7         58.9680   42.0520   11.6430 C.ar      1 1RB990      0.0000 
     10 P          59.2700   39.3150    6.0260 P.3       1 1RB990      0.0000 
     11 O1P        59.0490   38.0660    5.2330 O.co2     1 1RB990      0.0000 
     12 O2P        59.5480   40.4660    5.1150 O.co2     1 1RB990      0.0000 
     13 O3P        60.4340   39.1250    6.9520 O.co2     1 1RB990      0.0000 
     14 O5'        57.9560   39.6410    6.8980 O.3       1 1RB990      0.0000 
     15 C5'        57.4690   38.6910    7.8450 C.3       1 1RB990      0.0000 
     16 C4'        57.9510   39.0950    9.2410 C.3       1 1RB990      0.0000 
     17 O4'        57.4050   40.3970    9.6530 O.3       1 1RB990      0.0000 
     18 C3'        57.5250   38.1670   10.3650 C.3       1 1RB990      0.0000 
     19 O3'        58.4020   38.2480   11.5100 O.3       1 1RB990      0.0000 
     20 C2'        56.1520   38.7170   10.6550 C.3       1 1RB990      0.0000 
     21 O2'        55.7020   38.2250   11.9190 O.3       1 1RB990      0.0000 
     22 C1'        56.3340   40.2240   10.5840 C.3       1 1RB990      0.0000 
     23 H          54.9494   40.4630   13.0839 H         1 1RB990      0.0000 
     24 H          58.3785   43.1881   15.3252 H         1 1RB990      0.0000 
     25 H          60.4290   43.8249   14.1475 H         1 1RB990      0.0000 
     26 H          60.7948   43.1163   11.8533 H         1 1RB990      0.0000 
     27 H          59.1186   41.7594   10.6875 H         1 1RB990      0.0000 
     28 H          57.8414   37.6847    7.6425 H         1 1RB990      0.0000 
     29 H          56.3777   38.6580    7.8662 H         1 1RB990      0.0000 
     30 H          59.0320   39.1575    9.2530 H         1 1RB990      0.0000 
     31 H          57.4185   37.1941    9.9660 H         1 1RB990      0.0000 
     32 H          55.5123   38.4180    9.8412 H         1 1RB990      0.0000 
     33 H          55.4197   40.6409   10.1599 H         1 1RB990      0.0000 
     34 H          57.8373   38.6293   12.2419 H         1 1RB990      0.0000 
     35 H          55.7489   37.2292   11.8406 H         1 1RB990      0.0000 
@<TRIPOS>BOND
     1    3    1 2    
     2    5    1 1    
     3    3    2 1    
     4    4    2 1    
     5   22    2 1    
     6   23    3 1    
     7    5    4 ar   
     8    9    4 ar   
     9    6    5 ar   
    10    7    6 ar   
    11   24    6 1    
    12    8    7 ar   
    13   25    7 1    
    14    9    8 ar   
    15   26    8 1    
    16   27    9 1    
    17   11   10 ar   
    18   12   10 ar   
    19   13   10 ar   
    20   14   10 1    
    21   15   14 1    
    22   16   15 1    
    23   28   15 1    
    24   29   15 1    
    25   17   16 1    
    26   18   16 1    
    27   30   16 1    
    28   22   17 1    
    29   19   18 1    
    30   20   18 1    
    31   31   18 1    
    32   34   19 1    
    33   21   20 1    
    34   22   20 1    
    35   32   20 1    
    36   35   21 1    
    37   33   22 1    
@<TRIPOS>SUBSTRUCTURE
     1 1RB990      1 GROUP   
@<TRIPOS>SET

