#    Name: 1rt1_MKC_1_INTS_M
#    Modification time : Tue Mar 25 01:10:18 2014

@<TRIPOS>MOLECULE
1rt1_MKC_1_INTS_M
   54     0     6     0     0
SMALL
NO_CHARGES


@<TRIPOS>ATOM
      1 CA         -1.8905  -30.4670   27.7285 C.3       2 GLC5        0.0000 
      2 CA         -0.7970  -32.1960   28.6140 C.3       6 GLL5        0.0000 
      3 CA         -2.9840  -28.7380   26.8430 C.3       4 GLP5        0.0000 
      4 O          -1.9340  -35.1850   20.5590 O.2       1 ALC1        0.0000 
      5 O          -2.0840  -34.9970   21.9110 O.2       5 ALL1        0.0000 
      6 O          -1.7840  -35.3730   19.2070 O.2       3 ALP1        0.0000 
      7 CA         -3.0240  -36.1790   26.6660 C.3       2 GLC5        0.0000 
      8 CA         -1.8560  -34.8520   26.1390 C.3       6 GLL5        0.0000 
      9 CA         -4.1920  -37.5060   27.1930 C.3       4 GLP5        0.0000 
     10 CA         -1.0990  -39.9105   26.3315 C.3       2 GLC5        0.0000 
     11 CA         -0.9370  -38.0870   25.0730 C.3       6 GLL5        0.0000 
     12 CA         -1.2610  -41.7340   27.5900 C.3       4 GLP5        0.0000 
     13 CA         -1.8775  -39.5295   24.6470 C.3       2 GLC5        0.0000 
     14 CA         -2.8180  -40.9720   24.2210 C.3       4 GLP5        0.0000 
     15 CA          2.1615  -36.7015   26.5025 C.3       2 GLC5        0.0000 
     16 CA          0.8910  -36.3690   25.4020 C.3       6 GLL5        0.0000 
     17 CA          3.4320  -37.0340   27.6030 C.3       4 GLP5        0.0000 
     18 CA         -1.9210  -32.2190   23.9945 C.3       2 GLC5        0.0000 
     19 CA         -3.3510  -32.9190   24.6740 C.3       6 GLL5        0.0000 
     20 CA         -0.4910  -31.5190   23.3150 C.3       4 GLP5        0.0000 
     21 CA         -4.0515  -31.3045   25.0815 C.3       2 GLC5        0.0000 
     22 CA         -4.7520  -29.6900   25.4890 C.3       4 GLP5        0.0000 
     23 CA         -3.9635  -31.7115   22.9325 C.3       2 GLC5        0.0000 
     24 CA         -4.5760  -30.5040   21.1910 C.3       4 GLP5        0.0000 
     25 CA         -5.0725  -35.4650   24.6870 C.3       2 GLC5        0.0000 
     26 CA         -5.7050  -33.5160   24.6380 C.3       6 GLL5        0.0000 
     27 CA         -4.4400  -37.4140   24.7360 C.3       4 GLP5        0.0000 
     28 CA         -5.5870  -33.4400   26.6590 C.3       2 GLC5        0.0000 
     29 CA         -5.4690  -33.3640   28.6800 C.3       4 GLP5        0.0000 
     30 CA         -5.2285  -31.6030   25.0635 C.3       2 GLC5        0.0000 
     31 CA         -5.9810  -35.9835   25.6665 C.3       2 GLC5        0.0000 
     32 CA         -6.8360  -34.2140   25.3000 C.3       6 GLL5        0.0000 
     33 CA         -5.1260  -37.7530   26.0330 C.3       4 GLP5        0.0000 
     34 CA         -8.2450  -34.5260   26.6550 C.3       2 GLC5        0.0000 
     35 CA         -9.6540  -34.8380   28.0100 C.3       4 GLP5        0.0000 
     36 CA         -6.3690  -34.4535   27.0220 C.3       2 GLC5        0.0000 
     37 CA         -5.9020  -34.6930   28.7440 C.3       4 GLP5        0.0000 
     38 CA         -3.0938  -31.8813   29.0035 C.3       2 GLC5        0.0000 
     39 CA         -1.5740  -33.1070   27.9140 C.3       6 GLL5        0.0000 
     40 CA         -5.0020  -31.1110   29.7430 C.3       4 GLP5        0.0000 
     41 CA         -0.1086  -32.2722   25.0580 C.3       2 GLC5        0.0000 
     42 CA         -1.0830  -33.7260   26.7730 C.3       6 GLL5        0.0000 
     43 CA         -0.9870  -33.4348   23.7933 C.3       2 GLC5        0.0000 
     44 CA         -1.8470  -34.8860   24.6220 C.3       6 GLL5        0.0000 
     45 CA         -2.9615  -36.3822   24.5038 C.3       2 GLC5        0.0000 
     46 CA         -1.0266  -35.6176   27.8716 C.3       2 GLC5        0.0000 
     47 CA         -0.4610  -37.1010   29.0020 C.3       4 GLP5        0.0000 
     48 CA         -2.5078  -37.4480   24.7665 C.3       2 GLC5        0.0000 
     49 CA         -0.2140  -36.8770   24.5210 C.3       6 GLL5        0.0000 
     50 CA          1.4044  -38.2632   24.0853 C.3       2 GLC5        0.0000 
     51 CA          2.6510  -39.6010   23.0710 C.3       4 GLP5        0.0000 
     52 CA         -0.1516  -37.0132   27.0508 C.3       2 GLC5        0.0000 
     53 CA         -7.6828  -33.6820   23.5315 C.3       2 GLC5        0.0000 
     54 CA         -9.0950  -33.4990   22.0940 C.3       4 GLP5        0.0000 
@<TRIPOS>BOND
@<TRIPOS>SUBSTRUCTURE
     1 ALC1        4 GROUP        1 X    ALC  0     ROOT ALC X 1
     2 GLC5        1 GROUP        1 X    GLC  0     **** GLC X 6
     3 ALP1        6 GROUP        1 Y    ALP  0     ROOT ALP Y 8
     4 GLP5        3 GROUP        1 Y    GLP  0     **** GLP Y 13
     5 ALL1        5 GROUP        1 Z    ALL  0     ROOT ALL Z 15
     6 GLL5        2 GROUP        1 Z    GLL  0     **** GLL Z 20
@<TRIPOS>SET

