#    Name: 1rt1_MKC_1_ligand
#    Modification time : Tue Mar 25 01:10:18 2014

@<TRIPOS>MOLECULE
1rt1_MKC_1_ligand
   44    45     1     0     0
SMALL
NO_CHARGES


@<TRIPOS>ATOM
      1 C1         -1.0830  -33.7260   26.7730 C.ar      1 MKC999      0.0000 
      2 C2         -1.5740  -33.1070   27.9140 C.ar      1 MKC999      0.0000 
      3 C3         -0.7970  -32.1960   28.6140 C.ar      1 MKC999      0.0000 
      4 C4          0.4880  -31.8870   28.1790 C.ar      1 MKC999      0.0000 
      5 C5          0.9870  -32.4870   27.0450 C.ar      1 MKC999      0.0000 
      6 C6          0.2040  -33.4020   26.3410 C.ar      1 MKC999      0.0000 
      7 C7         -1.8470  -34.8860   24.6220 C.2       1 MKC999      0.0000 
      8 N8         -2.6800  -34.0170   23.9500 N.am      1 MKC999      0.0000 
      9 C9         -2.8330  -34.0570   22.5710 C.2       1 MKC999      0.0000 
     10 O9         -3.6270  -33.3340   21.9680 O.2       1 MKC999      0.0000 
     11 N10        -2.0840  -34.9970   21.9110 N.am      1 MKC999      0.0000 
     12 C11        -1.2040  -35.8940   22.4960 C.2       1 MKC999      0.0000 
     13 O11        -0.5470  -36.6700   21.8100 O.2       1 MKC999      0.0000 
     14 C12        -1.1190  -35.8150   23.9210 C.2       1 MKC999      0.0000 
     15 C13        -1.8560  -34.8520   26.1390 C.3       1 MKC999      0.0000 
     16 C14        -0.2140  -36.8770   24.5210 C.3       1 MKC999      0.0000 
     17 C15        -0.9370  -38.0870   25.0730 C.3       1 MKC999      0.0000 
     18 C16         0.8910  -36.3690   25.4020 C.3       1 MKC999      0.0000 
     19 C17        -3.3510  -32.9190   24.6740 C.3       1 MKC999      0.0000 
     20 O17        -4.4930  -33.3780   25.3960 O.3       1 MKC999      0.0000 
     21 C18        -5.7050  -33.5160   24.6380 C.3       1 MKC999      0.0000 
     22 C19        -6.8360  -34.2140   25.3000 C.3       1 MKC999      0.0000 
     23 H          -2.5283  -33.3273   28.2451 H         1 MKC999      0.0000 
     24 H          -1.1719  -31.7441   29.4618 H         1 MKC999      0.0000 
     25 H           1.0572  -31.2125   28.7070 H         1 MKC999      0.0000 
     26 H           1.9349  -32.2665   26.7105 H         1 MKC999      0.0000 
     27 H           0.5817  -33.8461   25.4881 H         1 MKC999      0.0000 
     28 H          -2.1844  -35.0475   20.8426 H         1 MKC999      0.0000 
     29 H          -2.9134  -34.8075   26.4866 H         1 MKC999      0.0000 
     30 H          -1.4610  -35.8222   26.5179 H         1 MKC999      0.0000 
     31 H           0.3579  -37.3127   23.5795 H         1 MKC999      0.0000 
     32 H          -3.6378  -32.1333   23.9437 H         1 MKC999      0.0000 
     33 H          -2.6181  -32.4436   25.3593 H         1 MKC999      0.0000 
     34 H          -5.4906  -34.0455   23.6627 H         1 MKC999      0.0000 
     35 H          -6.0688  -32.4988   24.3056 H         1 MKC999      0.0000 
     36 H          -0.3012  -38.7556   25.4587 H         1 MKC999      0.0000 
     37 H          -1.5769  -37.8377   25.7999 H         1 MKC999      0.0000 
     38 H          -1.4651  -38.5583   24.3666 H         1 MKC999      0.0000 
     39 H           1.4490  -37.1150   25.7653 H         1 MKC999      0.0000 
     40 H           1.5074  -35.7556   24.9083 H         1 MKC999      0.0000 
     41 H           0.5364  -35.8595   26.1860 H         1 MKC999      0.0000 
     42 H          -6.5971  -35.1516   25.5525 H         1 MKC999      0.0000 
     43 H          -7.1206  -33.7482   26.1379 H         1 MKC999      0.0000 
     44 H          -7.6390  -34.2659   24.7063 H         1 MKC999      0.0000 
@<TRIPOS>BOND
     1    2    1 ar   
     2    6    1 ar   
     3   15    1 1    
     4    3    2 ar   
     5   23    2 1    
     6    4    3 ar   
     7   24    3 1    
     8    5    4 ar   
     9   25    4 1    
    10    6    5 ar   
    11   26    5 1    
    12   27    6 1    
    13    8    7 1    
    14   14    7 2    
    15   15    7 1    
    16    9    8 1    
    17   19    8 1    
    18   10    9 2    
    19   11    9 1    
    20   12   11 1    
    21   28   11 1    
    22   13   12 2    
    23   14   12 1    
    24   16   14 1    
    25   29   15 1    
    26   30   15 1    
    27   17   16 1    
    28   18   16 1    
    29   31   16 1    
    30   36   17 1    
    31   37   17 1    
    32   38   17 1    
    33   39   18 1    
    34   40   18 1    
    35   41   18 1    
    36   20   19 1    
    37   32   19 1    
    38   33   19 1    
    39   21   20 1    
    40   22   21 1    
    41   34   21 1    
    42   35   21 1    
    43   42   22 1    
    44   43   22 1    
    45   44   22 1    
@<TRIPOS>SUBSTRUCTURE
     1 MKC999      1 GROUP   
@<TRIPOS>SET

