#    Name: 4hxp_1A5_1_ligand
#    Modification time : Tue Mar 25 01:56:42 2014

@<TRIPOS>MOLECULE
4hxp_1A5_1_ligand
   25    26     1     0     0
SMALL
NO_CHARGES


@<TRIPOS>ATOM
      1 OAC        -8.6360   -7.1750    3.6160 O.2       1 1A5201      0.0000 
      2 CAL        -8.2040   -8.1520    3.0170 C.2       1 1A5201      0.0000 
      3 OAJ        -6.9740   -8.7920    3.2760 O.3       1 1A5201      0.0000 
      4 CAH        -6.8140   -9.7050    2.2060 C.3       1 1A5201      0.0000 
      5 CAI        -8.2160  -10.0710    1.8430 C.3       1 1A5201      0.0000 
      6 NAO        -8.8390   -8.8330    1.9540 N.am      1 1A5201      0.0000 
      7 CAN        -9.8660   -8.0430    1.3020 C.ar      1 1A5201      0.0000 
      8 CAF        -9.5430   -7.4520    0.0880 C.ar      1 1A5201      0.0000 
      9 CAD       -10.4770   -6.6730   -0.5900 C.ar      1 1A5201      0.0000 
     10 CAM       -11.7270   -6.4720   -0.0270 C.ar      1 1A5201      0.0000 
     11 CAK       -12.7330   -5.6280   -0.7270 C.2       1 1A5201      0.0000 
     12 OAB       -13.8510   -5.5500   -0.2580 O.2       1 1A5201      0.0000 
     13 NAA       -12.3880   -4.9170   -1.9240 N.am      1 1A5201      0.0000 
     14 CAE       -12.0410   -7.0520    1.1870 C.ar      1 1A5201      0.0000 
     15 CAG       -11.1160   -7.8340    1.8540 C.ar      1 1A5201      0.0000 
     16 H          -6.2871  -10.5949    2.5066 H         1 1A5201      0.0000 
     17 H          -6.3391   -9.2514    1.3524 H         1 1A5201      0.0000 
     18 H          -8.5781  -10.7868    2.5497 H         1 1A5201      0.0000 
     19 H          -8.2234  -10.4555    0.8455 H         1 1A5201      0.0000 
     20 H          -8.6037   -7.5900   -0.3167 H         1 1A5201      0.0000 
     21 H         -10.2399   -6.2550   -1.4937 H         1 1A5201      0.0000 
     22 H         -13.1180   -4.3741   -2.3392 H         1 1A5201      0.0000 
     23 H         -11.4463   -5.0237   -2.2432 H         1 1A5201      0.0000 
     24 H         -12.9774   -6.9000    1.6016 H         1 1A5201      0.0000 
     25 H         -11.3580   -8.2597    2.7601 H         1 1A5201      0.0000 
@<TRIPOS>BOND
     1    2    1 2    
     2    3    2 1    
     3    6    2 am   
     4    4    3 1    
     5    5    4 1    
     6   16    4 1    
     7   17    4 1    
     8    6    5 1    
     9   18    5 1    
    10   19    5 1    
    11    7    6 1    
    12    8    7 ar   
    13   15    7 ar   
    14    9    8 ar   
    15   20    8 1    
    16   10    9 ar   
    17   21    9 1    
    18   11   10 1    
    19   14   10 ar   
    20   12   11 2    
    21   13   11 am   
    22   22   13 1    
    23   23   13 1    
    24   15   14 ar   
    25   24   14 1    
    26   25   15 1    
@<TRIPOS>SUBSTRUCTURE
     1 1A5201      1 GROUP   
@<TRIPOS>SET

