#    Name: 1WZN_2_CAVITY_N1_ALL.mol2
#    Modification time : Mon Mar 10 17:14:16 2014

@<TRIPOS>MOLECULE
1WZN_2_CAVITY_N1_ALL.mol2
   67     0     6     0     0
SMALL
NO_CHARGES


@<TRIPOS>ATOM
      1 NZ         32.7143   33.0416   84.8113 N.2       3 LYS4        0.0000 
      2 O          32.7681   33.9866   83.6477 O.2       2 ALA2        0.0000 
      3 O          31.3760   31.8441   87.6441 O.2       2 ALA2        0.0000 
      4 CA         31.4297   32.7891   86.4805 C.3       5 GLY6        0.0000 
      5 CA         31.4835   33.7341   85.3168 C.3       5 GLY6        0.0000 
      6 CZ         31.5372   34.6791   84.1531 C.ar      4 PHE5        0.0000 
      7 CZ         31.5910   35.6241   82.9895 C.ar      4 PHE5        0.0000 
      8 O          30.1451   32.5365   88.1496 O.2       2 ALA2        0.0000 
      9 CA         30.1989   33.4815   86.9859 C.3       5 GLY6        0.0000 
     10 CA         30.2526   34.4265   85.8223 C.3       5 GLY6        0.0000 
     11 CA         28.9143   33.2290   88.6551 C.3       5 GLY6        0.0000 
     12 CZ         28.9680   34.1740   87.4914 C.ar      4 PHE5        0.0000 
     13 CZ         29.0218   35.1190   86.3278 C.ar      4 PHE5        0.0000 
     14 OG         29.0755   36.0640   85.1641 O.2       1 SER1        0.0000 
     15 CZ         27.7372   34.8664   87.9969 C.ar      4 PHE5        0.0000 
     16 CZ         27.7909   35.8114   86.8332 C.ar      4 PHE5        0.0000 
     17 OG         27.8447   36.7564   85.6696 O.2       1 SER1        0.0000 
     18 N          26.6138   37.4489   86.1751 N.2       2 ALA2        0.0000 
     19 N          25.3830   38.1413   86.6805 N.2       2 ALA2        0.0000 
     20 CA         34.4256   34.9151   86.4118 C.3       5 GLY6        0.0000 
     21 DU         34.4794   35.8601   85.2482 H         6 CUB7        0.0000 
     22 CZ         34.5331   36.8051   84.0845 C.ar      4 PHE5        0.0000 
     23 CA         33.1948   35.6076   86.9173 C.3       5 GLY6        0.0000 
     24 CA         33.2485   36.5526   85.7536 C.3       5 GLY6        0.0000 
     25 CA         32.0177   37.2450   86.2591 C.3       5 GLY6        0.0000 
     26 CA         29.2895   31.5998   87.3493 C.3       5 GLY6        0.0000 
     27 CZ         29.4508   34.4348   83.8584 C.ar      4 PHE5        0.0000 
     28 NZ         28.0587   32.2922   87.8548 N.2       3 LYS4        0.0000 
     29 CA         28.1124   33.2372   86.6912 C.3       5 GLY6        0.0000 
     30 CA         28.1662   34.1822   85.5275 C.3       5 GLY6        0.0000 
     31 NZ         26.8815   33.9297   87.1967 N.2       3 LYS4        0.0000 
     32 OG         26.9353   34.8747   86.0330 O.2       1 SER1        0.0000 
     33 NZ         25.6507   34.6221   87.7021 N.2       3 LYS4        0.0000 
     34 CZ         25.7044   35.5671   86.5385 C.ar      4 PHE5        0.0000 
     35 OG         25.7582   36.5121   85.3748 O.2       1 SER1        0.0000 
     36 OG         25.8119   37.4571   84.2112 O.2       1 SER1        0.0000 
     37 CA         24.4736   36.2596   87.0440 C.3       5 GLY6        0.0000 
     38 N          24.5273   37.2046   85.8803 N.2       2 ALA2        0.0000 
     39 N          24.5811   38.1496   84.7166 N.2       2 ALA2        0.0000 
     40 CA         23.2427   36.9520   87.5494 C.3       5 GLY6        0.0000 
     41 NZ         23.2965   37.8970   86.3858 N.2       3 LYS4        0.0000 
     42 N          23.3502   38.8420   85.2221 N.2       2 ALA2        0.0000 
     43 CZ         34.8546   34.2309   83.9424 C.ar      4 PHE5        0.0000 
     44 NZ         33.5700   33.9784   85.6116 N.2       3 LYS4        0.0000 
     45 CZ         33.6237   34.9234   84.4479 C.ar      4 PHE5        0.0000 
     46 CA         32.2854   33.7258   87.2807 C.3       5 GLY6        0.0000 
     47 CA         32.3391   34.6708   86.1170 C.3       5 GLY6        0.0000 
     48 DU         32.3929   35.6158   84.9534 H         6 CUB7        0.0000 
     49 CZ         32.4466   36.5608   83.7897 C.ar      4 PHE5        0.0000 
     50 CA         31.0008   33.4733   88.9498 C.3       5 GLY6        0.0000 
     51 CA         31.0545   34.4183   87.7862 C.3       5 GLY6        0.0000 
     52 CA         31.1083   35.3633   86.6225 C.3       5 GLY6        0.0000 
     53 CZ         31.1620   36.3083   85.4589 C.ar      4 PHE5        0.0000 
     54 CZ         31.2158   37.2533   84.2952 C.ar      4 PHE5        0.0000 
     55 CZ         29.8237   35.1107   88.2917 C.ar      4 PHE5        0.0000 
     56 CZ         29.8774   36.0557   87.1280 C.ar      4 PHE5        0.0000 
     57 CA         29.9312   37.0007   85.9643 C.3       5 GLY6        0.0000 
     58 NZ         26.0259   32.9929   86.3964 N.2       3 LYS4        0.0000 
     59 OG         26.0797   33.9379   85.2328 O.2       1 SER1        0.0000 
     60 OG         24.8488   34.6304   85.7382 O.2       1 SER1        0.0000 
     61 OG         24.9026   35.5754   84.5746 O.2       1 SER1        0.0000 
     62 NZ         23.5642   34.3778   87.4074 N.2       3 LYS4        0.0000 
     63 CA         23.6180   35.3228   86.2437 C.3       5 GLY6        0.0000 
     64 OG         23.6717   36.2678   85.0801 O.2       1 SER1        0.0000 
     65 CA         22.3334   35.0703   87.9129 C.3       5 GLY6        0.0000 
     66 NZ         22.3871   36.0153   86.7492 N.2       3 LYS4        0.0000 
     67 DU         22.4946   37.9053   84.4219 H         6 CUB7        0.0000 
@<TRIPOS>BOND
@<TRIPOS>SUBSTRUCTURE
     1 SER1       14 GROUP   
     2 ALA2        2 GROUP   
     3 LYS4        1 GROUP   
     4 PHE5        6 GROUP   
     5 GLY6        4 GROUP   
     6 CUB7       21 GROUP   
@<TRIPOS>SET

