#    Name: 1wzn_SAH_2_INTS_M
#    Modification time : Tue Mar 25 09:29:07 2014

@<TRIPOS>MOLECULE
1wzn_SAH_2_INTS_M
   91     0    12     0     0
SMALL
NO_CHARGES


@<TRIPOS>ATOM
      1 O          37.8925   35.2525   89.0270 O.2       1 ALC1        0.0000 
      2 O          39.1420   36.0030   89.0910 O.2       9 ALL1        0.0000 
      3 O          36.6430   34.5020   88.9630 O.2       5 ALP1        0.0000 
      4 O          38.6550   37.5005   89.4125 O.2       1 ALC1        0.0000 
      5 O          38.1680   38.9980   89.7340 O.2       5 ALP1        0.0000 
      6 O          39.9430   35.1055   89.6565 O.2       1 ALC1        0.0000 
      7 O          40.7440   34.2080   90.2220 O.2       5 ALP1        0.0000 
      8 O          37.6225   36.4940   89.3905 O.2       1 ALC1        0.0000 
      9 O          36.1030   36.9850   89.6900 O.2       5 ALP1        0.0000 
     10 CA         39.0075   34.0005   88.6740 C.3       4 GLC5        0.0000 
     11 CA         39.8350   35.7810   87.7520 C.3      12 GLL5        0.0000 
     12 CA         38.1800   32.2200   89.5960 C.3       8 GLP5        0.0000 
     13 CA         39.1760   38.9260   87.0715 C.3       4 GLC5        0.0000 
     14 CA         38.3200   37.2850   86.1840 C.3      12 GLL5        0.0000 
     15 CA         40.0320   40.5670   87.9590 C.3       8 GLP5        0.0000 
     16 CA         36.7645   36.7550   82.9545 C.3       4 GLC5        0.0000 
     17 CA         37.3460   37.0060   84.6390 C.3      12 GLL5        0.0000 
     18 CA         36.1830   36.5040   81.2700 C.3       8 GLP5        0.0000 
     19 CA         38.9985   37.0280   83.6065 C.3       4 GLC5        0.0000 
     20 CA         40.6510   37.0500   82.5740 C.3       8 GLP5        0.0000 
     21 NZ         42.3370   38.1550   89.2775 N.4       3 LYC4        0.0000 
     22 NZ         41.3010   37.4750   88.7490 N.4      11 LYL4        0.0000 
     23 NZ         44.2310   39.1510   88.8450 N.4       7 LYP4        0.0000 
     24 N          42.6065   38.2075   88.1590 N.am      2 SEC2        0.0000 
     25 N          41.3010   37.4750   88.7490 N.am     10 SEL2        0.0000 
     26 N          43.9120   38.9400   87.5690 N.am      6 SEP2        0.0000 
     27 N          42.3370   38.1550   89.2775 N.am      2 SEC2        0.0000 
     28 N          43.3730   38.8350   89.8060 N.am      6 SEP2        0.0000 
     29 N          42.8775   37.8250   87.1400 N.am      2 SEC2        0.0000 
     30 N          41.8430   36.7100   86.7110 N.am     10 SEL2        0.0000 
     31 CA         34.2575   37.5725   86.8030 C.3       4 GLC5        0.0000 
     32 CA         35.6760   36.9710   85.1710 C.3      12 GLL5        0.0000 
     33 CA         32.8390   38.1740   88.4350 C.3       8 GLP5        0.0000 
     34 CA         34.5685   35.1280   87.3820 C.3       4 GLC5        0.0000 
     35 CA         35.1890   35.4700   85.4760 C.3      12 GLL5        0.0000 
     36 CA         33.9480   34.7860   89.2880 C.3       8 GLP5        0.0000 
     37 CA         35.5920   34.8590   82.5610 C.3       4 GLC5        0.0000 
     38 CA         35.1130   34.5250   84.2940 C.3      12 GLL5        0.0000 
     39 CA         36.0710   35.1930   80.8280 C.3       8 GLP5        0.0000 
     40 CA         36.8745   33.3720   85.0580 C.3       4 GLC5        0.0000 
     41 CA         38.6360   32.2190   85.8220 C.3       8 GLP5        0.0000 
     42 CA         36.9260   33.8255   83.2955 C.3       4 GLC5        0.0000 
     43 CA         38.7390   33.1260   82.2970 C.3       8 GLP5        0.0000 
     44 O          35.6480   32.6225   85.4560 O.2       1 ALC1        0.0000 
     45 O          36.0010   33.4250   84.4690 O.2       9 ALL1        0.0000 
     46 O          35.2950   31.8200   86.4430 O.2       5 ALP1        0.0000 
     47 CA         33.6330   34.7605   82.5270 C.3       4 GLC5        0.0000 
     48 CA         33.5800   34.1320   84.2450 C.3      12 GLL5        0.0000 
     49 CA         33.6860   35.3890   80.8090 C.3       8 GLP5        0.0000 
     50 N          32.5795   32.1460   82.7670 N.am      2 SEC2        0.0000 
     51 N          33.3540   32.8020   83.7660 N.am     10 SEL2        0.0000 
     52 N          31.8050   31.4900   81.7680 N.am      6 SEP2        0.0000 
     53 O          34.3245   32.3110   85.1045 O.2       1 ALC1        0.0000 
     54 O          33.3540   32.8020   83.7660 O.2       9 ALL1        0.0000 
     55 O          33.8730   31.6745   84.3325 O.2       1 ALC1        0.0000 
     56 O          34.3920   30.5470   84.8990 O.2       5 ALP1        0.0000 
     57 CA         33.5490   34.5765   87.4860 C.3       4 GLC5        0.0000 
     58 CA         33.1500   34.3670   85.6840 C.3      12 GLL5        0.0000 
     59 CA         28.0330   31.6580   88.4295 C.3       4 GLC5        0.0000 
     60 CA         28.8440   33.4880   87.6110 C.3      12 GLL5        0.0000 
     61 CA         27.2220   29.8280   89.2480 C.3       8 GLP5        0.0000 
     62 CA         28.7570   33.8870   89.5075 C.3       4 GLC5        0.0000 
     63 CA         28.6700   34.2860   91.4040 C.3       8 GLP5        0.0000 
     64 O          26.6980   33.0835   88.4975 O.2       1 ALC1        0.0000 
     65 O          27.5580   33.8600   87.6780 O.2       9 ALL1        0.0000 
     66 O          25.8380   32.3070   89.3170 O.2       5 ALP1        0.0000 
     67 N          28.7380   31.9195   89.6015 N.am      2 SEC2        0.0000 
     68 N          29.3270   32.4220   88.3390 N.am     10 SEL2        0.0000 
     69 N          28.1490   31.4170   90.8640 N.am      6 SEP2        0.0000 
     70 CA         32.6010   32.7145   88.9120 C.3       4 GLC5        0.0000 
     71 CA         30.6310   32.0160   88.2970 C.3      12 GLL5        0.0000 
     72 CA         34.5710   33.4130   89.5270 C.3       8 GLP5        0.0000 
     73 CA         32.1880   30.6950   88.0690 C.3       4 GLC5        0.0000 
     74 CA         33.7450   29.3740   87.8410 C.3       8 GLP5        0.0000 
     75 CA         30.3030   31.2910   86.7165 C.3       4 GLC5        0.0000 
     76 CA         29.9750   30.5660   85.1360 C.3       8 GLP5        0.0000 
     77 CA         28.9265   30.9220   88.7725 C.3       4 GLC5        0.0000 
     78 CA         30.6655   32.4200   89.9745 C.3       4 GLC5        0.0000 
     79 CA         30.7000   32.8240   91.6520 C.3       8 GLP5        0.0000 
     80 N          31.7355   31.1545   86.9490 N.am      2 SEC2        0.0000 
     81 N          31.5940   32.6300   87.5250 N.am     10 SEL2        0.0000 
     82 N          31.8770   29.6790   86.3730 N.am      6 SEP2        0.0000 
     83 CA         32.5320   34.2360   88.0455 C.3       4 GLC5        0.0000 
     84 CA         31.1160   33.6860   86.8030 C.3      12 GLL5        0.0000 
     85 CA         39.0222   34.0450   86.4785 C.3       4 GLC5        0.0000 
     86 CA         38.9820   35.9610   86.5180 C.3      12 GLL5        0.0000 
     87 CA         39.6510   36.8365   84.4625 C.3       4 GLC5        0.0000 
     88 CA         35.2368   36.7353   83.4018 C.3       4 GLC5        0.0000 
     89 CA         35.0410   37.2500   81.4800 C.3       8 GLP5        0.0000 
     90 CA         30.0991   32.1594   86.0693 C.3       4 GLC5        0.0000 
     91 CA         29.8170   34.1510   86.7930 C.3      12 GLL5        0.0000 
@<TRIPOS>BOND
@<TRIPOS>SUBSTRUCTURE
     1 ALC1        1 GROUP        1 X    ALC  0     ROOT ALC X 1
     2 SEC2       24 GROUP        1 X    SEC  0     **** SEC X 2
     3 LYC4       21 GROUP        1 X    LYC  0     **** LYC X 4
     4 GLC5       10 GROUP        1 X    GLC  0     **** GLC X 6
     5 ALP1        3 GROUP        1 Y    ALP  0     ROOT ALP Y 8
     6 SEP2       26 GROUP        1 Y    SEP  0     **** SEP Y 9
     7 LYP4       23 GROUP        1 Y    LYP  0     **** LYP Y 11
     8 GLP5       12 GROUP        1 Y    GLP  0     **** GLP Y 13
     9 ALL1        2 GROUP        1 Z    ALL  0     ROOT ALL Z 15
    10 SEL2       25 GROUP        1 Z    SEL  0     **** SEL Z 16
    11 LYL4       22 GROUP        1 Z    LYL  0     **** LYL Z 18
    12 GLL5       11 GROUP        1 Z    GLL  0     **** GLL Z 20
@<TRIPOS>SET

