#    Name: 1wzn_SAH_2_ligand
#    Modification time : Tue Mar 25 09:29:07 2014

@<TRIPOS>MOLECULE
1wzn_SAH_2_ligand
   46    48     1     0     0
SMALL
NO_CHARGES


@<TRIPOS>ATOM
      1 N          39.1420   36.0030   89.0910 N.4       1 SAH1002     0.0000 
      2 CA         39.8350   35.7810   87.7520 C.3       1 SAH1002     0.0000 
      3 CB         38.9820   35.9610   86.5180 C.3       1 SAH1002     0.0000 
      4 CG         38.3200   37.2850   86.1840 C.3       1 SAH1002     0.0000 
      5 SD         37.3460   37.0060   84.6390 S.3       1 SAH1002     0.0000 
      6 C          41.0920   36.7520   87.7620 C.2       1 SAH1002     0.0000 
      7 O          41.3010   37.4750   88.7490 O.co2     1 SAH1002     0.0000 
      8 OXT        41.8430   36.7100   86.7110 O.co2     1 SAH1002     0.0000 
      9 C5'        35.6760   36.9710   85.1710 C.3       1 SAH1002     0.0000 
     10 C4'        35.1890   35.4700   85.4760 C.3       1 SAH1002     0.0000 
     11 O4'        33.8220   35.6500   85.8630 O.3       1 SAH1002     0.0000 
     12 C3'        35.1130   34.5250   84.2940 C.3       1 SAH1002     0.0000 
     13 O3'        36.0010   33.4250   84.4690 O.3       1 SAH1002     0.0000 
     14 C2'        33.5800   34.1320   84.2450 C.3       1 SAH1002     0.0000 
     15 O2'        33.3540   32.8020   83.7660 O.3       1 SAH1002     0.0000 
     16 C1'        33.1500   34.3670   85.6840 C.3       1 SAH1002     0.0000 
     17 N9         31.8410   34.5270   85.9180 N.pl3     1 SAH1002     0.0000 
     18 C8         30.8940   35.4310   85.4500 C.2       1 SAH1002     0.0000 
     19 N7         29.6980   35.2670   85.9190 N.2       1 SAH1002     0.0000 
     20 C5         29.8170   34.1510   86.7930 C.ar      1 SAH1002     0.0000 
     21 C6         28.8440   33.4880   87.6110 C.ar      1 SAH1002     0.0000 
     22 N6         27.5580   33.8600   87.6780 N.pl3     1 SAH1002     0.0000 
     23 N1         29.3270   32.4220   88.3390 N.ar      1 SAH1002     0.0000 
     24 C2         30.6310   32.0160   88.2970 C.ar      1 SAH1002     0.0000 
     25 N3         31.5940   32.6300   87.5250 N.ar      1 SAH1002     0.0000 
     26 C4         31.1160   33.6860   86.8030 C.ar      1 SAH1002     0.0000 
     27 H          40.2655   34.7681   87.7660 H         1 SAH1002     0.0000 
     28 H          38.1678   35.1594   86.5327 H         1 SAH1002     0.0000 
     29 H          39.6021   35.6443   85.6120 H         1 SAH1002     0.0000 
     30 H          38.9800   38.0380   85.8814 H         1 SAH1002     0.0000 
     31 H          37.5710   37.5785   86.8527 H         1 SAH1002     0.0000 
     32 H          35.1224   37.3918   84.3703 H         1 SAH1002     0.0000 
     33 H          35.6545   37.5608   86.0521 H         1 SAH1002     0.0000 
     34 H          35.7535   35.0837   86.2598 H         1 SAH1002     0.0000 
     35 H          35.3056   35.1017   83.4084 H         1 SAH1002     0.0000 
     36 H          33.1113   34.8967   83.6400 H         1 SAH1002     0.0000 
     37 H          33.6694   33.6556   86.2871 H         1 SAH1002     0.0000 
     38 H          31.1679   36.1489   84.7903 H         1 SAH1002     0.0000 
     39 H          27.1060   33.7242   88.5596 H         1 SAH1002     0.0000 
     40 H          27.1657   34.2400   86.8403 H         1 SAH1002     0.0000 
     41 H          30.9222   31.1865   88.8867 H         1 SAH1002     0.0000 
     42 H          39.2023   36.9564   89.3868 H         1 SAH1002     0.0000 
     43 H          38.1704   35.7699   89.0495 H         1 SAH1002     0.0000 
     44 H          39.5466   35.4451   89.8156 H         1 SAH1002     0.0000 
     45 H          35.6428   32.9264   85.2584 H         1 SAH1002     0.0000 
     46 H          33.4254   32.2198   84.5758 H         1 SAH1002     0.0000 
@<TRIPOS>BOND
     1    2    1 1    
     2   42    1 1    
     3   43    1 1    
     4   44    1 1    
     5    3    2 1    
     6    6    2 1    
     7   27    2 1    
     8    4    3 1    
     9   28    3 1    
    10   29    3 1    
    11    5    4 1    
    12   30    4 1    
    13   31    4 1    
    14    9    5 1    
    15    7    6 ar   
    16    8    6 ar   
    17   10    9 1    
    18   32    9 1    
    19   33    9 1    
    20   11   10 1    
    21   12   10 1    
    22   34   10 1    
    23   16   11 1    
    24   13   12 1    
    25   14   12 1    
    26   35   12 1    
    27   45   13 1    
    28   15   14 1    
    29   16   14 1    
    30   36   14 1    
    31   46   15 1    
    32   17   16 1    
    33   37   16 1    
    34   18   17 1    
    35   26   17 1    
    36   19   18 2    
    37   38   18 1    
    38   20   19 1    
    39   21   20 ar   
    40   26   20 ar   
    41   22   21 1    
    42   23   21 ar   
    43   39   22 1    
    44   40   22 1    
    45   24   23 ar   
    46   25   24 ar   
    47   41   24 1    
    48   26   25 ar   
@<TRIPOS>SUBSTRUCTURE
     1 SAH1002     1 GROUP   
@<TRIPOS>SET

