#    Name: 3BJ7_3_CAVITY_N1_ALL.mol2
#    Modification time : Tue Mar 11 11:45:55 2014

@<TRIPOS>MOLECULE
3BJ7_3_CAVITY_N1_ALL.mol2
  100     0     6     0     0
SMALL
NO_CHARGES


@<TRIPOS>ATOM
      1 OG         36.7955   20.9273   46.0971 O.2       1 SER1        0.0000 
      2 O          37.9765   20.0135   45.9558 O.2       2 ALA2        0.0000 
      3 O          39.1576   19.0996   45.8145 O.2       2 ALA2        0.0000 
      4 CA         40.3387   18.1858   45.6731 C.3       5 GLY6        0.0000 
      5 CZ         35.8743   19.7445   46.0471 C.ar      4 PHE5        0.0000 
      6 CZ         37.0554   18.8307   45.9057 C.ar      4 PHE5        0.0000 
      7 DU         38.2365   17.9168   45.7644 H         6 CUB7        0.0000 
      8 CA         39.4176   17.0030   45.6231 C.3       5 GLY6        0.0000 
      9 CZ         36.1343   17.6479   45.8557 C.ar      4 PHE5        0.0000 
     10 DU         37.3154   16.7341   45.7144 H         6 CUB7        0.0000 
     11 CA         38.4965   15.8202   45.5730 C.3       5 GLY6        0.0000 
     12 CA         39.6775   14.9064   45.4317 C.3       5 GLY6        0.0000 
     13 CZ         35.2132   16.4651   45.8057 C.ar      4 PHE5        0.0000 
     14 CZ         36.3942   15.5513   45.6643 C.ar      4 PHE5        0.0000 
     15 DU         37.5753   14.6374   45.5230 H         6 CUB7        0.0000 
     16 CA         38.7564   13.7236   45.3816 C.3       5 GLY6        0.0000 
     17 O          39.9375   12.8098   45.2403 O.2       2 ALA2        0.0000 
     18 O          34.2920   15.2823   45.7556 O.2       2 ALA2        0.0000 
     19 N          35.4731   14.3685   45.6143 N.2       2 ALA2        0.0000 
     20 CA         37.8956   20.1397   44.4633 C.3       5 GLY6        0.0000 
     21 CA         39.0767   19.2259   44.3220 C.3       5 GLY6        0.0000 
     22 CA         40.2578   18.3120   44.1806 C.3       5 GLY6        0.0000 
     23 CZ         36.9745   18.9569   44.4133 C.ar      4 PHE5        0.0000 
     24 CZ         38.1555   18.0431   44.2719 C.ar      4 PHE5        0.0000 
     25 CA         39.3366   17.1292   44.1306 C.3       5 GLY6        0.0000 
     26 CA         40.5177   16.2154   43.9892 C.3       5 GLY6        0.0000 
     27 CZ         37.2344   16.8603   44.2219 C.ar      4 PHE5        0.0000 
     28 DU         38.4155   15.9464   44.0805 H         6 CUB7        0.0000 
     29 CA         39.5966   15.0326   43.9392 C.3       5 GLY6        0.0000 
     30 CZ         36.3133   15.6775   44.1718 C.ar      4 PHE5        0.0000 
     31 DU         37.4944   14.7636   44.0305 H         6 CUB7        0.0000 
     32 DU         38.6754   13.8498   43.8891 H         6 CUB7        0.0000 
     33 O          39.8565   12.9360   43.7478 O.2       2 ALA2        0.0000 
     34 CA         35.3921   14.4947   44.1218 C.3       5 GLY6        0.0000 
     35 CA         36.5732   13.5808   43.9804 C.3       5 GLY6        0.0000 
     36 CA         37.7543   12.6670   43.8391 C.3       5 GLY6        0.0000 
     37 OG         38.9354   11.7532   43.6978 O.2       1 SER1        0.0000 
     38 OG         35.6953   21.7149   47.7310 O.2       1 SER1        0.0000 
     39 O          36.8764   20.8011   47.5896 O.2       2 ALA2        0.0000 
     40 O          38.0575   19.8873   47.4483 O.2       2 ALA2        0.0000 
     41 CZ         35.9553   19.6183   47.5396 C.ar      4 PHE5        0.0000 
     42 O          37.1364   18.7045   47.3982 O.2       2 ALA2        0.0000 
     43 O          38.3175   17.7906   47.2569 O.2       2 ALA2        0.0000 
     44 DU         36.2152   17.5217   47.3482 H         6 CUB7        0.0000 
     45 DU         37.3963   16.6078   47.2068 H         6 CUB7        0.0000 
     46 CZ         40.0149   18.6906   39.7032 C.ar      4 PHE5        0.0000 
     47 CZ         37.9127   18.4217   39.7945 C.ar      4 PHE5        0.0000 
     48 CZ         39.0937   17.5078   39.6531 C.ar      4 PHE5        0.0000 
     49 N          40.2748   16.5940   39.5118 N.2       2 ALA2        0.0000 
     50 CA         41.4559   15.6802   39.3704 C.3       5 GLY6        0.0000 
     51 CZ         36.9915   17.2389   39.7444 C.ar      4 PHE5        0.0000 
     52 OG         38.1726   16.3250   39.6031 O.2       1 SER1        0.0000 
     53 N          39.3537   15.4112   39.4617 N.2       2 ALA2        0.0000 
     54 N          40.5348   14.4974   39.3204 N.2       2 ALA2        0.0000 
     55 CZ         41.7159   13.5836   39.1791 C.ar      4 PHE5        0.0000 
     56 OG         39.6137   13.3146   39.2703 O.2       1 SER1        0.0000 
     57 CZ         40.7947   12.4008   39.1290 C.ar      4 PHE5        0.0000 
     58 CZ         39.0128   17.6341   38.1606 C.ar      4 PHE5        0.0000 
     59 OG         38.0917   16.4513   38.1106 O.2       1 SER1        0.0000 
     60 N          39.2727   15.5374   37.9692 N.2       2 ALA2        0.0000 
     61 N          40.4538   14.6236   37.8279 N.2       2 ALA2        0.0000 
     62 OG         37.1705   15.2685   38.0605 O.2       1 SER1        0.0000 
     63 OG         38.3516   14.3546   37.9192 O.2       1 SER1        0.0000 
     64 N          39.5327   13.4408   37.7779 N.2       2 ALA2        0.0000 
     65 CA         38.9957   19.3521   42.8295 C.3       5 GLY6        0.0000 
     66 CA         40.1768   18.4382   42.6881 C.3       5 GLY6        0.0000 
     67 CA         41.3579   17.5244   42.5468 C.3       5 GLY6        0.0000 
     68 DU         39.2557   17.2554   42.6381 H         6 CUB7        0.0000 
     69 O          40.4368   16.3416   42.4968 O.2       2 ALA2        0.0000 
     70 O          41.6178   15.4278   42.3554 O.2       2 ALA2        0.0000 
     71 CZ         37.1534   16.9865   42.7294 C.ar      4 PHE5        0.0000 
     72 DU         38.3345   16.0726   42.5880 H         6 CUB7        0.0000 
     73 DU         39.5156   15.1588   42.4467 H         6 CUB7        0.0000 
     74 OD1        40.6967   14.2450   42.3054 O.3       3 ASP3        0.0000 
     75 CZ         36.2323   15.8037   42.6793 C.ar      4 PHE5        0.0000 
     76 OG         37.4134   14.8898   42.5380 O.2       1 SER1        0.0000 
     77 OG         38.5945   13.9760   42.3967 O.2       1 SER1        0.0000 
     78 OG         39.7756   13.0622   42.2553 O.2       1 SER1        0.0000 
     79 CZ         40.9567   12.1484   42.1140 C.ar      4 PHE5        0.0000 
     80 OG         36.4923   13.7070   42.4879 O.2       1 SER1        0.0000 
     81 OG         37.6734   12.7932   42.3466 O.2       1 SER1        0.0000 
     82 OG         38.8544   11.8794   42.2053 O.2       1 SER1        0.0000 
     83 CZ         38.9148   19.4783   41.3370 C.ar      4 PHE5        0.0000 
     84 CA         40.0958   18.5644   41.1957 C.3       5 GLY6        0.0000 
     85 CZ         37.9936   18.2955   41.2869 C.ar      4 PHE5        0.0000 
     86 DU         39.1747   17.3816   41.1456 H         6 CUB7        0.0000 
     87 O          40.3558   16.4678   41.0043 O.2       2 ALA2        0.0000 
     88 O          41.5369   15.5540   40.8629 O.2       2 ALA2        0.0000 
     89 CZ         37.0725   17.1127   41.2369 C.ar      4 PHE5        0.0000 
     90 OG         38.2536   16.1988   41.0956 O.2       1 SER1        0.0000 
     91 OG         39.4347   15.2850   40.9542 O.2       1 SER1        0.0000 
     92 DU         40.6157   14.3712   40.8129 H         6 CUB7        0.0000 
     93 O          41.7968   13.4574   40.6715 O.2       2 ALA2        0.0000 
     94 CZ         36.1514   15.9299   41.1868 C.ar      4 PHE5        0.0000 
     95 OG         39.6946   13.1884   40.7628 O.2       1 SER1        0.0000 
     96 CZ         40.8757   12.2746   40.6215 C.ar      4 PHE5        0.0000 
     97 OG         38.2706   14.4808   36.4267 O.2       1 SER1        0.0000 
     98 CA         39.4517   13.5670   36.2854 C.3       5 GLY6        0.0000 
     99 N          37.3495   13.2980   36.3767 N.2       2 ALA2        0.0000 
    100 CA         36.9574   20.6749   49.0821 C.3       5 GLY6        0.0000 
@<TRIPOS>BOND
@<TRIPOS>SUBSTRUCTURE
     1 SER1        1 GROUP   
     2 ALA2        2 GROUP   
     3 ASP3       74 GROUP   
     4 PHE5        5 GROUP   
     5 GLY6        4 GROUP   
     6 CUB7        7 GROUP   
@<TRIPOS>SET

