#    Name: 3bj7_COA_3_INTS_M
#    Modification time : Mon Mar 24 19:40:00 2014

@<TRIPOS>MOLECULE
3bj7_COA_3_INTS_M
   87     0     9     0     0
SMALL
NO_CHARGES


@<TRIPOS>ATOM
      1 CA         37.4915   23.7245   50.0635 C.3       3 GLC5        0.0000 
      2 CA         36.5110   23.3560   51.7990 C.3       9 GLL5        0.0000 
      3 CA         38.4720   24.0930   48.3280 C.3       6 GLP5        0.0000 
      4 CA         37.4060   19.3630   50.7545 C.3       3 GLC5        0.0000 
      5 CA         35.3310   19.7960   51.1490 C.3       9 GLL5        0.0000 
      6 CA         39.4810   18.9300   50.3600 C.3       6 GLP5        0.0000 
      7 NZ         30.2505   17.0430   48.0440 N.4       2 LYC4        0.0000 
      8 NZ         29.9440   18.4260   49.0920 N.4       8 LYL4        0.0000 
      9 NZ         30.5570   15.6600   46.9960 N.4       5 LYP4        0.0000 
     10 NZ         30.9010   16.9890   46.9315 N.4       2 LYC4        0.0000 
     11 NZ         31.2450   18.3180   46.8670 N.4       8 LYL4        0.0000 
     12 NZ         31.1755   19.1055   45.6710 N.4       2 LYC4        0.0000 
     13 NZ         31.7860   21.0340   44.5200 N.4       5 LYP4        0.0000 
     14 N          31.1755   19.1055   45.6710 N.am      1 SEC2        0.0000 
     15 N          31.2450   18.3180   46.8670 N.am      7 SEL2        0.0000 
     16 N          31.1060   19.8930   44.4750 N.am      4 SEP2        0.0000 
     17 N          31.8525   19.8345   46.2445 N.am      1 SEC2        0.0000 
     18 N          32.4600   21.3510   45.6220 N.am      4 SEP2        0.0000 
     19 NZ         31.8660   20.9445   46.9335 N.4       2 LYC4        0.0000 
     20 NZ         31.2720   20.5380   48.2450 N.4       8 LYL4        0.0000 
     21 N          31.8660   20.9445   46.9335 N.am      1 SEC2        0.0000 
     22 N          31.2720   20.5380   48.2450 N.am      7 SEL2        0.0000 
     23 CA         34.6930   19.5905   45.6840 C.3       3 GLC5        0.0000 
     24 CA         34.9710   19.8270   47.5040 C.3       9 GLL5        0.0000 
     25 CA         34.4150   19.3540   43.8640 C.3       6 GLP5        0.0000 
     26 N          39.3610   19.7620   48.4840 N.am      1 SEC2        0.0000 
     27 N          38.4640   20.8190   47.8130 N.am      7 SEL2        0.0000 
     28 N          40.2580   18.7050   49.1550 N.am      4 SEP2        0.0000 
     29 N          38.8645   21.9875   48.4570 N.am      1 SEC2        0.0000 
     30 N          39.2650   23.1560   49.1010 N.am      4 SEP2        0.0000 
     31 N          36.7580   22.7820   45.3360 N.am      1 SEC2        0.0000 
     32 N          36.5930   21.9980   46.6920 N.am      7 SEL2        0.0000 
     33 N          36.9230   23.5660   43.9800 N.am      4 SEP2        0.0000 
     34 N          35.5805   22.6050   46.1875 N.am      1 SEC2        0.0000 
     35 N          34.5680   23.2120   45.6830 N.am      4 SEP2        0.0000 
     36 N          38.8010   21.4995   44.8805 N.am      1 SEC2        0.0000 
     37 N          38.0200   20.2390   45.5640 N.am      7 SEL2        0.0000 
     38 N          39.5820   22.7600   44.1970 N.am      4 SEP2        0.0000 
     39 N          40.0545   21.4790   44.8275 N.am      1 SEC2        0.0000 
     40 N          40.5270   20.1980   45.4580 N.am      7 SEL2        0.0000 
     41 CA         38.4620   20.3880   42.9825 C.3       3 GLC5        0.0000 
     42 CA         38.1350   18.4170   42.9160 C.3       9 GLL5        0.0000 
     43 CA         38.7890   22.3590   43.0490 C.3       6 GLP5        0.0000 
     44 CA         36.4350   19.1920   42.7875 C.3       3 GLC5        0.0000 
     45 CA         34.7350   19.9670   42.6590 C.3       6 GLP5        0.0000 
     46 CA         35.8440   17.1690   41.4655 C.3       3 GLC5        0.0000 
     47 CA         37.7010   16.3300   41.4490 C.3       9 GLL5        0.0000 
     48 CA         33.9870   18.0080   41.4820 C.3       6 GLP5        0.0000 
     49 CA         38.7515   19.8520   40.0775 C.3       3 GLC5        0.0000 
     50 CA         39.3190   18.2240   40.7710 C.3       9 GLL5        0.0000 
     51 CA         38.1840   21.4800   39.3840 C.3       6 GLP5        0.0000 
     52 CA         41.2245   17.9955   39.6285 C.3       3 GLC5        0.0000 
     53 CA         43.1300   17.7670   38.4860 C.3       6 GLP5        0.0000 
     54 CA         40.9550   19.2590   41.6020 C.3       3 GLC5        0.0000 
     55 CA         42.5910   20.2940   42.4330 C.3       6 GLP5        0.0000 
     56 CA         41.6415   17.7750   42.8505 C.3       3 GLC5        0.0000 
     57 CA         40.0060   16.4850   42.6860 C.3       9 GLL5        0.0000 
     58 CA         43.2770   19.0650   43.0150 C.3       6 GLP5        0.0000 
     59 CA         41.1435   15.7230   44.1660 C.3       3 GLC5        0.0000 
     60 CA         42.2810   14.9610   45.6460 C.3       6 GLP5        0.0000 
     61 N          42.8580   16.9695   41.0210 N.am      1 SEC2        0.0000 
     62 N          41.9800   15.9870   41.2130 N.am      7 SEL2        0.0000 
     63 N          43.7360   17.9520   40.8290 N.am      4 SEP2        0.0000 
     64 CA         40.6715   11.6360   40.2850 C.3       3 GLC5        0.0000 
     65 CA         40.7560   13.6460   40.1680 C.3       9 GLL5        0.0000 
     66 CA         40.5870    9.6260   40.4020 C.3       6 GLP5        0.0000 
     67 CA         41.6405   13.8320   37.4045 C.3       3 GLC5        0.0000 
     68 CA         40.4060   14.4850   38.8870 C.3       9 GLL5        0.0000 
     69 CA         42.8750   13.1790   35.9220 C.3       6 GLP5        0.0000 
     70 N          38.0825   11.7470   38.1605 N.am      1 SEC2        0.0000 
     71 N          38.6500   12.7970   38.5840 N.am      7 SEL2        0.0000 
     72 N          37.5150   10.6970   37.7370 N.am      4 SEP2        0.0000 
     73 N          37.6650   12.8690   39.3185 N.am      1 SEC2        0.0000 
     74 N          36.6800   12.9410   40.0530 N.am      4 SEP2        0.0000 
     75 CA         38.6895   17.1300   36.0420 C.3       3 GLC5        0.0000 
     76 CA         38.0430   15.0880   36.1510 C.3       9 GLL5        0.0000 
     77 CA         39.3360   19.1720   35.9330 C.3       6 GLP5        0.0000 
     78 CA         36.3320   16.1140   36.4925 C.3       3 GLC5        0.0000 
     79 CA         34.6210   17.1400   36.8340 C.3       6 GLP5        0.0000 
     80 CA         40.0100   17.0880   32.7075 C.3       3 GLC5        0.0000 
     81 CA         38.7000   15.8770   33.4220 C.3       9 GLL5        0.0000 
     82 CA         41.3200   18.2990   31.9930 C.3       6 GLP5        0.0000 
     83 CA         39.0180   17.5245   34.6775 C.3       3 GLC5        0.0000 
     84 CA         38.7797   23.1388   51.6230 C.3       3 GLC5        0.0000 
     85 CA         40.7390   22.4870   50.9110 C.3       6 GLP5        0.0000 
     86 CA         42.5410   14.4253   39.2673 C.3       3 GLC5        0.0000 
     87 CA         44.5010   14.7850   39.0070 C.3       6 GLP5        0.0000 
@<TRIPOS>BOND
@<TRIPOS>SUBSTRUCTURE
     1 SEC2       14 GROUP        1 X    SEC  0     ROOT SEC X 2
     2 LYC4        7 GROUP        1 X    LYC  0     **** LYC X 4
     3 GLC5        1 GROUP        1 X    GLC  0     **** GLC X 6
     4 SEP2       16 GROUP        1 Y    SEP  0     ROOT SEP Y 9
     5 LYP4        9 GROUP        1 Y    LYP  0     **** LYP Y 11
     6 GLP5        3 GROUP        1 Y    GLP  0     **** GLP Y 13
     7 SEL2       15 GROUP        1 Z    SEL  0     ROOT SEL Z 16
     8 LYL4        8 GROUP        1 Z    LYL  0     **** LYL Z 18
     9 GLL5        2 GROUP        1 Z    GLL  0     **** GLL Z 20
@<TRIPOS>SET

