#    Name: 3bj7_COA_3_ligand
#    Modification time : Mon Mar 24 19:40:00 2014

@<TRIPOS>MOLECULE
3bj7_COA_3_ligand
   79    81     1     0     0
SMALL
NO_CHARGES


@<TRIPOS>ATOM
      1 N1A        37.4230   23.6090   54.1370 N.ar      1 COA402      0.0000 
      2 C2A        37.1410   22.2230   54.3800 C.ar      1 COA402      0.0000 
      3 N3A        36.5670   21.3730   53.4200 N.ar      1 COA402      0.0000 
      4 C4A        36.2840   21.9600   52.2000 C.ar      1 COA402      0.0000 
      5 C5A        36.5110   23.3560   51.7990 C.ar      1 COA402      0.0000 
      6 C6A        37.1300   24.2250   52.8710 C.ar      1 COA402      0.0000 
      7 N6A        37.3900   25.4820   52.6550 N.pl3     1 COA402      0.0000 
      8 N7A        36.1240   23.6030   50.5410 N.2       1 COA402      0.0000 
      9 C8A        35.6520   22.4360   50.0950 C.2       1 COA402      0.0000 
     10 N9A        35.7170   21.3840   51.0540 N.pl3     1 COA402      0.0000 
     11 C1B        35.3310   19.7960   51.1490 C.3       1 COA402      0.0000 
     12 C2B        33.8680   19.6590   51.0680 C.3       1 COA402      0.0000 
     13 O2B        33.2780   18.6730   51.8650 O.3       1 COA402      0.0000 
     14 C3B        33.5010   19.5590   49.6250 C.3       1 COA402      0.0000 
     15 O3B        32.6130   18.4280   49.0460 O.3       1 COA402      0.0000 
     16 P3B        31.2160   18.9380   48.3060 P.3       1 COA402      0.0000 
     17 O7A        29.9440   18.4260   49.0920 O.co2     1 COA402      0.0000 
     18 O8A        31.2450   18.3180   46.8670 O.co2     1 COA402      0.0000 
     19 O9A        31.2720   20.5380   48.2450 O.co2     1 COA402      0.0000 
     20 C4B        34.8810   19.2390   48.8470 C.3       1 COA402      0.0000 
     21 O4B        35.9500   19.3380   49.9400 O.3       1 COA402      0.0000 
     22 C5B        34.9710   19.8270   47.5040 C.3       1 COA402      0.0000 
     23 O5B        36.3780   19.4740   47.2280 O.3       1 COA402      0.0000 
     24 P1A        37.3630   20.7430   46.8350 P.3       1 COA402      0.0000 
     25 O1A        38.4640   20.8190   47.8130 O.co2     1 COA402      0.0000 
     26 O2A        36.5930   21.9980   46.6920 O.co2     1 COA402      0.0000 
     27 O3A        38.0200   20.2390   45.5640 O.3       1 COA402      0.0000 
     28 P2A        39.3350   19.4560   45.0980 P.3       1 COA402      0.0000 
     29 O4A        40.5270   20.1980   45.4580 O.co2     1 COA402      0.0000 
     30 O5A        39.3600   18.1090   45.7330 O.co2     1 COA402      0.0000 
     31 O6A        39.1060   19.2670   43.5000 O.3       1 COA402      0.0000 
     32 CBP        38.8040   17.3550   41.9250 C.3       1 COA402      0.0000 
     33 CCP        38.1350   18.4170   42.9160 C.3       1 COA402      0.0000 
     34 CDP        37.7010   16.3300   41.4490 C.3       1 COA402      0.0000 
     35 CEP        39.3190   18.2240   40.7710 C.3       1 COA402      0.0000 
     36 CAP        40.0060   16.4850   42.6860 C.3       1 COA402      0.0000 
     37 OAP        39.4940   15.7320   43.8370 O.3       1 COA402      0.0000 
     38 C9P        40.8750   15.5130   41.7940 C.2       1 COA402      0.0000 
     39 O9P        41.9800   15.9870   41.2130 O.2       1 COA402      0.0000 
     40 N8P        40.3530   14.3770   41.4120 N.am      1 COA402      0.0000 
     41 C7P        40.7560   13.6460   40.1680 C.3       1 COA402      0.0000 
     42 C6P        40.4060   14.4850   38.8870 C.3       1 COA402      0.0000 
     43 C5P        39.2260   13.8930   38.1330 C.2       1 COA402      0.0000 
     44 O5P        38.6500   12.7970   38.5840 O.2       1 COA402      0.0000 
     45 N4P        39.1830   14.2630   36.8170 N.am      1 COA402      0.0000 
     46 C3P        38.0430   15.0880   36.1510 C.3       1 COA402      0.0000 
     47 C2P        37.8740   14.7100   34.6840 C.3       1 COA402      0.0000 
     48 S1P        38.7000   15.8770   33.4220 S.3       1 COA402      0.0000 
     49 H          37.3785   21.8396   55.3197 H         1 COA402      0.0000 
     50 H          37.1692   25.8265   51.7425 H         1 COA402      0.0000 
     51 H          37.7865   25.9873   53.4214 H         1 COA402      0.0000 
     52 H          35.2821   22.2701   49.1913 H         1 COA402      0.0000 
     53 H          35.7646   19.4412   51.9977 H         1 COA402      0.0000 
     54 H          33.4547   20.6832   51.3845 H         1 COA402      0.0000 
     55 H          33.2004   20.4965   49.1991 H         1 COA402      0.0000 
     56 H          34.7443   18.0708   48.7159 H         1 COA402      0.0000 
     57 H          34.8533   20.8703   47.5433 H         1 COA402      0.0000 
     58 H          34.3287   19.3330   46.8351 H         1 COA402      0.0000 
     59 H          37.3957   18.9617   42.3125 H         1 COA402      0.0000 
     60 H          37.5825   17.8239   43.6580 H         1 COA402      0.0000 
     61 H          40.7123   17.2636   43.0756 H         1 COA402      0.0000 
     62 H          39.5973   13.8827   41.9597 H         1 COA402      0.0000 
     63 H          40.2323   12.6951   40.0950 H         1 COA402      0.0000 
     64 H          41.8283   13.4622   40.1613 H         1 COA402      0.0000 
     65 H          41.2860   14.5050   38.2463 H         1 COA402      0.0000 
     66 H          40.1754   15.5012   39.2023 H         1 COA402      0.0000 
     67 H          39.9429   14.0064   36.1437 H         1 COA402      0.0000 
     68 H          38.2889   16.1443   36.2328 H         1 COA402      0.0000 
     69 H          37.1180   14.8951   36.6896 H         1 COA402      0.0000 
     70 H          36.8526   14.7376   34.3245 H         1 COA402      0.0000 
     71 H          38.3362   13.7718   34.4025 H         1 COA402      0.0000 
     72 H          38.0762   15.6430   40.8267 H         1 COA402      0.0000 
     73 H          37.2948   15.8375   42.2187 H         1 COA402      0.0000 
     74 H          36.9538   16.7863   40.9658 H         1 COA402      0.0000 
     75 H          39.8398   19.0108   41.1023 H         1 COA402      0.0000 
     76 H          39.9209   17.7106   40.1594 H         1 COA402      0.0000 
     77 H          38.5704   18.5820   40.2129 H         1 COA402      0.0000 
     78 H          34.0127   18.0228   52.0583 H         1 COA402      0.0000 
     79 H          39.3509   16.4170   44.5513 H         1 COA402      0.0000 
@<TRIPOS>BOND
     1    2    1 ar   
     2    6    1 ar   
     3    3    2 ar   
     4   49    2 1    
     5    4    3 ar   
     6    5    4 ar   
     7   10    4 1    
     8    6    5 ar   
     9    8    5 1    
    10    7    6 1    
    11   50    7 1    
    12   51    7 1    
    13    9    8 2    
    14   10    9 1    
    15   52    9 1    
    16   11   10 1    
    17   12   11 1    
    18   21   11 1    
    19   53   11 1    
    20   13   12 1    
    21   14   12 1    
    22   54   12 1    
    23   78   13 1    
    24   15   14 1    
    25   20   14 1    
    26   55   14 1    
    27   16   15 1    
    28   17   16 ar   
    29   18   16 ar   
    30   19   16 ar   
    31   21   20 1    
    32   22   20 1    
    33   56   20 1    
    34   23   22 1    
    35   57   22 1    
    36   58   22 1    
    37   24   23 1    
    38   25   24 ar   
    39   26   24 ar   
    40   27   24 1    
    41   28   27 1    
    42   29   28 ar   
    43   30   28 ar   
    44   31   28 1    
    45   33   31 1    
    46   33   32 1    
    47   34   32 1    
    48   35   32 1    
    49   36   32 1    
    50   59   33 1    
    51   60   33 1    
    52   72   34 1    
    53   73   34 1    
    54   74   34 1    
    55   75   35 1    
    56   76   35 1    
    57   77   35 1    
    58   37   36 1    
    59   38   36 1    
    60   61   36 1    
    61   79   37 1    
    62   39   38 2    
    63   40   38 am   
    64   41   40 1    
    65   62   40 1    
    66   42   41 1    
    67   63   41 1    
    68   64   41 1    
    69   43   42 1    
    70   65   42 1    
    71   66   42 1    
    72   44   43 2    
    73   45   43 am   
    74   46   45 1    
    75   67   45 1    
    76   47   46 1    
    77   68   46 1    
    78   69   46 1    
    79   48   47 1    
    80   70   47 1    
    81   71   47 1    
@<TRIPOS>SUBSTRUCTURE
     1 COA402      1 GROUP   
@<TRIPOS>SET

