#    Name: 1ha2_SWF_1_INTS_M
#    Modification time : Tue Mar 25 05:19:26 2014

@<TRIPOS>MOLECULE
1ha2_SWF_1_INTS_M
   44     0     6     0     0
SMALL
NO_CHARGES


@<TRIPOS>ATOM
      1 CA         35.5665   13.3860    8.7265 C.3       2 GLC5        0.0000 
      2 CA         36.3320   14.2380   10.3120 C.3       6 GLL5        0.0000 
      3 CA         34.8010   12.5340    7.1410 C.3       4 GLP5        0.0000 
      4 CA         39.4765   14.2355   10.0870 C.3       2 GLC5        0.0000 
      5 CA         37.4980   14.9630    9.8910 C.3       6 GLL5        0.0000 
      6 CA         41.4550   13.5080   10.2830 C.3       4 GLP5        0.0000 
      7 CA         36.3825   17.6625    6.9895 C.3       2 GLC5        0.0000 
      8 CA         36.0950   16.5840    8.6680 C.3       6 GLL5        0.0000 
      9 CA         36.6700   18.7410    5.3110 C.3       4 GLP5        0.0000 
     10 CA         34.8575   14.2005    8.1105 C.3       2 GLC5        0.0000 
     11 CA         34.9140   15.8670    9.0800 C.3       6 GLL5        0.0000 
     12 CA         33.8665   16.4025   10.8590 C.3       2 GLC5        0.0000 
     13 CA         32.8190   16.9380   12.6380 C.3       4 GLP5        0.0000 
     14 N          33.8720   11.4890   10.7065 N.am      1 SEC2        0.0000 
     15 N          33.8380   12.9030   10.9990 N.am      5 SEL2        0.0000 
     16 N          33.9060   10.0750   10.4140 N.am      3 SEP2        0.0000 
     17 CA         31.6468   15.6572   11.4170 C.3       2 GLC5        0.0000 
     18 CA         31.0190   13.8500   10.0360 C.3       6 GLL5        0.0000 
     19 CA         31.6782   13.0643    6.8830 C.3       2 GLC5        0.0000 
     20 CA         30.6330   12.8810    8.9460 C.3       6 GLL5        0.0000 
     21 CA         32.9950   13.0870    5.4910 C.3       4 GLP5        0.0000 
     22 CA         29.8248   14.2058    6.1233 C.3       2 GLC5        0.0000 
     23 CA         30.0900   13.2020    7.6040 C.3       6 GLL5        0.0000 
     24 CA         29.7240   15.7250    5.1300 C.3       4 GLP5        0.0000 
     25 CA         29.5300   10.7577    5.3000 C.3       2 GLC5        0.0000 
     26 CA         29.7610   12.1710    6.6290 C.3       6 GLL5        0.0000 
     27 CA         29.2080   10.0320    3.8260 C.3       4 GLP5        0.0000 
     28 CA         31.4235   12.2852    6.1325 C.3       2 GLC5        0.0000 
     29 CA         29.9430   10.7960    6.9190 C.3       6 GLL5        0.0000 
     30 CA         32.3952   10.0245    9.0970 C.3       2 GLC5        0.0000 
     31 CA         30.4620   10.4420    8.2080 C.3       6 GLL5        0.0000 
     32 CA         34.1560    9.0980    9.4800 C.3       4 GLP5        0.0000 
     33 CA         34.0910   13.4748    8.5328 C.3       2 GLC5        0.0000 
     34 CA         33.6760   14.0020   10.2420 C.3       6 GLL5        0.0000 
     35 CA         33.1000   15.6767   11.2812 C.3       2 GLC5        0.0000 
     36 CA         35.0060   14.6680    9.9100 C.3       6 GLL5        0.0000 
     37 CA         37.3790   14.3082    8.1467 C.3       2 GLC5        0.0000 
     38 CA         37.8430   14.0160    6.1920 C.3       4 GLP5        0.0000 
     39 CA         38.2130   16.4002   10.9360 C.3       2 GLC5        0.0000 
     40 CA         38.9970   17.2560   12.3910 C.3       4 GLP5        0.0000 
     41 CA         37.2853   15.1855    7.5307 C.3       2 GLC5        0.0000 
     42 CA         37.3600   16.1260    9.0710 C.3       6 GLL5        0.0000 
     43 CA         35.2103   18.1768    8.7515 C.3       2 GLC5        0.0000 
     44 CA         34.9160   20.1280    8.6290 C.3       4 GLP5        0.0000 
@<TRIPOS>BOND
@<TRIPOS>SUBSTRUCTURE
     1 SEC2       14 GROUP        1 X    SEC  0     ROOT SEC X 2
     2 GLC5        1 GROUP        1 X    GLC  0     **** GLC X 6
     3 SEP2       16 GROUP        1 Y    SEP  0     ROOT SEP Y 9
     4 GLP5        3 GROUP        1 Y    GLP  0     **** GLP Y 13
     5 SEL2       15 GROUP        1 Z    SEL  0     ROOT SEL Z 16
     6 GLL5        2 GROUP        1 Z    GLL  0     **** GLL Z 20
@<TRIPOS>SET

