#    Name: 1ha2_SWF_1_ligand
#    Modification time : Tue Mar 25 05:19:26 2014

@<TRIPOS>MOLECULE
1ha2_SWF_1_ligand
   39    41     1     0     0
SMALL
NO_CHARGES


@<TRIPOS>ATOM
      1 C15        35.0060   14.6680    9.9100 C.ar      1 SWF3001     0.0000 
      2 C5         31.0190   13.8500   10.0360 C.3       1 SWF3001     0.0000 
      3 C4         29.9300   14.9030   10.3560 C.3       1 SWF3001     0.0000 
      4 C2         28.9650   14.3650   11.3650 C.2       1 SWF3001     0.0000 
      5 C1         29.4460   13.7280   12.6460 C.3       1 SWF3001     0.0000 
      6 C6         30.6330   12.8810    8.9460 C.ar      1 SWF3001     0.0000 
      7 C7         30.0900   13.2020    7.6040 C.ar      1 SWF3001     0.0000 
      8 C8         29.7610   12.1710    6.6290 C.ar      1 SWF3001     0.0000 
      9 C9         29.9430   10.7960    6.9190 C.ar      1 SWF3001     0.0000 
     10 C10        30.4620   10.4420    8.2080 C.ar      1 SWF3001     0.0000 
     11 C22        32.4480   15.7340    8.9390 C.2       1 SWF3001     0.0000 
     12 C11        30.8070   11.4600    9.2200 C.ar      1 SWF3001     0.0000 
     13 C12        32.4210   14.4960    9.7730 C.2       1 SWF3001     0.0000 
     14 C13        33.6760   14.0020   10.2420 C.2       1 SWF3001     0.0000 
     15 C16        36.3320   14.2380   10.3120 C.ar      1 SWF3001     0.0000 
     16 C17        37.4980   14.9630    9.8910 C.ar      1 SWF3001     0.0000 
     17 C18        37.3600   16.1260    9.0710 C.ar      1 SWF3001     0.0000 
     18 C19        36.0950   16.5840    8.6680 C.ar      1 SWF3001     0.0000 
     19 C20        34.9140   15.8670    9.0800 C.ar      1 SWF3001     0.0000 
     20 O21        33.6890   16.3340    8.6490 O.3       1 SWF3001     0.0000 
     21 O23        31.5210   16.3030    8.4460 O.2       1 SWF3001     0.0000 
     22 O3         27.6030   14.5150   11.0770 O.2       1 SWF3001     0.0000 
     23 O14        33.8380   12.9030   10.9990 O.3       1 SWF3001     0.0000 
     24 H          31.1511   13.2440   10.9810 H         1 SWF3001     0.0000 
     25 H          29.4126   15.1515    9.4313 H         1 SWF3001     0.0000 
     26 H          30.4201   15.7962   10.7387 H         1 SWF3001     0.0000 
     27 H          29.9456   14.1827    7.3655 H         1 SWF3001     0.0000 
     28 H          29.3918   12.4630    5.7206 H         1 SWF3001     0.0000 
     29 H          29.7179   10.0857    6.2481 H         1 SWF3001     0.0000 
     30 H          30.6039    9.4594    8.4507 H         1 SWF3001     0.0000 
     31 H          31.1688   11.1588   10.1141 H         1 SWF3001     0.0000 
     32 H          36.4301   13.4138   10.8981 H         1 SWF3001     0.0000 
     33 H          38.4187   14.6475   10.1770 H         1 SWF3001     0.0000 
     34 H          38.2073   16.6277    8.7773 H         1 SWF3001     0.0000 
     35 H          35.9952   17.4123    8.0907 H         1 SWF3001     0.0000 
     36 H          30.0244   12.9314   12.4703 H         1 SWF3001     0.0000 
     37 H          29.9841   14.3648   13.1982 H         1 SWF3001     0.0000 
     38 H          28.6846   13.4176   13.2151 H         1 SWF3001     0.0000 
     39 H          33.6241   13.1968   11.9306 H         1 SWF3001     0.0000 
@<TRIPOS>BOND
     1   14    1 1    
     2   15    1 ar   
     3   19    1 ar   
     4    3    2 1    
     5    6    2 1    
     6   13    2 1    
     7   24    2 1    
     8    4    3 1    
     9   25    3 1    
    10   26    3 1    
    11    5    4 1    
    12   22    4 2    
    13   36    5 1    
    14   37    5 1    
    15   38    5 1    
    16    7    6 ar   
    17   12    6 ar   
    18    8    7 ar   
    19   27    7 1    
    20    9    8 ar   
    21   28    8 1    
    22   10    9 ar   
    23   29    9 1    
    24   12   10 ar   
    25   30   10 1    
    26   13   11 1    
    27   20   11 1    
    28   21   11 2    
    29   31   12 1    
    30   14   13 2    
    31   23   14 1    
    32   16   15 ar   
    33   32   15 1    
    34   17   16 ar   
    35   33   16 1    
    36   18   17 ar   
    37   34   17 1    
    38   19   18 ar   
    39   35   18 1    
    40   20   19 1    
    41   39   23 1    
@<TRIPOS>SUBSTRUCTURE
     1 SWF3001     1 GROUP   
@<TRIPOS>SET

