#    Name: 3hj3_CB3_3_INTS_M
#    Modification time : Tue Mar 25 14:21:20 2014

@<TRIPOS>MOLECULE
3hj3_CB3_3_INTS_M
   60     0     9     0     0
SMALL
NO_CHARGES


@<TRIPOS>ATOM
      1 O          36.9090    0.9975   25.7105 O.2       1 ALC1        0.0000 
      2 O          36.1600    0.8880   24.3070 O.2       7 ALL1        0.0000 
      3 O          37.6580    1.1070   27.1140 O.2       4 ALP1        0.0000 
      4 O          36.7370    0.1315   26.4765 O.2       1 ALC1        0.0000 
      5 O          35.8160   -0.8440   25.8390 O.2       7 ALL1        0.0000 
      6 O          35.3675   -1.9685   24.7715 O.2       1 ALC1        0.0000 
      7 O          34.9190   -3.0930   23.7040 O.2       4 ALP1        0.0000 
      8 O          35.8765   -2.0180   26.2075 O.2       1 ALC1        0.0000 
      9 O          35.9370   -3.1920   26.5760 O.2       4 ALP1        0.0000 
     10 CA         32.7685    5.8405   19.4370 C.3       3 GLC5        0.0000 
     11 CA         34.2140    4.3130   20.1520 C.3       9 GLL5        0.0000 
     12 CA         31.3230    7.3680   18.7220 C.3       6 GLP5        0.0000 
     13 CA         35.0175    5.2200   18.6375 C.3       3 GLC5        0.0000 
     14 CA         35.8210    6.1270   17.1230 C.3       6 GLP5        0.0000 
     15 CA         34.3105    2.5955   19.0690 C.3       3 GLC5        0.0000 
     16 CA         34.4070    0.8780   17.9860 C.3       6 GLP5        0.0000 
     17 CA         29.1400    3.6725   24.6180 C.3       3 GLC5        0.0000 
     18 CA         30.0400    5.0810   23.2140 C.3       9 GLL5        0.0000 
     19 CA         28.2400    2.2640   26.0220 C.3       6 GLP5        0.0000 
     20 CA         26.1760    5.7955   22.5655 C.3       3 GLC5        0.0000 
     21 CA         26.6120    6.4520   24.4420 C.3       9 GLL5        0.0000 
     22 CA         25.7400    5.1390   20.6890 C.3       6 GLP5        0.0000 
     23 CA         28.7655    8.7570   22.9860 C.3       3 GLC5        0.0000 
     24 CA         27.3900    8.8700   24.6770 C.3       9 GLL5        0.0000 
     25 CA         30.1410    8.6440   21.2950 C.3       6 GLP5        0.0000 
     26 N          26.2750   10.6545   21.4460 N.am      2 SEC2        0.0000 
     27 N          26.5130    9.9230   22.7240 N.am      8 SEL2        0.0000 
     28 N          26.0370   11.3860   20.1680 N.am      5 SEP2        0.0000 
     29 CA         31.7485    5.7255   18.6770 C.3       3 GLC5        0.0000 
     30 CA         32.1740    4.0830   18.6320 C.3       9 GLL5        0.0000 
     31 CA         33.9975    5.1050   17.8775 C.3       3 GLC5        0.0000 
     32 CA         29.4520    3.7505   18.5260 C.3       3 GLC5        0.0000 
     33 CA         31.3770    2.7750   18.5160 C.3       9 GLL5        0.0000 
     34 CA         27.5270    4.7260   18.5360 C.3       6 GLP5        0.0000 
     35 CA         29.8590    0.6645   19.7915 C.3       3 GLC5        0.0000 
     36 CA         30.7280    1.7400   18.4300 C.3       9 GLL5        0.0000 
     37 CA         28.9900   -0.4110   21.1530 C.3       6 GLP5        0.0000 
     38 CA         28.8410    2.0315   18.4785 C.3       3 GLC5        0.0000 
     39 CA         26.9540    2.3230   18.5270 C.3       6 GLP5        0.0000 
     40 CA         34.9517    0.0870   22.0890 C.3       3 GLC5        0.0000 
     41 CA         34.4220    1.4720   22.7590 C.3       9 GLL5        0.0000 
     42 CA         34.8330   -1.3980   21.1550 C.3       6 GLP5        0.0000 
     43 CA         34.7767    1.4283   20.2365 C.3       3 GLC5        0.0000 
     44 CA         33.9370    2.2980   21.7230 C.3       9 GLL5        0.0000 
     45 CA         35.2080    0.0400   19.0040 C.3       6 GLP5        0.0000 
     46 CA         37.5904    2.1775   21.6367 C.3       3 GLC5        0.0000 
     47 CA         36.0580    3.5290   21.7340 C.3       9 GLL5        0.0000 
     48 CA         39.1720    1.9620   20.5040 C.3       6 GLP5        0.0000 
     49 CA         35.6524    3.6295   24.2398 C.3       3 GLC5        0.0000 
     50 CA         36.5390    2.6990   22.7700 C.3       9 GLL5        0.0000 
     51 CA         35.2960    4.8660   25.7100 C.3       6 GLP5        0.0000 
     52 CA         29.9718    6.7680   21.9370 C.3       3 GLC5        0.0000 
     53 CA         31.2420    5.8993   19.8630 C.3       3 GLC5        0.0000 
     54 CA         30.4600    4.4000   20.9050 C.3       9 GLL5        0.0000 
     55 CA         31.7377    6.6258   22.0030 C.3       3 GLC5        0.0000 
     56 CA         32.3420    4.8170   22.4100 C.3       9 GLL5        0.0000 
     57 CA         31.5870    8.2810   21.0710 C.3       6 GLP5        0.0000 
     58 CA         32.7802    4.5963   24.5980 C.3       3 GLC5        0.0000 
     59 CA         33.6720    4.2220   26.2610 C.3       6 GLP5        0.0000 
     60 CA         32.8294    1.7313   18.2440 C.3       3 GLC5        0.0000 
@<TRIPOS>BOND
@<TRIPOS>SUBSTRUCTURE
     1 ALC1        1 GROUP        1 X    ALC  0     ROOT ALC X 1
     2 SEC2       26 GROUP        1 X    SEC  0     **** SEC X 2
     3 GLC5       10 GROUP        1 X    GLC  0     **** GLC X 6
     4 ALP1        3 GROUP        1 Y    ALP  0     ROOT ALP Y 8
     5 SEP2       28 GROUP        1 Y    SEP  0     **** SEP Y 9
     6 GLP5       12 GROUP        1 Y    GLP  0     **** GLP Y 13
     7 ALL1        2 GROUP        1 Z    ALL  0     ROOT ALL Z 15
     8 SEL2       27 GROUP        1 Z    SEL  0     **** SEL Z 16
     9 GLL5       11 GROUP        1 Z    GLL  0     **** GLL Z 20
@<TRIPOS>SET

