#    Name: 3hj3_CB3_3_ligand
#    Modification time : Tue Mar 25 14:21:20 2014

@<TRIPOS>MOLECULE
3hj3_CB3_3_ligand
   55    57     1     0     0
SMALL
NO_CHARGES


@<TRIPOS>ATOM
      1 N1         36.1600    0.8880   24.3070 N.pl3     1 CB3608      0.0000 
      2 C2         35.3660   -0.0890   24.8280 C.2       1 CB3608      0.0000 
      3 NA2        35.8160   -0.8440   25.8390 N.pl3     1 CB3608      0.0000 
      4 N3         34.1160   -0.2960   24.3310 N.2       1 CB3608      0.0000 
      5 C4         33.6300    0.4580   23.3120 C.2       1 CB3608      0.0000 
      6 O4         32.3790    0.2120   22.8210 O.2       1 CB3608      0.0000 
      7 C4A        34.4220    1.4720   22.7590 C.ar      1 CB3608      0.0000 
      8 C5         33.9370    2.2980   21.7230 C.ar      1 CB3608      0.0000 
      9 C6         34.7540    3.3350   21.2150 C.ar      1 CB3608      0.0000 
     10 C7         36.0580    3.5290   21.7340 C.ar      1 CB3608      0.0000 
     11 C8         36.5390    2.6990   22.7700 C.ar      1 CB3608      0.0000 
     12 C8A        35.7190    1.6720   23.2870 C.ar      1 CB3608      0.0000 
     13 C9         34.2140    4.3130   20.1520 C.3       1 CB3608      0.0000 
     14 N10        32.7190    4.2600   20.0170 N.pl3     1 CB3608      0.0000 
     15 C11        30.0400    5.0810   23.2140 C.ar      1 CB3608      0.0000 
     16 C12        29.5650    4.7030   21.9440 C.ar      1 CB3608      0.0000 
     17 C13        30.4600    4.4000   20.9050 C.ar      1 CB3608      0.0000 
     18 C14        31.8620    4.4610   21.1030 C.ar      1 CB3608      0.0000 
     19 C15        32.3420    4.8170   22.4100 C.ar      1 CB3608      0.0000 
     20 C16        31.4350    5.1240   23.4600 C.ar      1 CB3608      0.0000 
     21 C          29.0170    5.6050   24.2580 C.2       1 CB3608      0.0000 
     22 O          29.3190    5.7330   25.4500 O.2       1 CB3608      0.0000 
     23 N          27.8040    5.9180   23.7190 N.am      1 CB3608      0.0000 
     24 CA         26.6120    6.4520   24.4420 C.3       1 CB3608      0.0000 
     25 CB         26.9650    7.5910   25.4190 C.3       1 CB3608      0.0000 
     26 CG         27.3900    8.8700   24.6770 C.3       1 CB3608      0.0000 
     27 CD         26.2350    9.4850   23.8640 C.2       1 CB3608      0.0000 
     28 OE1        26.5130    9.9230   22.7240 O.co2     1 CB3608      0.0000 
     29 OE2        25.1040    9.5100   24.4030 O.co2     1 CB3608      0.0000 
     30 CT         25.8360    5.3250   25.1510 C.2       1 CB3608      0.0000 
     31 O1         25.9530    5.2330   26.4010 O.co2     1 CB3608      0.0000 
     32 O2         25.1290    4.5860   24.4190 O.co2     1 CB3608      0.0000 
     33 CP1        32.1740    4.0830   18.6320 C.3       1 CB3608      0.0000 
     34 CP2        31.3770    2.7750   18.5160 C.1       1 CB3608      0.0000 
     35 CP3        30.7280    1.7400   18.4300 C.1       1 CB3608      0.0000 
     36 H          37.1168    1.0355   24.6957 H         1 CB3608      0.0000 
     37 H          36.4539   -0.4009   26.4690 H         1 CB3608      0.0000 
     38 H          35.4737   -1.7830   25.8731 H         1 CB3608      0.0000 
     39 H          33.0044    2.1498   21.3421 H         1 CB3608      0.0000 
     40 H          36.6494    4.2711   21.3566 H         1 CB3608      0.0000 
     41 H          37.4774    2.8408   23.1446 H         1 CB3608      0.0000 
     42 H          34.6850    4.0706   19.1893 H         1 CB3608      0.0000 
     43 H          34.5286    5.3293   20.4268 H         1 CB3608      0.0000 
     44 H          28.5522    4.6486   21.7767 H         1 CB3608      0.0000 
     45 H          30.0965    4.1280   19.9805 H         1 CB3608      0.0000 
     46 H          33.3488    4.8478   22.5793 H         1 CB3608      0.0000 
     47 H          31.7860    5.3724   24.3802 H         1 CB3608      0.0000 
     48 H          27.6412    5.7839   22.6722 H         1 CB3608      0.0000 
     49 H          25.9162    6.8828   23.6886 H         1 CB3608      0.0000 
     50 H          27.7808    7.2648   26.0648 H         1 CB3608      0.0000 
     51 H          26.0949    7.8098   26.0386 H         1 CB3608      0.0000 
     52 H          28.2140    8.6327   24.0001 H         1 CB3608      0.0000 
     53 H          27.7426    9.6044   25.4050 H         1 CB3608      0.0000 
     54 H          32.9913    4.0578   17.9081 H         1 CB3608      0.0000 
     55 H          31.5143    4.9159   18.3796 H         1 CB3608      0.0000 
@<TRIPOS>BOND
     1    2    1 1    
     2   12    1 1    
     3   36    1 1    
     4    3    2 1    
     5    4    2 2    
     6   37    3 1    
     7   38    3 1    
     8    5    4 1    
     9    6    5 2    
    10    7    5 1    
    11    8    7 ar   
    12   12    7 ar   
    13    9    8 ar   
    14   39    8 1    
    15   10    9 ar   
    16   13    9 1    
    17   11   10 ar   
    18   40   10 1    
    19   12   11 ar   
    20   41   11 1    
    21   14   13 1    
    22   42   13 1    
    23   43   13 1    
    24   18   14 1    
    25   33   14 1    
    26   16   15 ar   
    27   20   15 ar   
    28   21   15 1    
    29   17   16 ar   
    30   44   16 1    
    31   18   17 ar   
    32   45   17 1    
    33   19   18 ar   
    34   20   19 ar   
    35   46   19 1    
    36   47   20 1    
    37   22   21 2    
    38   23   21 am   
    39   24   23 1    
    40   48   23 1    
    41   25   24 1    
    42   30   24 1    
    43   49   24 1    
    44   26   25 1    
    45   50   25 1    
    46   51   25 1    
    47   27   26 1    
    48   52   26 1    
    49   53   26 1    
    50   28   27 ar   
    51   29   27 ar   
    52   31   30 ar   
    53   32   30 ar   
    54   34   33 1    
    55   54   33 1    
    56   55   33 1    
    57   35   34 3    
@<TRIPOS>SUBSTRUCTURE
     1 CB3608      1 GROUP   
@<TRIPOS>SET

