#    Name: 2b1z_17M_2_INTS_M
#    Modification time : Mon Mar 24 19:48:51 2014

@<TRIPOS>MOLECULE
2b1z_17M_2_INTS_M
   56     0     9     0     0
SMALL
NO_CHARGES


@<TRIPOS>ATOM
      1 CA         -4.3140   -2.5130   18.9445 C.3       3 GLC5        0.0000 
      2 CA         -6.0900   -3.4960   18.6430 C.3       9 GLL5        0.0000 
      3 CA         -2.5380   -1.5300   19.2460 C.3       6 GLP5        0.0000 
      4 CA         -7.3650   -2.4750   17.2900 C.3       3 GLC5        0.0000 
      5 CA         -8.6400   -1.4540   15.9370 C.3       6 GLP5        0.0000 
      6 CA         -9.2020   -5.3185   19.5820 C.3       3 GLC5        0.0000 
      7 CA         -7.0930   -5.2040   20.2680 C.3       9 GLL5        0.0000 
      8 CA        -11.3110   -5.4330   18.8960 C.3       6 GLP5        0.0000 
      9 CA         -5.5060   -2.5865   24.0610 C.3       3 GLC5        0.0000 
     10 CA         -4.5290   -4.3190   23.7610 C.3       9 GLL5        0.0000 
     11 CA         -6.4830   -0.8540   24.3610 C.3       6 GLP5        0.0000 
     12 CA         -4.4565   -4.9960   26.5900 C.3       3 GLC5        0.0000 
     13 CA         -3.7540   -4.0690   24.8960 C.3       9 GLL5        0.0000 
     14 CA         -5.1590   -5.9230   28.2840 C.3       6 GLP5        0.0000 
     15 CA         -4.9770   -2.4275   25.3770 C.3       3 GLC5        0.0000 
     16 CA         -6.2000   -0.7860   25.8580 C.3       6 GLP5        0.0000 
     17 N          -0.8745   -5.1210   26.8030 N.am      2 SEC2        0.0000 
     18 N          -1.5950   -4.0660   25.9310 N.am      8 SEL2        0.0000 
     19 N          -0.1540   -6.1760   27.6750 N.am      5 SEP2        0.0000 
     20 O          -2.2480   -3.4075   26.7400 O.2       1 ALC1        0.0000 
     21 O          -1.5950   -4.0660   25.9310 O.2       7 ALL1        0.0000 
     22 O          -2.9010   -2.7490   27.5490 O.2       4 ALP1        0.0000 
     23 CA         -0.1845   -5.9335   23.8730 C.3       3 GLC5        0.0000 
     24 CA         -1.7930   -4.7250   23.6440 C.3       9 GLL5        0.0000 
     25 CA          1.4240   -7.1420   24.1020 C.3       6 GLP5        0.0000 
     26 CA         -0.5860   -4.7915   20.2545 C.3       3 GLC5        0.0000 
     27 CA         -2.0000   -5.4060   21.3460 C.3       9 GLL5        0.0000 
     28 CA          0.8280   -4.1770   19.1630 C.3       6 GLP5        0.0000 
     29 CA         -1.7715   -5.0995   18.5915 C.3       3 GLC5        0.0000 
     30 CA         -2.7830   -5.6420   20.2220 C.3       9 GLL5        0.0000 
     31 CA         -0.7600   -4.5570   16.9610 C.3       6 GLP5        0.0000 
     32 CA         -1.5715   -7.3275   19.4790 C.3       3 GLC5        0.0000 
     33 CA         -0.3600   -9.0130   18.7360 C.3       6 GLP5        0.0000 
     34 CA         -2.6045   -5.1010   17.2955 C.3       3 GLC5        0.0000 
     35 CA         -4.4490   -5.6450   17.6300 C.3       9 GLL5        0.0000 
     36 CA         -9.6650   -5.1510   17.9950 C.3       3 GLC5        0.0000 
     37 CA         -8.0190   -4.8690   17.0940 C.3       9 GLL5        0.0000 
     38 CA         -8.7580   -3.5910   16.0490 C.3       3 GLC5        0.0000 
     39 CA         -9.4970   -2.3130   15.0040 C.3       6 GLP5        0.0000 
     40 CA         -7.7063   -5.9207   22.1260 C.3       3 GLC5        0.0000 
     41 CA         -8.7200   -6.8620   23.3590 C.3       6 GLP5        0.0000 
     42 CA         -3.4857   -2.2010   23.8367 C.3       3 GLC5        0.0000 
     43 CA         -2.8300   -0.2080   23.3450 C.3       6 GLP5        0.0000 
     44 CA         -1.4515   -2.9817   23.3077 C.3       3 GLC5        0.0000 
     45 CA         -2.3710   -4.2790   24.8320 C.3       9 GLL5        0.0000 
     46 CA         -0.5710   -1.2290   23.2340 C.3       6 GLP5        0.0000 
     47 CA         -1.2035   -6.8208   22.2722 C.3       3 GLC5        0.0000 
     48 CA         -2.5820   -4.9670   22.5250 C.3       9 GLL5        0.0000 
     49 CA         -0.1160   -8.4550   22.6090 C.3       6 GLP5        0.0000 
     50 CA         -2.9061   -3.4998   19.8845 C.3       3 GLC5        0.0000 
     51 CA         -3.6440   -6.9902   16.2667 C.3       3 GLC5        0.0000 
     52 CA         -2.2000   -8.1970   15.3250 C.3       6 GLP5        0.0000 
     53 CA         -4.4070   -4.8297   15.6277 C.3       3 GLC5        0.0000 
     54 CA         -3.7260   -3.8760   14.0470 C.3       6 GLP5        0.0000 
     55 CA         -7.9415   -5.9977   16.0422 C.3       3 GLC5        0.0000 
     56 CA         -8.7070   -6.6510   14.9060 C.3       6 GLP5        0.0000 
@<TRIPOS>BOND
@<TRIPOS>SUBSTRUCTURE
     1 ALC1       20 GROUP        1 X    ALC  0     ROOT ALC X 1
     2 SEC2       17 GROUP        1 X    SEC  0     **** SEC X 2
     3 GLC5        1 GROUP        1 X    GLC  0     **** GLC X 6
     4 ALP1       22 GROUP        1 Y    ALP  0     ROOT ALP Y 8
     5 SEP2       19 GROUP        1 Y    SEP  0     **** SEP Y 9
     6 GLP5        3 GROUP        1 Y    GLP  0     **** GLP Y 13
     7 ALL1       21 GROUP        1 Z    ALL  0     ROOT ALL Z 15
     8 SEL2       18 GROUP        1 Z    SEL  0     **** SEL Z 16
     9 GLL5        2 GROUP        1 Z    GLL  0     **** GLL Z 20
@<TRIPOS>SET

