#    Name: 2b1z_17M_2_ligand
#    Modification time : Mon Mar 24 19:48:51 2014

@<TRIPOS>MOLECULE
2b1z_17M_2_ligand
   43    46     1     0     0
SMALL
NO_CHARGES


@<TRIPOS>ATOM
      1 CAR        -6.0900   -3.4960   18.6430 C.3       1 17M202      0.0000 
      2 CAB        -6.3270   -4.9910   18.9550 C.3       1 17M202      0.0000 
      3 CAP        -7.0930   -5.2040   20.2680 C.3       1 17M202      0.0000 
      4 CAJ        -6.2920   -4.7550   21.5180 C.3       1 17M202      0.0000 
      5 CAF        -4.7720   -4.9890   21.4440 C.ar      1 17M202      0.0000 
      6 CAG        -3.9580   -4.7590   22.5710 C.ar      1 17M202      0.0000 
      7 CAK        -4.5290   -4.3190   23.7610 C.ar      1 17M202      0.0000 
      8 CAN        -3.7540   -4.0690   24.8960 C.ar      1 17M202      0.0000 
      9 CAO        -2.3710   -4.2790   24.8320 C.ar      1 17M202      0.0000 
     10 OAT        -1.5950   -4.0660   25.9310 O.3       1 17M202      0.0000 
     11 CAL        -1.7930   -4.7250   23.6440 C.ar      1 17M202      0.0000 
     12 CAH        -2.5820   -4.9670   22.5250 C.ar      1 17M202      0.0000 
     13 CAM        -2.0000   -5.4060   21.3460 C.ar      1 17M202      0.0000 
     14 CAI        -2.7830   -5.6420   20.2220 C.ar      1 17M202      0.0000 
     15 CAE        -4.1570   -5.4150   20.2620 C.ar      1 17M202      0.0000 
     16 CAD        -5.0370   -5.7670   19.0360 C.3       1 17M202      0.0000 
     17 CAQ        -4.4490   -5.6450   17.6300 C.3       1 17M202      0.0000 
     18 CAC        -5.7270   -5.9220   16.7870 C.3       1 17M202      0.0000 
     19 CAA        -6.9390   -5.7180   17.7390 C.3       1 17M202      0.0000 
     20 CAS        -8.0190   -4.8690   17.0940 C.3       1 17M202      0.0000 
     21 OAU        -7.4960   -7.0080   18.0980 O.3       1 17M202      0.0000 
     22 H          -7.3392   -6.2658   20.3738 H         1 17M202      0.0000 
     23 H          -8.0314   -4.6406   20.2337 H         1 17M202      0.0000 
     24 H          -6.6927   -5.2873   22.3989 H         1 17M202      0.0000 
     25 H          -6.4799   -3.6795   21.6851 H         1 17M202      0.0000 
     26 H          -5.5558   -4.1722   23.8091 H         1 17M202      0.0000 
     27 H          -4.1863   -3.7393   25.7569 H         1 17M202      0.0000 
     28 H          -0.7746   -4.8757   23.5969 H         1 17M202      0.0000 
     29 H          -0.9810   -5.5588   21.3008 H         1 17M202      0.0000 
     30 H          -2.3467   -5.9863   19.3547 H         1 17M202      0.0000 
     31 H          -5.3543   -6.8448   19.1384 H         1 17M202      0.0000 
     32 H          -3.7544   -6.4026   17.4603 H         1 17M202      0.0000 
     33 H          -4.1264   -4.6701   17.4550 H         1 17M202      0.0000 
     34 H          -5.7121   -6.9303   16.4443 H         1 17M202      0.0000 
     35 H          -5.7822   -5.2194   15.9884 H         1 17M202      0.0000 
     36 H          -5.5613   -3.0457   19.3625 H         1 17M202      0.0000 
     37 H          -5.5874   -3.3702   17.7877 H         1 17M202      0.0000 
     38 H          -6.9504   -2.9943   18.5538 H         1 17M202      0.0000 
     39 H          -7.6603   -3.9923   16.7734 H         1 17M202      0.0000 
     40 H          -8.4274   -5.3253   16.3034 H         1 17M202      0.0000 
     41 H          -8.7622   -4.6661   17.7316 H         1 17M202      0.0000 
     42 H          -1.9184   -3.1999   26.3121 H         1 17M202      0.0000 
     43 H          -8.4816   -6.8539   18.1676 H         1 17M202      0.0000 
@<TRIPOS>BOND
     1    2    1 1    
     2   36    1 1    
     3   37    1 1    
     4   38    1 1    
     5    3    2 1    
     6   16    2 1    
     7   19    2 1    
     8    4    3 1    
     9   22    3 1    
    10   23    3 1    
    11    5    4 1    
    12   24    4 1    
    13   25    4 1    
    14    6    5 ar   
    15   15    5 ar   
    16    7    6 ar   
    17   12    6 ar   
    18    8    7 ar   
    19   26    7 1    
    20    9    8 ar   
    21   27    8 1    
    22   10    9 1    
    23   11    9 ar   
    24   42   10 1    
    25   12   11 ar   
    26   28   11 1    
    27   13   12 ar   
    28   14   13 ar   
    29   29   13 1    
    30   15   14 ar   
    31   30   14 1    
    32   16   15 1    
    33   17   16 1    
    34   31   16 1    
    35   18   17 1    
    36   32   17 1    
    37   33   17 1    
    38   19   18 1    
    39   34   18 1    
    40   35   18 1    
    41   20   19 1    
    42   21   19 1    
    43   39   20 1    
    44   40   20 1    
    45   41   20 1    
    46   43   21 1    
@<TRIPOS>SUBSTRUCTURE
     1 17M202      1 GROUP   
@<TRIPOS>SET

