#    Name: 2he5_NDP_2_INTS_M
#    Modification time : Tue Mar 25 15:57:07 2014

@<TRIPOS>MOLECULE
2he5_NDP_2_INTS_M
   74     0     9     0     0
SMALL
NO_CHARGES


@<TRIPOS>ATOM
      1 N         -24.1340  -42.7725  -47.5855 N.am      2 SEC2        0.0000 
      2 N         -22.9940  -43.3510  -46.6380 N.am      8 SEL2        0.0000 
      3 N         -25.2740  -42.1940  -48.5330 N.am      5 SEP2        0.0000 
      4 CA        -21.0465  -50.3190  -45.4710 C.3       3 GLC5        0.0000 
      5 CA        -22.0870  -48.8580  -44.7650 C.3       9 GLL5        0.0000 
      6 CA        -20.0060  -51.7800  -46.1770 C.3       6 GLP5        0.0000 
      7 CA        -22.1590  -51.1685  -45.9780 C.3       3 GLC5        0.0000 
      8 CA        -23.1620  -49.9390  -44.9940 C.3       9 GLL5        0.0000 
      9 CA        -21.1560  -52.3980  -46.9620 C.3       6 GLP5        0.0000 
     10 N         -24.0830  -51.0650  -50.6310 N.am      2 SEC2        0.0000 
     11 N         -24.4350  -50.2940  -49.2080 N.am      8 SEL2        0.0000 
     12 N         -23.7310  -51.8360  -52.0540 N.am      5 SEP2        0.0000 
     13 O         -28.0590  -52.4130  -51.4260 O.2       1 ALC1        0.0000 
     14 O         -26.8140  -51.3580  -50.8020 O.2       7 ALL1        0.0000 
     15 O         -29.3040  -53.4680  -52.0500 O.2       4 ALP1        0.0000 
     16 CA        -28.7850  -48.9135  -46.7245 C.3       3 GLC5        0.0000 
     17 CA        -28.1480  -50.7090  -47.4720 C.3       9 GLL5        0.0000 
     18 CA        -29.4220  -47.1180  -45.9770 C.3       6 GLP5        0.0000 
     19 CA        -28.5905  -49.6440  -49.1735 C.3       3 GLC5        0.0000 
     20 CA        -29.0330  -48.5790  -50.8750 C.3       6 GLP5        0.0000 
     21 CA        -26.9145  -52.1465  -46.9270 C.3       3 GLC5        0.0000 
     22 CA        -25.6810  -53.5840  -46.3820 C.3       6 GLP5        0.0000 
     23 N         -20.5130  -42.0845  -47.7840 N.am      2 SEC2        0.0000 
     24 N         -20.5310  -43.5670  -47.0800 N.am      8 SEL2        0.0000 
     25 N         -20.4950  -40.6020  -48.4880 N.am      5 SEP2        0.0000 
     26 CA        -16.5070  -43.4585  -50.3155 C.3       3 GLC5        0.0000 
     27 CA        -16.0460  -43.8220  -48.2000 C.3       9 GLL5        0.0000 
     28 CA        -16.9680  -43.0950  -52.4310 C.3       6 GLP5        0.0000 
     29 N         -13.3700  -46.0955  -46.2460 N.am      2 SEC2        0.0000 
     30 N         -14.6330  -45.4810  -46.9860 N.am      8 SEL2        0.0000 
     31 N         -12.1070  -46.7100  -45.5060 N.am      5 SEP2        0.0000 
     32 CA        -12.0085  -43.2115  -46.9550 C.3       3 GLC5        0.0000 
     33 CA        -13.8540  -43.1910  -47.5640 C.3       9 GLL5        0.0000 
     34 CA        -10.1630  -43.2320  -46.3460 C.3       6 GLP5        0.0000 
     35 O         -12.4880  -43.1130  -49.5420 O.2       1 ALC1        0.0000 
     36 O         -13.0350  -43.8580  -48.5140 O.2       7 ALL1        0.0000 
     37 O         -11.9410  -42.3680  -50.5700 O.2       4 ALP1        0.0000 
     38 CA        -16.1645  -40.8700  -48.8440 C.3       3 GLC5        0.0000 
     39 CA        -14.6230  -41.9700  -48.0860 C.3       9 GLL5        0.0000 
     40 CA        -17.7060  -39.7700  -49.6020 C.3       6 GLP5        0.0000 
     41 CA        -14.7220  -41.9740  -50.0455 C.3       3 GLC5        0.0000 
     42 CA        -14.8210  -41.9780  -52.0050 C.3       6 GLP5        0.0000 
     43 CA        -15.9135  -39.7080  -48.5535 C.3       3 GLC5        0.0000 
     44 CA        -14.1210  -39.6460  -47.5050 C.3       9 GLL5        0.0000 
     45 N         -13.2480  -35.0040  -46.9945 N.am      2 SEC2        0.0000 
     46 N         -13.5220  -36.2180  -46.3790 N.am      8 SEL2        0.0000 
     47 N         -12.9740  -33.7900  -47.6100 N.am      5 SEP2        0.0000 
     48 O         -12.4660  -36.0190  -49.0290 O.2       1 ALC1        0.0000 
     49 O         -12.8450  -37.1890  -48.2880 O.2       7 ALL1        0.0000 
     50 O         -12.0870  -34.8490  -49.7700 O.2       4 ALP1        0.0000 
     51 O         -13.0470  -38.2580  -49.4750 O.2       1 ALC1        0.0000 
     52 O         -13.2490  -39.3270  -50.6620 O.2       4 ALP1        0.0000 
     53 CA        -14.2175  -37.5715  -43.5725 C.3       3 GLC5        0.0000 
     54 CA        -14.8570  -38.5680  -45.3990 C.3       9 GLL5        0.0000 
     55 CA        -13.5780  -36.5750  -41.7460 C.3       6 GLP5        0.0000 
     56 N         -20.5545  -52.7885  -43.9660 N.am      2 SEC2        0.0000 
     57 N         -21.5140  -52.0270  -43.3240 N.am      8 SEL2        0.0000 
     58 N         -19.5950  -53.5500  -44.6080 N.am      5 SEP2        0.0000 
     59 N         -22.6585  -53.2140  -45.3065 N.am      2 SEC2        0.0000 
     60 N         -23.5510  -52.9990  -44.4080 N.am      8 SEL2        0.0000 
     61 N         -21.7660  -53.4290  -46.2050 N.am      5 SEP2        0.0000 
     62 CA        -25.7462  -48.3745  -48.7575 C.3       3 GLC5        0.0000 
     63 CA        -25.9120  -50.1490  -47.4570 C.3       9 GLL5        0.0000 
     64 CA        -25.6760  -46.4250  -49.3790 C.3       6 GLP5        0.0000 
     65 CA        -27.6673  -49.6625  -50.0190 C.3       3 GLC5        0.0000 
     66 CA        -25.7210  -50.4990  -48.8150 C.3       9 GLL5        0.0000 
     67 CA        -25.8939  -52.0157  -47.3460 C.3       3 GLC5        0.0000 
     68 CA        -13.5308  -44.2310  -45.7167 C.3       3 GLC5        0.0000 
     69 CA        -14.9770  -44.1190  -47.1370 C.3       9 GLL5        0.0000 
     70 CA        -12.6460  -44.8070  -44.0830 C.3       6 GLP5        0.0000 
     71 CA        -16.1569  -46.0141  -47.9008 C.3       3 GLC5        0.0000 
     72 CA        -16.4470  -47.9740  -48.2190 C.3       6 GLP5        0.0000 
     73 CA        -14.3599  -45.1649  -48.5971 C.3       3 GLC5        0.0000 
     74 CA        -14.0370  -46.7490  -49.5780 C.3       6 GLP5        0.0000 
@<TRIPOS>BOND
@<TRIPOS>SUBSTRUCTURE
     1 ALC1       13 GROUP        1 X    ALC  0     ROOT ALC X 1
     2 SEC2        1 GROUP        1 X    SEC  0     **** SEC X 2
     3 GLC5        4 GROUP        1 X    GLC  0     **** GLC X 6
     4 ALP1       15 GROUP        1 Y    ALP  0     ROOT ALP Y 8
     5 SEP2        3 GROUP        1 Y    SEP  0     **** SEP Y 9
     6 GLP5        6 GROUP        1 Y    GLP  0     **** GLP Y 13
     7 ALL1       14 GROUP        1 Z    ALL  0     ROOT ALL Z 15
     8 SEL2        2 GROUP        1 Z    SEL  0     **** SEL Z 16
     9 GLL5        5 GROUP        1 Z    GLL  0     **** GLL Z 20
@<TRIPOS>SET

