#    Name: 2he5_NDP_2_ligand
#    Modification time : Tue Mar 25 15:57:07 2014

@<TRIPOS>MOLECULE
2he5_NDP_2_ligand
   74    78     1     0     0
SMALL
NO_CHARGES


@<TRIPOS>ATOM
      1 PA        -21.9670  -44.3020  -47.1730 P.3       1 NDP401      0.0000 
      2 O1A       -22.9940  -43.3510  -46.6380 O.co2     1 NDP401      0.0000 
      3 O2A       -22.1400  -44.8920  -48.5180 O.co2     1 NDP401      0.0000 
      4 O5B       -21.7710  -45.4640  -46.0580 O.3       1 NDP401      0.0000 
      5 C5B       -21.8830  -46.8630  -46.4000 C.3       1 NDP401      0.0000 
      6 C4B       -22.6850  -47.5460  -45.2930 C.3       1 NDP401      0.0000 
      7 O4B       -24.0310  -47.8550  -45.7690 O.3       1 NDP401      0.0000 
      8 C3B       -22.0870  -48.8580  -44.7650 C.3       1 NDP401      0.0000 
      9 O3B       -21.7010  -48.6900  -43.4110 O.3       1 NDP401      0.0000 
     10 C2B       -23.1620  -49.9390  -44.9940 C.3       1 NDP401      0.0000 
     11 O2B       -23.5570  -50.5900  -43.7870 O.3       1 NDP401      0.0000 
     12 C1B       -24.3420  -49.2400  -45.6530 C.3       1 NDP401      0.0000 
     13 N9A       -24.6920  -49.7200  -47.0190 N.pl3     1 NDP401      0.0000 
     14 C8A       -23.8440  -49.8310  -48.1220 C.2       1 NDP401      0.0000 
     15 N7A       -24.4350  -50.2940  -49.2080 N.2       1 NDP401      0.0000 
     16 C5A       -25.7210  -50.4990  -48.8150 C.ar      1 NDP401      0.0000 
     17 C6A       -26.8820  -50.9930  -49.5110 C.ar      1 NDP401      0.0000 
     18 N6A       -26.8140  -51.3580  -50.8020 N.pl3     1 NDP401      0.0000 
     19 N1A       -28.0780  -51.0820  -48.7990 N.ar      1 NDP401      0.0000 
     20 C2A       -28.1480  -50.7090  -47.4720 C.ar      1 NDP401      0.0000 
     21 N3A       -27.1030  -50.2290  -46.7190 N.ar      1 NDP401      0.0000 
     22 C4A       -25.9120  -50.1490  -47.4570 C.ar      1 NDP401      0.0000 
     23 O3        -20.5310  -43.5670  -47.0800 O.3       1 NDP401      0.0000 
     24 PN        -19.3080  -43.4830  -46.0720 P.3       1 NDP401      0.0000 
     25 O1N       -19.1850  -44.7750  -45.3620 O.co2     1 NDP401      0.0000 
     26 O2N       -19.5890  -42.2760  -45.2290 O.co2     1 NDP401      0.0000 
     27 O5D       -18.0130  -43.2180  -46.9300 O.3       1 NDP401      0.0000 
     28 C5D       -17.4670  -44.1570  -47.8560 C.3       1 NDP401      0.0000 
     29 C4D       -16.0460  -43.8220  -48.2000 C.3       1 NDP401      0.0000 
     30 O4D       -15.9140  -42.3910  -48.4180 O.3       1 NDP401      0.0000 
     31 C3D       -14.9770  -44.1190  -47.1370 C.3       1 NDP401      0.0000 
     32 O3D       -14.6330  -45.4810  -46.9860 O.3       1 NDP401      0.0000 
     33 C2D       -13.8540  -43.1910  -47.5640 C.3       1 NDP401      0.0000 
     34 O2D       -13.0350  -43.8580  -48.5140 O.3       1 NDP401      0.0000 
     35 C1D       -14.6230  -41.9700  -48.0860 C.3       1 NDP401      0.0000 
     36 N1N       -14.7430  -40.8300  -47.1080 N.pl3     1 NDP401      0.0000 
     37 C2N       -14.1210  -39.6460  -47.5050 C.2       1 NDP401      0.0000 
     38 C3N       -14.1540  -38.4930  -46.6810 C.2       1 NDP401      0.0000 
     39 C7N       -13.4800  -37.2060  -47.1060 C.2       1 NDP401      0.0000 
     40 O7N       -13.5220  -36.2180  -46.3790 O.2       1 NDP401      0.0000 
     41 N7N       -12.8450  -37.1890  -48.2880 N.am      1 NDP401      0.0000 
     42 C4N       -14.8570  -38.5680  -45.3990 C.3       1 NDP401      0.0000 
     43 C5N       -15.4950  -39.7850  -44.9950 C.2       1 NDP401      0.0000 
     44 C6N       -15.4410  -40.9100  -45.8420 C.2       1 NDP401      0.0000 
     45 P2B       -23.0300  -52.0630  -43.3610 P.3       1 NDP401      0.0000 
     46 O1X       -21.5140  -52.0270  -43.3240 O.co2     1 NDP401      0.0000 
     47 O2X       -23.7320  -52.2700  -42.0320 O.co2     1 NDP401      0.0000 
     48 O3X       -23.5510  -52.9990  -44.4080 O.co2     1 NDP401      0.0000 
     49 H         -20.9098  -47.3396  -46.4573 H         1 NDP401      0.0000 
     50 H         -22.4106  -47.0043  -47.3377 H         1 NDP401      0.0000 
     51 H         -22.7681  -46.8579  -44.4470 H         1 NDP401      0.0000 
     52 H         -21.2471  -49.0927  -45.4099 H         1 NDP401      0.0000 
     53 H         -22.7579  -50.6391  -45.7202 H         1 NDP401      0.0000 
     54 H         -25.2121  -49.3546  -45.0046 H         1 NDP401      0.0000 
     55 H         -22.8811  -49.5729  -48.0559 H         1 NDP401      0.0000 
     56 H         -27.6684  -51.6718  -51.2161 H         1 NDP401      0.0000 
     57 H         -25.9150  -51.2833  -51.2336 H         1 NDP401      0.0000 
     58 H         -29.1006  -50.8025  -46.9888 H         1 NDP401      0.0000 
     59 H         -18.0536  -44.1805  -48.7930 H         1 NDP401      0.0000 
     60 H         -17.4908  -45.1830  -47.4446 H         1 NDP401      0.0000 
     61 H         -15.7471  -44.3303  -49.1133 H         1 NDP401      0.0000 
     62 H         -15.3812  -43.6781  -46.2019 H         1 NDP401      0.0000 
     63 H         -13.3371  -42.8999  -46.6730 H         1 NDP401      0.0000 
     64 H         -14.1068  -41.6106  -48.9768 H         1 NDP401      0.0000 
     65 H         -13.6282  -39.5990  -48.4081 H         1 NDP401      0.0000 
     66 H         -12.4411  -36.3150  -48.5580 H         1 NDP401      0.0000 
     67 H         -12.8325  -38.0519  -48.7932 H         1 NDP401      0.0000 
     68 H         -15.6240  -37.7140  -45.3677 H         1 NDP401      0.0000 
     69 H         -14.1267  -38.2366  -44.5772 H         1 NDP401      0.0000 
     70 H         -15.9791  -39.8264  -44.1046 H         1 NDP401      0.0000 
     71 H         -15.8862  -41.7845  -45.5799 H         1 NDP401      0.0000 
     72 H         -22.3851  -49.1928  -42.8827 H         1 NDP401      0.0000 
     73 H         -14.0550  -45.6908  -47.7746 H         1 NDP401      0.0000 
     74 H         -12.7291  -43.1411  -49.1404 H         1 NDP401      0.0000 
@<TRIPOS>BOND
     1    2    1 ar   
     2    3    1 ar   
     3    4    1 1    
     4   23    1 1    
     5    5    4 1    
     6    6    5 1    
     7   49    5 1    
     8   50    5 1    
     9    7    6 1    
    10    8    6 1    
    11   51    6 1    
    12   12    7 1    
    13    9    8 1    
    14   10    8 1    
    15   52    8 1    
    16   72    9 1    
    17   11   10 1    
    18   12   10 1    
    19   53   10 1    
    20   45   11 1    
    21   13   12 1    
    22   54   12 1    
    23   14   13 1    
    24   22   13 1    
    25   15   14 2    
    26   55   14 1    
    27   16   15 1    
    28   17   16 ar   
    29   22   16 ar   
    30   18   17 1    
    31   19   17 ar   
    32   56   18 1    
    33   57   18 1    
    34   20   19 ar   
    35   21   20 ar   
    36   58   20 1    
    37   22   21 ar   
    38   24   23 1    
    39   25   24 ar   
    40   26   24 ar   
    41   27   24 1    
    42   28   27 1    
    43   29   28 1    
    44   59   28 1    
    45   60   28 1    
    46   30   29 1    
    47   31   29 1    
    48   61   29 1    
    49   35   30 1    
    50   32   31 1    
    51   33   31 1    
    52   62   31 1    
    53   73   32 1    
    54   34   33 1    
    55   35   33 1    
    56   63   33 1    
    57   74   34 1    
    58   36   35 1    
    59   64   35 1    
    60   37   36 1    
    61   44   36 1    
    62   38   37 2    
    63   65   37 1    
    64   39   38 1    
    65   42   38 1    
    66   40   39 2    
    67   41   39 am   
    68   66   41 1    
    69   67   41 1    
    70   43   42 1    
    71   68   42 1    
    72   69   42 1    
    73   44   43 2    
    74   70   43 1    
    75   71   44 1    
    76   46   45 ar   
    77   47   45 ar   
    78   48   45 ar   
@<TRIPOS>SUBSTRUCTURE
     1 NDP401      1 GROUP   
@<TRIPOS>SET

