#    Name: 1qvr_ANP_1_INTS_M
#    Modification time : Mon Mar 24 23:58:44 2014

@<TRIPOS>MOLECULE
1qvr_ANP_1_INTS_M
   39     0     9     0     0
SMALL
NO_CHARGES


@<TRIPOS>ATOM
      1 NZ         41.3825   32.7235   32.2630 N.4       2 LYC4        0.0000 
      2 NZ         41.0800   31.2000   31.5710 N.4       8 LYL4        0.0000 
      3 NZ         41.6850   34.2470   32.9550 N.4       5 LYP4        0.0000 
      4 N          41.3825   32.7235   32.2630 N.am      1 SEC2        0.0000 
      5 N          41.0800   31.2000   31.5710 N.am      7 SEL2        0.0000 
      6 N          41.6850   34.2470   32.9550 N.am      4 SEP2        0.0000 
      7 NZ         41.2145   33.3105   33.8780 N.4       2 LYC4        0.0000 
      8 NZ         40.7440   32.3740   34.8010 N.4       8 LYL4        0.0000 
      9 N          41.2145   33.3105   33.8780 N.am      1 SEC2        0.0000 
     10 N          40.7440   32.3740   34.8010 N.am      7 SEL2        0.0000 
     11 NZ         42.2950   32.8210   33.7895 N.4       2 LYC4        0.0000 
     12 NZ         42.9050   31.3950   34.6240 N.4       8 LYL4        0.0000 
     13 N          43.3360   30.2335   33.8415 N.am      1 SEC2        0.0000 
     14 N          42.9050   31.3950   34.6240 N.am      7 SEL2        0.0000 
     15 N          43.7670   29.0720   33.0590 N.am      4 SEP2        0.0000 
     16 N          43.6860   31.3255   35.8950 N.am      1 SEC2        0.0000 
     17 N          44.4670   31.2560   37.1660 N.am      4 SEP2        0.0000 
     18 N          42.9835   32.5540   35.9010 N.am      1 SEC2        0.0000 
     19 N          43.0620   33.7130   37.1780 N.am      4 SEP2        0.0000 
     20 N          40.5325   32.7720   39.5700 N.am      1 SEC2        0.0000 
     21 N          40.8210   31.7860   38.8540 N.am      7 SEL2        0.0000 
     22 N          40.2440   33.7580   40.2860 N.am      4 SEP2        0.0000 
     23 N          38.4575   32.3905   36.9060 N.am      1 SEC2        0.0000 
     24 N          39.0150   31.0280   37.2880 N.am      7 SEL2        0.0000 
     25 N          37.9000   33.7530   36.5240 N.am      4 SEP2        0.0000 
     26 CA         42.2050   30.1960   46.1790 C.3       3 GLC5        0.0000 
     27 CA         42.5280   28.7500   44.8410 C.3       9 GLL5        0.0000 
     28 CA         41.8820   31.6420   47.5170 C.3       6 GLP5        0.0000 
     29 CA         43.9925   27.8345   44.7940 C.3       3 GLC5        0.0000 
     30 CA         45.4570   26.9190   44.7470 C.3       6 GLP5        0.0000 
     31 CA         42.4725   27.2330   45.6945 C.3       3 GLC5        0.0000 
     32 CA         42.4170   25.7160   46.5480 C.3       6 GLP5        0.0000 
     33 CA         41.8720   25.7050   40.9507 C.3       3 GLC5        0.0000 
     34 CA         41.5850   27.1230   40.5740 C.3       9 GLL5        0.0000 
     35 CA         42.8870   24.1970   41.2160 C.3       6 GLP5        0.0000 
     36 CA         42.4470   30.9244   42.3208 C.3       3 GLC5        0.0000 
     37 CA         43.5630   29.6150   42.4750 C.3       9 GLL5        0.0000 
     38 CA         41.6930   32.6050   41.8640 C.3       6 GLP5        0.0000 
     39 CA         44.3290   28.0814   43.7623 C.3       3 GLC5        0.0000 
@<TRIPOS>BOND
@<TRIPOS>SUBSTRUCTURE
     1 SEC2        4 GROUP        1 X    SEC  0     ROOT SEC X 2
     2 LYC4        1 GROUP        1 X    LYC  0     **** LYC X 4
     3 GLC5       26 GROUP        1 X    GLC  0     **** GLC X 6
     4 SEP2        6 GROUP        1 Y    SEP  0     ROOT SEP Y 9
     5 LYP4        3 GROUP        1 Y    LYP  0     **** LYP Y 11
     6 GLP5       28 GROUP        1 Y    GLP  0     **** GLP Y 13
     7 SEL2        5 GROUP        1 Z    SEL  0     ROOT SEL Z 16
     8 LYL4        2 GROUP        1 Z    LYL  0     **** LYL Z 18
     9 GLL5       27 GROUP        1 Z    GLL  0     **** GLL Z 20
@<TRIPOS>SET

