#    Name: 1qvr_ANP_1_ligand
#    Modification time : Mon Mar 24 23:58:44 2014

@<TRIPOS>MOLECULE
1qvr_ANP_1_ligand
   43    45     1     0     0
SMALL
NO_CHARGES


@<TRIPOS>ATOM
      1 PG         40.0340   30.4800   32.3350 P.3       1 ANP901      0.0000 
      2 O1G        41.0800   31.2000   31.5710 O.co2     1 ANP901      0.0000 
      3 O2G        38.7140   31.3710   32.5360 O.co2     1 ANP901      0.0000 
      4 O3G        39.7180   29.1610   31.7070 O.co2     1 ANP901      0.0000 
      5 PB         41.4970   31.1230   34.9000 P.3       1 ANP901      0.0000 
      6 O1B        40.7440   32.3740   34.8010 O.co2     1 ANP901      0.0000 
      7 O2B        42.9050   31.3950   34.6240 O.co2     1 ANP901      0.0000 
      8 N3B        40.6850   30.1660   33.8900 N.4       1 ANP901      0.0000 
      9 PA         40.4160   30.7860   37.7980 P.3       1 ANP901      0.0000 
     10 O1A        40.8210   31.7860   38.8540 O.co2     1 ANP901      0.0000 
     11 O2A        39.0150   31.0280   37.2880 O.co2     1 ANP901      0.0000 
     12 O3A        41.4510   30.8430   36.5580 O.3       1 ANP901      0.0000 
     13 O5'        40.5730   29.3330   38.4330 O.3       1 ANP901      0.0000 
     14 C5'        40.2350   28.2610   37.5660 C.3       1 ANP901      0.0000 
     15 C4'        40.3680   26.9570   38.3980 C.3       1 ANP901      0.0000 
     16 O4'        41.6180   26.9560   39.1430 O.3       1 ANP901      0.0000 
     17 C3'        39.3910   26.7800   39.5520 C.3       1 ANP901      0.0000 
     18 O3'        39.1830   25.3840   39.6700 O.3       1 ANP901      0.0000 
     19 C2'        40.1290   27.3030   40.7970 C.3       1 ANP901      0.0000 
     20 O2'        39.8150   26.7090   42.0270 O.3       1 ANP901      0.0000 
     21 C1'        41.5850   27.1230   40.5740 C.3       1 ANP901      0.0000 
     22 N9         42.4830   28.2280   41.1570 N.pl3     1 ANP901      0.0000 
     23 C8         43.2900   29.0480   40.4450 C.2       1 ANP901      0.0000 
     24 N7         43.9540   29.8990   41.2270 N.2       1 ANP901      0.0000 
     25 C5         43.5630   29.6150   42.4750 C.ar      1 ANP901      0.0000 
     26 C6         43.9770   30.2380   43.7170 C.ar      1 ANP901      0.0000 
     27 N6         44.8840   31.2540   43.6850 N.pl3     1 ANP901      0.0000 
     28 N1         43.4380   29.7830   44.9200 N.ar      1 ANP901      0.0000 
     29 C2         42.5280   28.7500   44.8410 C.ar      1 ANP901      0.0000 
     30 N3         42.1360   28.1600   43.6720 N.ar      1 ANP901      0.0000 
     31 C4         42.6320   28.5610   42.4590 C.ar      1 ANP901      0.0000 
     32 H          40.9102   28.1757   36.7242 H         1 ANP901      0.0000 
     33 H          39.2129   28.3150   37.2138 H         1 ANP901      0.0000 
     34 H          40.3276   26.0999   37.7759 H         1 ANP901      0.0000 
     35 H          38.5391   27.3351   39.3789 H         1 ANP901      0.0000 
     36 H          39.9595   28.3965   40.8313 H         1 ANP901      0.0000 
     37 H          41.8566   26.1589   41.0368 H         1 ANP901      0.0000 
     38 H          43.3704   29.0115   39.4574 H         1 ANP901      0.0000 
     39 H          45.1547   31.6302   44.5711 H         1 ANP901      0.0000 
     40 H          45.1992   31.5341   42.7782 H         1 ANP901      0.0000 
     41 H          42.1072   28.3932   45.7500 H         1 ANP901      0.0000 
     42 H          39.4006   25.1697   40.6222 H         1 ANP901      0.0000 
     43 H          40.4591   27.1087   42.6792 H         1 ANP901      0.0000 
@<TRIPOS>BOND
     1    2    1 ar   
     2    3    1 ar   
     3    4    1 ar   
     4    8    1 1    
     5    6    5 ar   
     6    7    5 ar   
     7    8    5 1    
     8   12    5 1    
     9   10    9 ar   
    10   11    9 ar   
    11   12    9 1    
    12   13    9 1    
    13   14   13 1    
    14   15   14 1    
    15   32   14 1    
    16   33   14 1    
    17   16   15 1    
    18   17   15 1    
    19   34   15 1    
    20   21   16 1    
    21   18   17 1    
    22   19   17 1    
    23   35   17 1    
    24   42   18 1    
    25   20   19 1    
    26   21   19 1    
    27   36   19 1    
    28   43   20 1    
    29   22   21 1    
    30   37   21 1    
    31   23   22 1    
    32   31   22 1    
    33   24   23 2    
    34   38   23 1    
    35   25   24 1    
    36   26   25 ar   
    37   31   25 ar   
    38   27   26 1    
    39   28   26 ar   
    40   39   27 1    
    41   40   27 1    
    42   29   28 ar   
    43   30   29 ar   
    44   41   29 1    
    45   31   30 ar   
@<TRIPOS>SUBSTRUCTURE
     1 ANP901      1 GROUP   
@<TRIPOS>SET

