#    Name: 1dwv_4AB_2_INTS_M
#    Modification time : Mon Mar 24 22:29:50 2014

@<TRIPOS>MOLECULE
1dwv_4AB_2_INTS_M
   20     0     6     0     0
SMALL
NO_CHARGES


@<TRIPOS>ATOM
      1 CA        136.8110  116.8615   92.7575 C.3       2 GLC5        0.0000 
      2 CA        135.7910  117.5140   91.1770 C.3       6 GLL5        0.0000 
      3 CA        137.8310  116.2090   94.3380 C.3       4 GLP5        0.0000 
      4 O         135.4110  117.4155   93.6755 O.2       1 ALC1        0.0000 
      5 O         134.9270  117.4680   92.1730 O.2       5 ALL1        0.0000 
      6 O         135.8950  117.3630   95.1780 O.2       3 ALP1        0.0000 
      7 CA        137.9020  117.0295   92.4065 C.3       2 GLC5        0.0000 
      8 CA        137.9730  117.8500   90.4750 C.3       6 GLL5        0.0000 
      9 O         139.4775  118.1195   92.2300 O.2       1 ALC1        0.0000 
     10 O         139.2380  118.1730   90.7530 O.2       5 ALL1        0.0000 
     11 O         139.7170  118.0660   93.7070 O.2       3 ALP1        0.0000 
     12 CA        141.1580  117.6205   91.0540 C.3       2 GLC5        0.0000 
     13 CA        140.1820  118.3780   89.7210 C.3       6 GLL5        0.0000 
     14 CA        142.1340  116.8630   92.3870 C.3       4 GLP5        0.0000 
     15 O         143.4770  115.3545   88.0720 O.2       1 ALC1        0.0000 
     16 O         142.4220  116.2830   88.2670 O.2       5 ALL1        0.0000 
     17 O         144.5320  114.4260   87.8770 O.2       3 ALP1        0.0000 
     18 CA        139.5335  116.4402   86.4090 C.3       2 GLC5        0.0000 
     19 CA        140.7670  117.7280   87.2370 C.3       6 GLL5        0.0000 
     20 CA        138.7440  115.1570   84.9660 C.3       4 GLP5        0.0000 
@<TRIPOS>BOND
@<TRIPOS>SUBSTRUCTURE
     1 ALC1        4 GROUP        1 X    ALC  0     ROOT ALC X 1
     2 GLC5        1 GROUP        1 X    GLC  0     **** GLC X 6
     3 ALP1        6 GROUP        1 Y    ALP  0     ROOT ALP Y 8
     4 GLP5        3 GROUP        1 Y    GLP  0     **** GLP Y 13
     5 ALL1        5 GROUP        1 Z    ALL  0     ROOT ALL Z 15
     6 GLL5        2 GROUP        1 Z    GLL  0     **** GLL Z 20
@<TRIPOS>SET

