#    Name: 1dwv_4AB_2_ligand
#    Modification time : Mon Mar 24 22:29:50 2014

@<TRIPOS>MOLECULE
1dwv_4AB_2_ligand
   32    33     1     0     0
SMALL
NO_CHARGES


@<TRIPOS>ATOM
      1 N1        137.0690  117.7780   91.4500 N.ar      1 4AB902      0.0000 
      2 C2        135.7910  117.5140   91.1770 C.ar      1 4AB902      0.0000 
      3 N2        134.9270  117.4680   92.1730 N.pl3     1 4AB902      0.0000 
      4 N3        135.3730  117.2780   89.9420 N.ar      1 4AB902      0.0000 
      5 C4        136.2370  117.3010   88.9350 C.ar      1 4AB902      0.0000 
      6 NH4       135.8090  117.0550   87.7180 N.pl3     1 4AB902      0.0000 
      7 C4A       137.5870  117.5750   89.1610 C.ar      1 4AB902      0.0000 
      8 C8A       137.9730  117.8500   90.4750 C.ar      1 4AB902      0.0000 
      9 N5        138.4650  117.5680   88.1540 N.3       1 4AB902      0.0000 
     10 N8        139.2380  118.1730   90.7530 N.pl3     1 4AB902      0.0000 
     11 C6        139.8790  117.7190   88.4670 C.3       1 4AB902      0.0000 
     12 C7        140.1820  118.3780   89.7210 C.3       1 4AB902      0.0000 
     13 C9        140.7670  117.7280   87.2370 C.3       1 4AB902      0.0000 
     14 O9        140.5980  118.9590   86.5180 O.3       1 4AB902      0.0000 
     15 C10       142.2480  117.5440   87.6100 C.3       1 4AB902      0.0000 
     16 C11       143.1500  117.6220   86.3800 C.3       1 4AB902      0.0000 
     17 O10       142.4220  116.2830   88.2670 O.3       1 4AB902      0.0000 
     18 H         133.9790  117.6887   91.9437 H         1 4AB902      0.0000 
     19 H         135.2987  117.2165   93.0667 H         1 4AB902      0.0000 
     20 H         134.8357  116.8437   87.6282 H         1 4AB902      0.0000 
     21 H         136.4955  117.1014   86.9923 H         1 4AB902      0.0000 
     22 H         139.5686  118.2839   91.7346 H         1 4AB902      0.0000 
     23 H         140.0901  116.4911   88.8178 H         1 4AB902      0.0000 
     24 H         141.2074  118.0514   90.0630 H         1 4AB902      0.0000 
     25 H         140.3109  119.4830   89.5273 H         1 4AB902      0.0000 
     26 H         140.4827  116.8839   86.6084 H         1 4AB902      0.0000 
     27 H         142.5203  118.3595   88.2778 H         1 4AB902      0.0000 
     28 H         144.1141  117.5055   86.6185 H         1 4AB902      0.0000 
     29 H         142.9262  116.9143   85.7099 H         1 4AB902      0.0000 
     30 H         143.0677  118.5031   85.9143 H         1 4AB902      0.0000 
     31 H         139.9078  118.7596   85.8224 H         1 4AB902      0.0000 
     32 H         143.2602  115.9017   87.8772 H         1 4AB902      0.0000 
@<TRIPOS>BOND
     1    2    1 ar   
     2    8    1 ar   
     3    3    2 1    
     4    4    2 ar   
     5   18    3 1    
     6   19    3 1    
     7    5    4 ar   
     8    6    5 1    
     9    7    5 ar   
    10   20    6 1    
    11   21    6 1    
    12    8    7 ar   
    13    9    7 1    
    14   10    8 1    
    15   11    9 1    
    16   12   10 1    
    17   22   10 1    
    18   12   11 1    
    19   13   11 1    
    20   23   11 1    
    21   24   12 1    
    22   25   12 1    
    23   14   13 1    
    24   15   13 1    
    25   26   13 1    
    26   31   14 1    
    27   16   15 1    
    28   17   15 1    
    29   27   15 1    
    30   28   16 1    
    31   29   16 1    
    32   30   16 1    
    33   32   17 1    
@<TRIPOS>SUBSTRUCTURE
     1 4AB902      1 GROUP   
@<TRIPOS>SET

