#    Name: 1yy4_4NA_2_INTS_M
#    Modification time : Tue Mar 25 11:20:58 2014

@<TRIPOS>MOLECULE
1yy4_4NA_2_INTS_M
   64     0     9     0     0
SMALL
NO_CHARGES


@<TRIPOS>ATOM
      1 CA         30.3455   29.1425   11.8895 C.3       3 GLC5        0.0000 
      2 CA         29.4970   27.4210   11.2390 C.3       9 GLL5        0.0000 
      3 CA         31.1940   30.8640   12.5400 C.3       6 GLP5        0.0000 
      4 CA         25.1950   26.0120   13.0470 C.3       3 GLC5        0.0000 
      5 CA         25.6550   27.4160   11.5990 C.3       9 GLL5        0.0000 
      6 CA         24.7350   24.6080   14.4950 C.3       6 GLP5        0.0000 
      7 CA         26.0330   30.2860   10.6610 C.3       3 GLC5        0.0000 
      8 CA         26.0130   28.8070    9.0910 C.3       9 GLL5        0.0000 
      9 CA         26.0530   31.7650   12.2310 C.3       6 GLP5        0.0000 
     10 CA         23.2060   30.5015   10.9735 C.3       3 GLC5        0.0000 
     11 CA         22.1510   29.2350    9.4890 C.3       9 GLL5        0.0000 
     12 CA         24.2610   31.7680   12.4580 C.3       6 GLP5        0.0000 
     13 CA         21.5845   29.4140   11.3260 C.3       3 GLC5        0.0000 
     14 CA         21.0180   29.5930   13.1630 C.3       6 GLP5        0.0000 
     15 CA         20.8930   27.6400    9.6410 C.3       3 GLC5        0.0000 
     16 CA         19.6350   26.0450    9.7930 C.3       6 GLP5        0.0000 
     17 CA         19.8775   29.9110   10.4510 C.3       3 GLC5        0.0000 
     18 CA         20.9980   29.6940    8.7770 C.3       9 GLL5        0.0000 
     19 CA         18.7570   30.1280   12.1250 C.3       6 GLP5        0.0000 
     20 CA         23.7050   31.5040    5.9075 C.3       3 GLC5        0.0000 
     21 CA         22.3670   29.8850    6.7100 C.3       9 GLL5        0.0000 
     22 CA         25.0430   33.1230    5.1050 C.3       6 GLP5        0.0000 
     23 CA         24.7380   31.1170    6.8460 C.3       3 GLC5        0.0000 
     24 CA         23.5200   29.4260    7.4200 C.3       9 GLL5        0.0000 
     25 CA         25.9560   32.8080    6.2720 C.3       6 GLP5        0.0000 
     26 N          18.9025   29.6985    5.9505 N.am      2 SEC2        0.0000 
     27 N          19.9940   30.4570    6.7030 N.am      8 SEL2        0.0000 
     28 N          17.8110   28.9400    5.1980 N.am      5 SEP2        0.0000 
     29 O          20.6045   31.1245    5.7300 O.2       1 ALC1        0.0000 
     30 O          19.9940   30.4570    6.7030 O.2       7 ALL1        0.0000 
     31 O          21.2150   31.7920    4.7570 O.2       4 ALP1        0.0000 
     32 O          19.5265   31.1725    5.5425 O.2       1 ALC1        0.0000 
     33 O          19.0590   31.8880    4.3820 O.2       4 ALP1        0.0000 
     34 CA         28.2650   24.5720   12.6905 C.3       3 GLC5        0.0000 
     35 CA         28.1410   26.3580   13.2640 C.3       9 GLL5        0.0000 
     36 CA         28.3890   22.7860   12.1170 C.3       6 GLP5        0.0000 
     37 CA         27.5485   27.5615   14.6730 C.3       3 GLC5        0.0000 
     38 CA         26.9560   28.7650   16.0820 C.3       6 GLP5        0.0000 
     39 CA         29.5980   25.9235   13.3130 C.3       3 GLC5        0.0000 
     40 CA         31.0550   25.4890   13.3620 C.3       6 GLP5        0.0000 
     41 CA         30.8235   26.5113    9.6932 C.3       3 GLC5        0.0000 
     42 CA         32.0860   25.2600    8.7670 C.3       6 GLP5        0.0000 
     43 CA         28.7117   25.3215   11.1235 C.3       3 GLC5        0.0000 
     44 CA         28.5800   23.3460   10.7310 C.3       6 GLP5        0.0000 
     45 CA         27.9507   25.9252   13.8972 C.3       3 GLC5        0.0000 
     46 CA         27.7360   25.0850   15.2660 C.3       6 GLP5        0.0000 
     47 CA         30.5090   29.5490    9.9007 C.3       3 GLC5        0.0000 
     48 CA         28.4750   28.5620    9.2950 C.3       9 GLL5        0.0000 
     49 CA         31.9680   30.7650   10.1540 C.3       6 GLP5        0.0000 
     50 CA         30.1446   26.5948   12.0600 C.3       3 GLC5        0.0000 
     51 CA         29.6250   28.1040   10.0000 C.3       9 GLL5        0.0000 
     52 CA         26.2095   29.7321   11.6299 C.3       3 GLC5        0.0000 
     53 CA         26.9930   27.6270   11.1070 C.3       9 GLL5        0.0000 
     54 CA         24.4305   30.0063   11.3418 C.3       3 GLC5        0.0000 
     55 CA         24.5280   27.8950   10.8560 C.3       9 GLL5        0.0000 
     56 CA         27.2542   27.6842    7.6574 C.3       3 GLC5        0.0000 
     57 CA         27.5930   26.7400    5.9930 C.3       6 GLP5        0.0000 
     58 CA         19.4537   28.7732    8.6400 C.3       3 GLC5        0.0000 
     59 CA         17.8520   27.6920    9.1950 C.3       6 GLP5        0.0000 
     60 CA         21.1304   31.4204    9.0385 C.3       3 GLC5        0.0000 
     61 CA         21.1130   30.0150    7.3930 C.3       9 GLL5        0.0000 
     62 CA         20.9170   33.1010    9.8140 C.3       6 GLP5        0.0000 
     63 CA         22.4110   29.1135    5.2914 C.3       3 GLC5        0.0000 
     64 CA         22.1920   28.5390    3.3470 C.3       6 GLP5        0.0000 
@<TRIPOS>BOND
@<TRIPOS>SUBSTRUCTURE
     1 ALC1       29 GROUP        1 X    ALC  0     ROOT ALC X 1
     2 SEC2       26 GROUP        1 X    SEC  0     **** SEC X 2
     3 GLC5        1 GROUP        1 X    GLC  0     **** GLC X 6
     4 ALP1       31 GROUP        1 Y    ALP  0     ROOT ALP Y 8
     5 SEP2       28 GROUP        1 Y    SEP  0     **** SEP Y 9
     6 GLP5        3 GROUP        1 Y    GLP  0     **** GLP Y 13
     7 ALL1       30 GROUP        1 Z    ALL  0     ROOT ALL Z 15
     8 SEL2       27 GROUP        1 Z    SEL  0     **** SEL Z 16
     9 GLL5        2 GROUP        1 Z    GLL  0     **** GLL Z 20
@<TRIPOS>SET

