#    Name: 1yy4_4NA_2_ligand
#    Modification time : Tue Mar 25 11:20:59 2014

@<TRIPOS>MOLECULE
1yy4_4NA_2_ligand
   30    32     1     0     0
SMALL
NO_CHARGES


@<TRIPOS>ATOM
      1 C1         29.4970   27.4210   11.2390 C.ar      1 4NA202      0.0000 
      2 C2         28.1900   27.1730   11.7930 C.ar      1 4NA202      0.0000 
      3 C3         26.9930   27.6270   11.1070 C.ar      1 4NA202      0.0000 
      4 C4         27.1610   28.3380    9.8100 C.ar      1 4NA202      0.0000 
      5 C5         28.4750   28.5620    9.2950 C.ar      1 4NA202      0.0000 
      6 C6         29.6250   28.1040   10.0000 C.ar      1 4NA202      0.0000 
      7 C9         25.6550   27.4160   11.5990 C.ar      1 4NA202      0.0000 
      8 C10        24.5280   27.8950   10.8560 C.ar      1 4NA202      0.0000 
      9 C11        24.6720   28.5940    9.5950 C.ar      1 4NA202      0.0000 
     10 C12        26.0130   28.8070    9.0910 C.ar      1 4NA202      0.0000 
     11 C16        23.4390   29.0900    8.8250 C.ar      1 4NA202      0.0000 
     12 C17        22.1510   29.2350    9.4890 C.ar      1 4NA202      0.0000 
     13 C18        20.9980   29.6940    8.7770 C.ar      1 4NA202      0.0000 
     14 C19        21.1130   30.0150    7.3930 C.ar      1 4NA202      0.0000 
     15 C20        22.3670   29.8850    6.7100 C.ar      1 4NA202      0.0000 
     16 C21        23.5200   29.4260    7.4200 C.ar      1 4NA202      0.0000 
     17 O26        19.9940   30.4570    6.7030 O.3       1 4NA202      0.0000 
     18 CL27       28.1410   26.3580   13.2640 Cl        1 4NA202      0.0000 
     19 O28        30.6730   27.0300   11.8340 O.3       1 4NA202      0.0000 
     20 H          28.5894   29.0581    8.4080 H         1 4NA202      0.0000 
     21 H          30.5559   28.2702    9.6068 H         1 4NA202      0.0000 
     22 H          25.5146   26.9253   12.4764 H         1 4NA202      0.0000 
     23 H          23.5803   27.7408   11.2247 H         1 4NA202      0.0000 
     24 H          26.1362   29.3011    8.2065 H         1 4NA202      0.0000 
     25 H          22.0810   29.0025   10.4790 H         1 4NA202      0.0000 
     26 H          20.1110   29.7890    9.2533 H         1 4NA202      0.0000 
     27 H          22.4341   30.1184    5.7260 H         1 4NA202      0.0000 
     28 H          24.4117   29.3320    6.9380 H         1 4NA202      0.0000 
     29 H          20.3546   31.0163    5.9566 H         1 4NA202      0.0000 
     30 H          31.1768   26.5464   11.1182 H         1 4NA202      0.0000 
@<TRIPOS>BOND
     1    2    1 ar   
     2    6    1 ar   
     3   19    1 1    
     4    3    2 ar   
     5   18    2 1    
     6    4    3 ar   
     7    7    3 ar   
     8    5    4 ar   
     9   10    4 ar   
    10    6    5 ar   
    11   20    5 1    
    12   21    6 1    
    13    8    7 ar   
    14   22    7 1    
    15    9    8 ar   
    16   23    8 1    
    17   10    9 ar   
    18   11    9 1    
    19   24   10 1    
    20   12   11 ar   
    21   16   11 ar   
    22   13   12 ar   
    23   25   12 1    
    24   14   13 ar   
    25   26   13 1    
    26   15   14 ar   
    27   17   14 1    
    28   16   15 ar   
    29   27   15 1    
    30   28   16 1    
    31   29   17 1    
    32   30   19 1    
@<TRIPOS>SUBSTRUCTURE
     1 4NA202      1 GROUP   
@<TRIPOS>SET

