#    Name: 4msk_2C8_2_INTS_M
#    Modification time : Tue Mar 25 12:22:18 2014

@<TRIPOS>MOLECULE
4msk_2C8_2_INTS_M
   79     0     9     0     0
SMALL
NO_CHARGES


@<TRIPOS>ATOM
      1 O          82.3290   24.6220   23.8160 O.2       1 ALC1        0.0000 
      2 O          83.3020   25.2210   24.7920 O.2       7 ALL1        0.0000 
      3 O          81.3560   24.0230   22.8400 O.2       4 ALP1        0.0000 
      4 N          81.4780   23.0570   25.5850 N.am      2 SEC2        0.0000 
      5 N          82.4120   23.9030   26.4300 N.am      8 SEL2        0.0000 
      6 N          80.5440   22.2110   24.7400 N.am      5 SEP2        0.0000 
      7 N          81.3570   23.4350   27.4860 N.am      2 SEC2        0.0000 
      8 N          80.3020   22.9670   28.5420 N.am      5 SEP2        0.0000 
      9 CA         82.6565   27.4055   23.6410 C.3       3 GLC5        0.0000 
     10 CA         84.1750   26.6680   22.9270 C.3       9 GLL5        0.0000 
     11 CA         81.1380   28.1430   24.3550 C.3       6 GLP5        0.0000 
     12 CA         86.8255   27.9800   22.0300 C.3       3 GLC5        0.0000 
     13 CA         85.6010   26.6310   22.4710 C.3       9 GLL5        0.0000 
     14 CA         88.0500   29.3290   21.5890 C.3       6 GLP5        0.0000 
     15 CA         87.3685   26.3135   23.6760 C.3       3 GLC5        0.0000 
     16 CA         89.1360   25.9960   24.8810 C.3       6 GLP5        0.0000 
     17 N          87.2800   23.8510   24.1020 N.am      2 SEC2        0.0000 
     18 N          86.3850   24.5040   23.0750 N.am      8 SEL2        0.0000 
     19 N          88.1750   23.1980   25.1290 N.am      5 SEP2        0.0000 
     20 CA         87.4105   25.5415   20.2095 C.3       3 GLC5        0.0000 
     21 CA         86.1990   23.8270   20.1610 C.3       9 GLL5        0.0000 
     22 CA         88.6220   27.2560   20.2580 C.3       6 GLP5        0.0000 
     23 CA         84.3885   21.6055   17.0100 C.3       3 GLC5        0.0000 
     24 CA         86.0010   22.4590   18.0640 C.3       9 GLL5        0.0000 
     25 CA         82.7760   20.7520   15.9560 C.3       6 GLP5        0.0000 
     26 CA         85.1185   19.7715   19.0715 C.3       3 GLC5        0.0000 
     27 CA         86.6680   21.3350   18.7630 C.3       9 GLL5        0.0000 
     28 CA         83.5690   18.2080   19.3800 C.3       6 GLP5        0.0000 
     29 N          88.8055   17.7110   18.1790 N.am      2 SEC2        0.0000 
     30 N          87.6750   18.9590   18.4120 N.am      8 SEL2        0.0000 
     31 N          89.9360   16.4630   17.9460 N.am      5 SEP2        0.0000 
     32 N          88.8120   17.2625   17.6525 N.am      2 SEC2        0.0000 
     33 N          87.6880   18.0620   17.3590 N.am      8 SEL2        0.0000 
     34 CA         85.2600   17.6585   16.6300 C.3       3 GLC5        0.0000 
     35 CA         86.6580   18.1200   14.9430 C.3       9 GLL5        0.0000 
     36 CA         83.8620   17.1970   18.3170 C.3       6 GLP5        0.0000 
     37 CA         88.9180   16.6245   15.1025 C.3       3 GLC5        0.0000 
     38 CA         86.9960   16.7530   14.5220 C.3       9 GLL5        0.0000 
     39 CA         90.8400   16.4960   15.6830 C.3       6 GLP5        0.0000 
     40 CA         86.5660   14.2850   13.2960 C.3       3 GLC5        0.0000 
     41 CA         86.7290   16.2940   13.1610 C.3       9 GLL5        0.0000 
     42 CA         86.4030   12.2760   13.4310 C.3       6 GLP5        0.0000 
     43 CA         87.2110   19.8800   12.4700 C.3       3 GLC5        0.0000 
     44 CA         85.7620   18.5750   12.5910 C.3       9 GLL5        0.0000 
     45 CA         88.6600   21.1850   12.3490 C.3       6 GLP5        0.0000 
     46 CA         84.4035   19.8870   14.9495 C.3       3 GLC5        0.0000 
     47 CA         86.0310   19.0220   13.9430 C.3       9 GLL5        0.0000 
     48 CA         84.5197   23.7422   28.3922 C.3       3 GLC5        0.0000 
     49 CA         83.7160   25.6660   27.1470 C.3       9 GLL5        0.0000 
     50 CA         85.3770   21.9340   28.9260 C.3       6 GLP5        0.0000 
     51 CA         83.1050   25.0255   30.2610 C.3       3 GLC5        0.0000 
     52 CA         83.6090   25.4350   28.5700 C.3       9 GLL5        0.0000 
     53 CA         82.2630   24.1620   31.4840 C.3       6 GLP5        0.0000 
     54 CA         82.6480   26.8575   29.8870 C.3       3 GLC5        0.0000 
     55 CA         81.3490   27.8260   30.7360 C.3       6 GLP5        0.0000 
     56 CA         86.0110   27.6035   30.4105 C.3       3 GLC5        0.0000 
     57 CA         84.2850   26.3430   29.5060 C.3       9 GLL5        0.0000 
     58 CA         87.3460   28.2910   31.5580 C.3       6 GLP5        0.0000 
     59 CA         86.1983   26.3583   27.3200 C.3       3 GLC5        0.0000 
     60 CA         85.0670   27.4890   29.0200 C.3       9 GLL5        0.0000 
     61 CA         87.2700   25.1040   26.3370 C.3       6 GLP5        0.0000 
     62 CA         83.7717   28.8262   29.2265 C.3       3 GLC5        0.0000 
     63 CA         85.1860   27.7360   27.5860 C.3       9 GLL5        0.0000 
     64 CA         82.4170   30.0400   30.1500 C.3       6 GLP5        0.0000 
     65 CA         85.6806   25.6499   26.7949 C.3       3 GLC5        0.0000 
     66 CA         84.5200   26.8410   26.6470 C.3       9 GLL5        0.0000 
     67 CA         84.5635   28.5622   21.7270 C.3       3 GLC5        0.0000 
     68 CA         84.2390   30.4750   20.7550 C.3       6 GLP5        0.0000 
     69 CA         83.9255   23.6813   19.7707 C.3       3 GLC5        0.0000 
     70 CA         81.8650   23.6000   20.0740 C.3       6 GLP5        0.0000 
     71 CA         87.6490   21.0735   21.9037 C.3       3 GLC5        0.0000 
     72 CA         86.8560   22.7270   20.8510 C.3       9 GLL5        0.0000 
     73 CA         88.3250   20.0410   23.3030 C.3       6 GLP5        0.0000 
     74 CA         84.8545   17.1288   14.0462 C.3       3 GLC5        0.0000 
     75 CA         82.8820   16.8210   13.3600 C.3       6 GLP5        0.0000 
     76 CA         84.6508   16.7848   13.0162 C.3       3 GLC5        0.0000 
     77 CA         84.3893   17.8098   13.3135 C.3       3 GLC5        0.0000 
     78 CA         87.7705   19.3691   13.8849 C.3       3 GLC5        0.0000 
     79 CA         89.1120   20.5090   13.4320 C.3       6 GLP5        0.0000 
@<TRIPOS>BOND
@<TRIPOS>SUBSTRUCTURE
     1 ALC1        1 GROUP        1 X    ALC  0     ROOT ALC X 1
     2 SEC2        4 GROUP        1 X    SEC  0     **** SEC X 2
     3 GLC5        9 GROUP        1 X    GLC  0     **** GLC X 6
     4 ALP1        3 GROUP        1 Y    ALP  0     ROOT ALP Y 8
     5 SEP2        6 GROUP        1 Y    SEP  0     **** SEP Y 9
     6 GLP5       11 GROUP        1 Y    GLP  0     **** GLP Y 13
     7 ALL1        2 GROUP        1 Z    ALL  0     ROOT ALL Z 15
     8 SEL2        5 GROUP        1 Z    SEL  0     **** SEL Z 16
     9 GLL5       10 GROUP        1 Z    GLL  0     **** GLL Z 20
@<TRIPOS>SET

