#    Name: 4msk_2C8_2_ligand
#    Modification time : Tue Mar 25 12:22:18 2014

@<TRIPOS>MOLECULE
4msk_2C8_2_ligand
   52    56     1     0     0
SMALL
NO_CHARGES


@<TRIPOS>ATOM
      1 N1         83.3020   25.2210   24.7920 N.am      1 2C81402     0.0000 
      2 C1         83.1020   24.8690   26.1180 C.2       1 2C81402     0.0000 
      3 O1         82.4120   23.9030   26.4300 O.2       1 2C81402     0.0000 
      4 C2         83.7160   25.6660   27.1470 C.ar      1 2C81402     0.0000 
      5 C3         83.6090   25.4350   28.5700 C.ar      1 2C81402     0.0000 
      6 C4         84.2850   26.3430   29.5060 C.ar      1 2C81402     0.0000 
      7 C5         85.0670   27.4890   29.0200 C.ar      1 2C81402     0.0000 
      8 C6         85.1860   27.7360   27.5860 C.ar      1 2C81402     0.0000 
      9 C7         84.5200   26.8410   26.6470 C.ar      1 2C81402     0.0000 
     10 N2         84.6240   27.0600   25.3000 N.2       1 2C81402     0.0000 
     11 C8         84.0420   26.2960   24.3610 C.2       1 2C81402     0.0000 
     12 C9         84.1750   26.6680   22.9270 C.3       1 2C81402     0.0000 
     13 C10        85.6010   26.6310   22.4710 C.3       1 2C81402     0.0000 
     14 C11        86.0330   25.2590   22.1700 C.2       1 2C81402     0.0000 
     15 O2         86.3850   24.5040   23.0750 O.2       1 2C81402     0.0000 
     16 N3         85.9520   25.0000   20.8140 N.am      1 2C81402     0.0000 
     17 C12        86.1990   23.8270   20.1610 C.ar      1 2C81402     0.0000 
     18 C13        85.7730   23.6980   18.7740 C.ar      1 2C81402     0.0000 
     19 C14        86.0010   22.4590   18.0640 C.ar      1 2C81402     0.0000 
     20 C15        86.8560   22.7270   20.8510 C.ar      1 2C81402     0.0000 
     21 C16        87.0900   21.4850   20.1580 C.ar      1 2C81402     0.0000 
     22 C18        86.9390   20.0340   18.0390 C.2       1 2C81402     0.0000 
     23 C17        86.6680   21.3350   18.7630 C.ar      1 2C81402     0.0000 
     24 N4         87.6750   18.9590   18.4120 N.2       1 2C81402     0.0000 
     25 N5         87.6880   18.0620   17.3590 N.2       1 2C81402     0.0000 
     26 C19        86.9450   18.6120   16.3430 C.2       1 2C81402     0.0000 
     27 C20        86.6580   18.1200   14.9430 C.ar      1 2C81402     0.0000 
     28 O3         86.4980   19.8000   16.7830 O.3       1 2C81402     0.0000 
     29 C21        86.9960   16.7530   14.5220 C.ar      1 2C81402     0.0000 
     30 C22        86.7290   16.2940   13.1610 C.ar      1 2C81402     0.0000 
     31 C23        86.1100   17.2030   12.1840 C.ar      1 2C81402     0.0000 
     32 C24        85.7620   18.5750   12.5910 C.ar      1 2C81402     0.0000 
     33 C25        86.0310   19.0220   13.9430 C.ar      1 2C81402     0.0000 
     34 H          82.8426   24.6049   24.0501 H         1 2C81402     0.0000 
     35 H          83.0784   24.6616   28.9266 H         1 2C81402     0.0000 
     36 H          84.2117   26.1778   30.4996 H         1 2C81402     0.0000 
     37 H          85.5173   28.0989   29.6774 H         1 2C81402     0.0000 
     38 H          85.7206   28.5135   27.2509 H         1 2C81402     0.0000 
     39 H          83.7699   27.6794   22.7682 H         1 2C81402     0.0000 
     40 H          83.5790   25.9785   22.3093 H         1 2C81402     0.0000 
     41 H          86.2394   27.0651   23.2562 H         1 2C81402     0.0000 
     42 H          85.7079   27.2660   21.5777 H         1 2C81402     0.0000 
     43 H          85.6516   25.8459   20.1917 H         1 2C81402     0.0000 
     44 H          85.3215   24.4719   18.3151 H         1 2C81402     0.0000 
     45 H          85.7182   22.3459   17.1130 H         1 2C81402     0.0000 
     46 H          87.1440   22.8393   21.8098 H         1 2C81402     0.0000 
     47 H          87.5424   20.7148   20.6231 H         1 2C81402     0.0000 
     48 H          87.4208   16.1219   15.1890 H         1 2C81402     0.0000 
     49 H          86.9667   15.3577   12.8878 H         1 2C81402     0.0000 
     50 H          85.9273   16.8937   11.2540 H         1 2C81402     0.0000 
     51 H          85.3376   19.1945   11.9223 H         1 2C81402     0.0000 
     52 H          85.7928   19.9641   14.2265 H         1 2C81402     0.0000 
@<TRIPOS>BOND
     1    2    1 am   
     2   11    1 1    
     3   34    1 1    
     4    3    2 2    
     5    4    2 1    
     6    5    4 ar   
     7    9    4 ar   
     8    6    5 ar   
     9   35    5 1    
    10    7    6 ar   
    11   36    6 1    
    12    8    7 ar   
    13   37    7 1    
    14    9    8 ar   
    15   38    8 1    
    16   10    9 1    
    17   11   10 2    
    18   12   11 1    
    19   13   12 1    
    20   39   12 1    
    21   40   12 1    
    22   14   13 1    
    23   41   13 1    
    24   42   13 1    
    25   15   14 2    
    26   16   14 am   
    27   17   16 1    
    28   43   16 1    
    29   18   17 ar   
    30   20   17 ar   
    31   19   18 ar   
    32   44   18 1    
    33   23   19 ar   
    34   45   19 1    
    35   21   20 ar   
    36   46   20 1    
    37   23   21 ar   
    38   47   21 1    
    39   23   22 1    
    40   24   22 2    
    41   28   22 1    
    42   25   24 1    
    43   26   25 2    
    44   27   26 1    
    45   28   26 1    
    46   29   27 ar   
    47   33   27 ar   
    48   30   29 ar   
    49   48   29 1    
    50   31   30 ar   
    51   49   30 1    
    52   32   31 ar   
    53   50   31 1    
    54   33   32 ar   
    55   51   32 1    
    56   52   33 1    
@<TRIPOS>SUBSTRUCTURE
     1 2C81402     1 GROUP   
@<TRIPOS>SET

