#    Name: 4fz7_0VH_1_INTS_M
#    Modification time : Mon Mar 24 21:07:46 2014

@<TRIPOS>MOLECULE
4fz7_0VH_1_INTS_M
   71     0    12     0     0
SMALL
NO_CHARGES


@<TRIPOS>ATOM
      1 CA          1.9390   -3.5855   15.4415 C.3       4 GLC5        0.0000 
      2 CA          0.6160   -2.2080   15.1270 C.3      12 GLL5        0.0000 
      3 CA          3.2620   -4.9630   15.7560 C.3       8 GLP5        0.0000 
      4 CA          1.9890   -1.2305   12.4755 C.3       4 GLC5        0.0000 
      5 CA          1.1400   -1.1010   14.4960 C.3      12 GLL5        0.0000 
      6 CA          2.8380   -1.3600   10.4550 C.3       8 GLP5        0.0000 
      7 CA          4.6765    3.4355   11.6180 C.3       4 GLC5        0.0000 
      8 CA          3.4360    2.5530   13.2300 C.3      12 GLL5        0.0000 
      9 CA          5.9170    4.3180   10.0060 C.3       8 GLP5        0.0000 
     10 CA          6.1775    0.6715   13.5840 C.3       4 GLC5        0.0000 
     11 CA          4.4490    0.5750   14.7910 C.3      12 GLL5        0.0000 
     12 CA          7.9060    0.7680   12.3770 C.3       8 GLP5        0.0000 
     13 N           4.5640   -2.2590   17.3300 N.am      2 SEC2        0.0000 
     14 N           4.5030   -1.4420   16.1640 N.am     10 SEL2        0.0000 
     15 N           4.6250   -3.0760   18.4960 N.am      6 SEP2        0.0000 
     16 O           7.1735   -1.3725   16.4155 O.2       1 ALC1        0.0000 
     17 O           6.3840   -0.3010   15.8240 O.2       9 ALL1        0.0000 
     18 O           7.9630   -2.4440   17.0070 O.2       5 ALP1        0.0000 
     19 O           3.5560    4.9045   12.4750 O.2       1 ALC1        0.0000 
     20 O           2.9680    3.6170   12.5200 O.2       9 ALL1        0.0000 
     21 O           4.1440    6.1920   12.4300 O.2       5 ALP1        0.0000 
     22 CA          1.3580    4.0755   15.2785 C.3       4 GLC5        0.0000 
     23 CA          0.6880    4.2890   13.1660 C.3      12 GLL5        0.0000 
     24 CA          2.0280    3.8620   17.3910 C.3       8 GLP5        0.0000 
     25 CA          3.7385    4.3515   10.3520 C.3       4 GLC5        0.0000 
     26 CA          1.5600    4.3850   10.6980 C.3      12 GLL5        0.0000 
     27 OD1         2.6330    5.9285   12.9835 O.co2     3 ASC3        0.0000 
     28 OD1         1.1220    5.6650   13.5370 O.co2    11 ASL3        0.0000 
     29 OD1         4.1440    6.1920   12.4300 O.co2     7 ASP3        0.0000 
     30 OD1         2.3585    5.8780   14.0355 O.co2     3 ASC3        0.0000 
     31 OD1         3.5950    6.0910   14.5340 O.co2     7 ASP3        0.0000 
     32 O           0.3675    6.0790   14.6595 O.2       1 ALC1        0.0000 
     33 O           1.1220    5.6650   13.5370 O.2       9 ALL1        0.0000 
     34 O          -0.3870    6.4930   15.7820 O.2       5 ALP1        0.0000 
     35 O           2.6330    5.9285   12.9835 O.2       1 ALC1        0.0000 
     36 O           2.3585    5.8780   14.0355 O.2       1 ALC1        0.0000 
     37 O           3.5950    6.0910   14.5340 O.2       5 ALP1        0.0000 
     38 CA         -0.8485   -1.6930   10.8400 C.3       4 GLC5        0.0000 
     39 CA         -1.1590    0.4170   11.1270 C.3      12 GLL5        0.0000 
     40 CA         -0.5380   -3.8030   10.5530 C.3       8 GLP5        0.0000 
     41 CA         -1.8450   -0.0975    9.5580 C.3       4 GLC5        0.0000 
     42 CA         -2.5310   -0.6120    7.9890 C.3       8 GLP5        0.0000 
     43 CA          0.5490   -0.1265   10.1540 C.3       4 GLC5        0.0000 
     44 CA          2.2570   -0.6700    9.1810 C.3       8 GLP5        0.0000 
     45 CA          0.3247   -3.6930   13.6758 C.3       4 GLC5        0.0000 
     46 CA          0.7160   -5.0220   12.3000 C.3       8 GLP5        0.0000 
     47 CA          1.2020   -0.0453   16.0003 C.3       4 GLC5        0.0000 
     48 CA          1.5260    1.5640   17.1890 C.3       8 GLP5        0.0000 
     49 CA         -0.8660   -2.4808   12.1810 C.3       4 GLC5        0.0000 
     50 CA         -1.5060   -1.6910   14.1440 C.3      12 GLL5        0.0000 
     51 CA         -1.3489   -0.7518   15.7535 C.3       4 GLC5        0.0000 
     52 CA         -0.8820   -0.6260   13.4740 C.3      12 GLL5        0.0000 
     53 CA         -1.4640   -0.6670   17.9020 C.3       8 GLP5        0.0000 
     54 CA         -0.4636   -1.1998   16.3379 C.3       4 GLC5        0.0000 
     55 CA         -0.7490   -2.5200   14.9760 C.3      12 GLL5        0.0000 
     56 CA         -1.9112    0.5054   14.7220 C.3       4 GLC5        0.0000 
     57 CA         -2.3800    1.4500   16.2540 C.3       8 GLP5        0.0000 
     58 CA          2.8390   -0.2168   12.1720 C.3       4 GLC5        0.0000 
     59 CA          2.5670    1.4500   13.4880 C.3      12 GLL5        0.0000 
     60 CA          4.7715   -1.1980   14.0467 C.3       4 GLC5        0.0000 
     61 CA          3.1130    0.4030   14.2900 C.3      12 GLL5        0.0000 
     62 CA          5.7620   -2.8850   13.5530 C.3       8 GLP5        0.0000 
     63 CA          2.5852    1.1574   15.7645 C.3       4 GLC5        0.0000 
     64 CA          2.0488    2.4138   10.2700 C.3       4 GLC5        0.0000 
     65 CA          1.5850    3.6480   12.0560 C.3      12 GLL5        0.0000 
     66 CA          2.5250    0.8110    9.1630 C.3       8 GLP5        0.0000 
     67 CA         -1.1878    3.5790   14.2477 C.3       4 GLC5        0.0000 
     68 CA         -2.3460    2.8270   15.6110 C.3       8 GLP5        0.0000 
     69 CA          2.0760    4.8138    8.8052 C.3       4 GLC5        0.0000 
     70 CA          0.1380    4.5440   10.1130 C.3      12 GLL5        0.0000 
     71 CA          3.3030    5.1630    7.2050 C.3       8 GLP5        0.0000 
@<TRIPOS>BOND
@<TRIPOS>SUBSTRUCTURE
     1 ALC1       16 GROUP        1 X    ALC  0     ROOT ALC X 1
     2 SEC2       13 GROUP        1 X    SEC  0     **** SEC X 2
     3 ASC3       27 GROUP        1 X    ASC  0     **** ASC X 3
     4 GLC5        1 GROUP        1 X    GLC  0     **** GLC X 6
     5 ALP1       18 GROUP        1 Y    ALP  0     ROOT ALP Y 8
     6 SEP2       15 GROUP        1 Y    SEP  0     **** SEP Y 9
     7 ASP3       29 GROUP        1 Y    ASP  0     **** ASP Y 10
     8 GLP5        3 GROUP        1 Y    GLP  0     **** GLP Y 13
     9 ALL1       17 GROUP        1 Z    ALL  0     ROOT ALL Z 15
    10 SEL2       14 GROUP        1 Z    SEL  0     **** SEL Z 16
    11 ASL3       28 GROUP        1 Z    ASL  0     **** ASL Z 17
    12 GLL5        2 GROUP        1 Z    GLL  0     **** GLL Z 20
@<TRIPOS>SET

