#    Name: 4fz7_0VH_1_ligand
#    Modification time : Mon Mar 24 21:07:46 2014

@<TRIPOS>MOLECULE
4fz7_0VH_1_ligand
   52    54     1     0     0
SMALL
NO_CHARGES


@<TRIPOS>ATOM
      1 C1          0.6160   -2.2080   15.1270 C.ar      1 0VH701      0.0000 
      2 C2         -0.7490   -2.5200   14.9760 C.ar      1 0VH701      0.0000 
      3 C3         -1.5060   -1.6910   14.1440 C.ar      1 0VH701      0.0000 
      4 C4         -0.8820   -0.6260   13.4740 C.ar      1 0VH701      0.0000 
      5 N5          0.4050   -0.3540   13.6770 N.ar      1 0VH701      0.0000 
      6 C6          1.1400   -1.1010   14.4960 C.ar      1 0VH701      0.0000 
      7 N7          2.5150   -0.7950   14.6130 N.pl3     1 0VH701      0.0000 
      8 C8         -1.6910    0.2800   12.5710 C.3       1 0VH701      0.0000 
      9 C9          3.1130    0.4030   14.2900 C.ar      1 0VH701      0.0000 
     10 C10         2.5670    1.4500   13.4880 C.ar      1 0VH701      0.0000 
     11 C11         3.4360    2.5530   13.2300 C.ar      1 0VH701      0.0000 
     12 N12         4.6480    2.6510   13.7960 N.ar      1 0VH701      0.0000 
     13 N13         5.1630    1.6930   14.5390 N.ar      1 0VH701      0.0000 
     14 C14         4.4490    0.5750   14.7910 C.ar      1 0VH701      0.0000 
     15 C15         5.0820   -0.4640   15.6300 C.2       1 0VH701      0.0000 
     16 O16         4.5030   -1.4420   16.1640 O.2       1 0VH701      0.0000 
     17 N17         6.3840   -0.3010   15.8240 N.am      1 0VH701      0.0000 
     18 N18         2.9680    3.6170   12.5200 N.pl3     1 0VH701      0.0000 
     19 C19         1.5850    3.6480   12.0560 C.3       1 0VH701      0.0000 
     20 C20         0.6880    4.2890   13.1660 C.3       1 0VH701      0.0000 
     21 C21        -0.7470    4.3730   12.6030 C.3       1 0VH701      0.0000 
     22 C22        -0.8320    5.0660   11.2110 C.3       1 0VH701      0.0000 
     23 C23         0.1380    4.5440   10.1130 C.3       1 0VH701      0.0000 
     24 C24         1.5600    4.3850   10.6980 C.3       1 0VH701      0.0000 
     25 N25         1.1220    5.6650   13.5370 N.4       1 0VH701      0.0000 
     26 C26        -1.1590    0.4170   11.1270 C.3       1 0VH701      0.0000 
     27 H           1.2076   -2.8124   15.7086 H         1 0VH701      0.0000 
     28 H          -1.1567   -3.3071   15.4491 H         1 0VH701      0.0000 
     29 H          -2.5069   -1.8558   14.0218 H         1 0VH701      0.0000 
     30 H           3.1403   -1.5789   14.9903 H         1 0VH701      0.0000 
     31 H          -1.7421    1.2928   13.0172 H         1 0VH701      0.0000 
     32 H          -2.7346   -0.0885   12.5204 H         1 0VH701      0.0000 
     33 H           1.6472    1.4139   13.1342 H         1 0VH701      0.0000 
     34 H           6.7974    0.4979   15.3871 H         1 0VH701      0.0000 
     35 H           6.8345   -0.9918   16.3896 H         1 0VH701      0.0000 
     36 H           3.5587    4.4236   12.2879 H         1 0VH701      0.0000 
     37 H           1.2400    2.6306   11.8947 H         1 0VH701      0.0000 
     38 H           0.6748    3.6433   14.0104 H         1 0VH701      0.0000 
     39 H          -1.3760    4.9288   13.3077 H         1 0VH701      0.0000 
     40 H          -1.1562    3.3602   12.5134 H         1 0VH701      0.0000 
     41 H          -0.6533    6.1509   11.3496 H         1 0VH701      0.0000 
     42 H          -1.8704    4.9698   10.8359 H         1 0VH701      0.0000 
     43 H           0.1629    5.2544    9.2999 H         1 0VH701      0.0000 
     44 H          -0.2134    3.5853    9.7610 H         1 0VH701      0.0000 
     45 H           2.1773    3.8304    9.9823 H         1 0VH701      0.0000 
     46 H           2.0034    5.3790   10.8259 H         1 0VH701      0.0000 
     47 H           2.1080    5.7867   13.4235 H         1 0VH701      0.0000 
     48 H           0.6742    6.3600   12.9745 H         1 0VH701      0.0000 
     49 H           0.9083    5.8774   14.4906 H         1 0VH701      0.0000 
     50 H          -0.2319    0.7914   11.1067 H         1 0VH701      0.0000 
     51 H          -1.1292   -0.4651   10.6569 H         1 0VH701      0.0000 
     52 H          -1.7322    1.0236   10.5760 H         1 0VH701      0.0000 
@<TRIPOS>BOND
     1    2    1 ar   
     2    6    1 ar   
     3   27    1 1    
     4    3    2 ar   
     5   28    2 1    
     6    4    3 ar   
     7   29    3 1    
     8    5    4 ar   
     9    8    4 1    
    10    6    5 ar   
    11    7    6 1    
    12    9    7 1    
    13   30    7 1    
    14   26    8 1    
    15   31    8 1    
    16   32    8 1    
    17   10    9 ar   
    18   14    9 ar   
    19   11   10 ar   
    20   33   10 1    
    21   12   11 ar   
    22   18   11 1    
    23   13   12 ar   
    24   14   13 ar   
    25   15   14 1    
    26   16   15 2    
    27   17   15 am   
    28   34   17 1    
    29   35   17 1    
    30   19   18 1    
    31   36   18 1    
    32   20   19 1    
    33   24   19 1    
    34   37   19 1    
    35   21   20 1    
    36   25   20 1    
    37   38   20 1    
    38   22   21 1    
    39   39   21 1    
    40   40   21 1    
    41   23   22 1    
    42   41   22 1    
    43   42   22 1    
    44   24   23 1    
    45   43   23 1    
    46   44   23 1    
    47   45   24 1    
    48   46   24 1    
    49   47   25 1    
    50   48   25 1    
    51   49   25 1    
    52   50   26 1    
    53   51   26 1    
    54   52   26 1    
@<TRIPOS>SUBSTRUCTURE
     1 0VH701      1 GROUP   
@<TRIPOS>SET

