#    Name: 1jed_ADP_1_INTS_M
#    Modification time : Tue Mar 25 08:50:07 2014

@<TRIPOS>MOLECULE
1jed_ADP_1_INTS_M
   75     0    15     0     0
SMALL
NO_CHARGES


@<TRIPOS>ATOM
      1 N          99.6535  194.2810  143.5010 N.am      2 SEC2        0.0000 
      2 N          99.9080  193.5100  144.6130 N.am     12 SEL2        0.0000 
      3 N          99.3990  195.0520  142.3890 N.am      7 SEP2        0.0000 
      4 NZ         96.2125  193.3285  145.5635 N.4       3 LYC4        0.0000 
      5 NZ         97.4600  194.0720  145.2700 N.4      13 LYL4        0.0000 
      6 NZ         93.9870  193.0740  146.5980 N.4       8 LYP4        0.0000 
      7 N          96.2125  193.3285  145.5635 N.am      2 SEC2        0.0000 
      8 N          97.4600  194.0720  145.2700 N.am     12 SEL2        0.0000 
      9 N          94.9650  192.5850  145.8570 N.am      7 SEP2        0.0000 
     10 N          99.8200  194.8895  147.7385 N.am      2 SEC2        0.0000 
     11 N          99.3300  193.8560  146.9650 N.am     12 SEL2        0.0000 
     12 N         100.3100  195.9230  148.5120 N.am      7 SEP2        0.0000 
     13 N          99.2515  190.8760  149.3655 N.am      2 SEC2        0.0000 
     14 N          98.4210  191.3020  148.0750 N.am     12 SEL2        0.0000 
     15 N         100.0820  190.4500  150.6560 N.am      7 SEP2        0.0000 
     16 N          98.3915  192.1130  149.1955 N.am      2 SEC2        0.0000 
     17 N          98.3620  192.9240  150.3160 N.am      7 SEP2        0.0000 
     18 N          97.5405  191.1390  149.4915 N.am      2 SEC2        0.0000 
     19 N          96.6600  190.9760  150.9080 N.am      7 SEP2        0.0000 
     20 Zn         97.3985  189.8440  145.1460 Zn        4 ZIC7        0.0000 
     21 Zn         97.7350  189.6430  146.4150 Zn       14 ZIL7        0.0000 
     22 Zn         97.0620  190.0450  143.8770 Zn        9 ZIP7        0.0000 
     23 N          96.4130  189.7350  147.0680 N.am      2 SEC2        0.0000 
     24 N          97.7350  189.6430  146.4150 N.am     12 SEL2        0.0000 
     25 N          95.0910  189.8270  147.7210 N.am      7 SEP2        0.0000 
     26 CA        102.5720  189.9310  147.9395 C.3       5 GLC5        0.0000 
     27 CA        101.3080  191.1120  146.8880 C.3      15 GLL5        0.0000 
     28 CA        103.8360  188.7500  148.9910 C.3      10 GLP5        0.0000 
     29 CA        101.0365  191.9310  148.5105 C.3       5 GLC5        0.0000 
     30 CA        100.7650  192.7500  150.1330 C.3      10 GLP5        0.0000 
     31 CA        103.6750  189.9640  147.0095 C.3       5 GLC5        0.0000 
     32 CA        102.5070  190.8490  145.9340 C.3      15 GLL5        0.0000 
     33 CA        104.8430  189.0790  148.0850 C.3      10 GLP5        0.0000 
     34 CA        103.0900  193.0070  143.8535 C.3       5 GLC5        0.0000 
     35 CA        102.3430  191.4710  144.5570 C.3      15 GLL5        0.0000 
     36 CA        103.8370  194.5430  143.1500 C.3      10 GLP5        0.0000 
     37 N         104.5005  191.5055  142.8260 N.am      2 SEC2        0.0000 
     38 N         103.5760  191.9980  144.0650 N.am     12 SEL2        0.0000 
     39 N         105.4250  191.0130  141.5870 N.am      7 SEP2        0.0000 
     40 CA        101.4240  192.0395  142.3805 C.3       5 GLC5        0.0000 
     41 CA        101.8930  190.3250  143.6570 C.3      15 GLL5        0.0000 
     42 CA        100.9550  193.7540  141.1040 C.3      10 GLP5        0.0000 
     43 O         101.2725  190.1780  141.3020 O.2       1 ALC1        0.0000 
     44 O         102.1320  190.5320  142.2480 O.2      11 ALL1        0.0000 
     45 O         100.4130  189.8240  140.3560 O.2       6 ALP1        0.0000 
     46 CA        103.7535  189.1315  146.1780 C.3       5 GLC5        0.0000 
     47 CA        102.6640  189.1840  144.2710 C.3      15 GLL5        0.0000 
     48 CA        101.1805  183.7155  141.0055 C.3       5 GLC5        0.0000 
     49 CA        102.0480  184.6590  142.5390 C.3      15 GLL5        0.0000 
     50 CA        100.3130  182.7720  139.4720 C.3      10 GLP5        0.0000 
     51 CA        103.4875  183.2510  142.5495 C.3       5 GLC5        0.0000 
     52 CA        104.9270  181.8430  142.5600 C.3      10 GLP5        0.0000 
     53 N         103.4735  183.5565  141.0490 N.am      2 SEC2        0.0000 
     54 N         103.1350  184.7040  141.7020 N.am     12 SEL2        0.0000 
     55 N         103.8120  182.4090  140.3960 N.am      7 SEP2        0.0000 
     56 CA        104.7670  185.8065  143.2960 C.3       5 GLC5        0.0000 
     57 CA        103.9200  185.8090  141.6060 C.3      15 GLL5        0.0000 
     58 CA        105.6140  185.8040  144.9860 C.3      10 GLP5        0.0000 
     59 CA        104.4385  187.7910  141.3095 C.3       5 GLC5        0.0000 
     60 CA        104.9570  189.7730  141.0130 C.3      10 GLP5        0.0000 
     61 CA        102.6900  186.6310  140.1405 C.3       5 GLC5        0.0000 
     62 CA        101.4600  187.4530  138.6750 C.3      10 GLP5        0.0000 
     63 CA        105.9370  186.3350  141.2605 C.3       5 GLC5        0.0000 
     64 CA        107.9540  186.8610  140.9150 C.3      10 GLP5        0.0000 
     65 CA        103.5480  184.6345  139.9375 C.3       5 GLC5        0.0000 
     66 CA        103.1760  183.4600  138.2690 C.3      10 GLP5        0.0000 
     67 CA        105.0630  184.2160  141.9670 C.3       5 GLC5        0.0000 
     68 CA        106.2060  182.6230  142.3280 C.3      10 GLP5        0.0000 
     69 N         103.3625  187.8790  141.0575 N.am      2 SEC2        0.0000 
     70 N         103.6200  186.8830  142.3580 N.am     12 SEL2        0.0000 
     71 N         103.1050  188.8750  139.7570 N.am      7 SEP2        0.0000 
     72 CA        103.7585  188.3425  142.1100 C.3       5 GLC5        0.0000 
     73 CA        102.5600  186.9120  143.2070 C.3      15 GLL5        0.0000 
     74 CA        103.6178  189.7637  142.4885 C.3       5 GLC5        0.0000 
     75 CA        103.9184  185.9340  144.0272 C.3       5 GLC5        0.0000 
@<TRIPOS>BOND
@<TRIPOS>SUBSTRUCTURE
     1 ALC1       43 GROUP        1 X    ALC  0     ROOT ALC X 1
     2 SEC2        1 GROUP        1 X    SEC  0     **** SEC X 2
     3 LYC4        4 GROUP        1 X    LYC  0     **** LYC X 4
     4 ZIC7       20 GROUP        1 X    ZIC  0     **** ZIC X 5
     5 GLC5       26 GROUP        1 X    GLC  0     **** GLC X 6
     6 ALP1       45 GROUP        1 Y    ALP  0     ROOT ALP Y 8
     7 SEP2        3 GROUP        1 Y    SEP  0     **** SEP Y 9
     8 LYP4        6 GROUP        1 Y    LYP  0     **** LYP Y 11
     9 ZIP7       22 GROUP        1 Y    ZIP  0     **** ZIP Y 12
    10 GLP5       28 GROUP        1 Y    GLP  0     **** GLP Y 13
    11 ALL1       44 GROUP        1 Z    ALL  0     ROOT ALL Z 15
    12 SEL2        2 GROUP        1 Z    SEL  0     **** SEL Z 16
    13 LYL4        5 GROUP        1 Z    LYL  0     **** LYL Z 18
    14 ZIL7       21 GROUP        1 Z    ZIL  0     **** ZIL Z 19
    15 GLL5       27 GROUP        1 Z    GLL  0     **** GLL Z 20
@<TRIPOS>SET

