#    Name: 1jed_ADP_1_ligand
#    Modification time : Tue Mar 25 08:50:07 2014

@<TRIPOS>MOLECULE
1jed_ADP_1_ligand
   39    41     1     0     0
SMALL
NO_CHARGES


@<TRIPOS>ATOM
      1 PB         98.8650  193.3580  145.6500 P.3       1 ADP635      0.0000 
      2 O1B        99.9080  193.5100  144.6130 O.co2     1 ADP635      0.0000 
      3 O2B        97.4600  194.0720  145.2700 O.co2     1 ADP635      0.0000 
      4 O3B        99.3300  193.8560  146.9650 O.co2     1 ADP635      0.0000 
      5 PA         98.6830  190.7190  146.7510 P.3       1 ADP635      0.0000 
      6 O1A        98.4210  191.3020  148.0750 O.co2     1 ADP635      0.0000 
      7 O2A        97.7350  189.6430  146.4150 O.co2     1 ADP635      0.0000 
      8 O3A        98.5170  191.8620  145.6960 O.3       1 ADP635      0.0000 
      9 O5'       100.2060  190.2280  146.5870 O.3       1 ADP635      0.0000 
     10 C5'       101.3080  191.1120  146.8880 C.3       1 ADP635      0.0000 
     11 C4'       102.5070  190.8490  145.9340 C.3       1 ADP635      0.0000 
     12 O4'       102.6840  189.4420  145.7020 O.3       1 ADP635      0.0000 
     13 C3'       102.3430  191.4710  144.5570 C.3       1 ADP635      0.0000 
     14 O3'       103.5760  191.9980  144.0650 O.3       1 ADP635      0.0000 
     15 C2'       101.8930  190.3250  143.6570 C.3       1 ADP635      0.0000 
     16 O2'       102.1320  190.5320  142.2480 O.3       1 ADP635      0.0000 
     17 C1'       102.6640  189.1840  144.2710 C.3       1 ADP635      0.0000 
     18 N9        102.0840  187.8210  144.0280 N.pl3     1 ADP635      0.0000 
     19 C8        100.9970  187.3120  144.6320 C.2       1 ADP635      0.0000 
     20 N7        100.7880  186.0670  144.1940 N.2       1 ADP635      0.0000 
     21 C5        101.7230  185.7730  143.3210 C.ar      1 ADP635      0.0000 
     22 C6        102.0480  184.6590  142.5390 C.ar      1 ADP635      0.0000 
     23 N6        101.3050  183.5480  142.6050 N.pl3     1 ADP635      0.0000 
     24 N1        103.1350  184.7040  141.7020 N.ar      1 ADP635      0.0000 
     25 C2        103.9200  185.8090  141.6060 C.ar      1 ADP635      0.0000 
     26 N3        103.6200  186.8830  142.3580 N.ar      1 ADP635      0.0000 
     27 C4        102.5600  186.9120  143.2070 C.ar      1 ADP635      0.0000 
     28 H         101.6710  190.9721  147.9130 H         1 ADP635      0.0000 
     29 H         101.0255  192.1650  146.7728 H         1 ADP635      0.0000 
     30 H         103.4010  191.2631  146.3851 H         1 ADP635      0.0000 
     31 H         101.5631  192.1888  144.5932 H         1 ADP635      0.0000 
     32 H         100.8440  190.1529  143.8880 H         1 ADP635      0.0000 
     33 H         103.6827  189.2173  143.8998 H         1 ADP635      0.0000 
     34 H         100.4484  187.7818  145.2878 H         1 ADP635      0.0000 
     35 H         101.2794  183.0879  143.4924 H         1 ADP635      0.0000 
     36 H         100.8420  183.2775  141.7610 H         1 ADP635      0.0000 
     37 H         104.7302  185.8176  140.9658 H         1 ADP635      0.0000 
     38 H         104.1491  192.1155  144.8760 H         1 ADP635      0.0000 
     39 H         101.6099  189.8133  141.7887 H         1 ADP635      0.0000 
@<TRIPOS>BOND
     1    2    1 ar   
     2    3    1 ar   
     3    4    1 ar   
     4    8    1 1    
     5    6    5 ar   
     6    7    5 ar   
     7    8    5 1    
     8    9    5 1    
     9   10    9 1    
    10   11   10 1    
    11   28   10 1    
    12   29   10 1    
    13   12   11 1    
    14   13   11 1    
    15   30   11 1    
    16   17   12 1    
    17   14   13 1    
    18   15   13 1    
    19   31   13 1    
    20   38   14 1    
    21   16   15 1    
    22   17   15 1    
    23   32   15 1    
    24   39   16 1    
    25   18   17 1    
    26   33   17 1    
    27   19   18 1    
    28   27   18 1    
    29   20   19 2    
    30   34   19 1    
    31   21   20 1    
    32   22   21 ar   
    33   27   21 ar   
    34   23   22 1    
    35   24   22 ar   
    36   35   23 1    
    37   36   23 1    
    38   25   24 ar   
    39   26   25 ar   
    40   37   25 1    
    41   27   26 ar   
@<TRIPOS>SUBSTRUCTURE
     1 ADP635      1 GROUP   
@<TRIPOS>SET

