#    Name: 2zx6_ZX6_2_INTS_M
#    Modification time : Tue Mar 25 11:15:15 2014

@<TRIPOS>MOLECULE
2zx6_ZX6_2_INTS_M
   71     0    12     0     0
SMALL
NO_CHARGES


@<TRIPOS>ATOM
      1 CA         23.1315    3.2515   54.4780 C.3       4 GLC5        0.0000 
      2 CA         23.7220    4.2340   53.0000 C.3      12 GLL5        0.0000 
      3 CA         22.5410    2.2690   55.9560 C.3       8 GLP5        0.0000 
      4 CA         28.2040    6.9530   52.5870 C.3       4 GLC5        0.0000 
      5 CA         26.4820    6.0720   51.6980 C.3      12 GLL5        0.0000 
      6 CA         29.9260    7.8340   53.4760 C.3       8 GLP5        0.0000 
      7 CA         27.8590    5.5310   50.2830 C.3       4 GLC5        0.0000 
      8 CA         29.2360    4.9900   48.8680 C.3       8 GLP5        0.0000 
      9 CA         28.9825    3.9085   53.5080 C.3       4 GLC5        0.0000 
     10 CA         26.9930    4.1870   53.3280 C.3      12 GLL5        0.0000 
     11 CA         30.9720    3.6300   53.6880 C.3       8 GLP5        0.0000 
     12 CA         23.8890    3.4085   56.3355 C.3       4 GLC5        0.0000 
     13 CA         25.2370    4.5480   56.7150 C.3      12 GLL5        0.0000 
     14 OD1        24.9965    6.7265   58.0105 O.co2     3 ASC3        0.0000 
     15 OD1        26.3300    6.4740   57.7730 O.co2    11 ASL3        0.0000 
     16 OD1        23.6630    6.9790   58.2480 O.co2     7 ASP3        0.0000 
     17 OD1        24.6155    6.7350   56.9890 O.co2     3 ASC3        0.0000 
     18 OD1        22.9010    6.9960   56.2050 O.co2     7 ASP3        0.0000 
     19 OD1        27.6950    6.1970   56.9550 O.co2     3 ASC3        0.0000 
     20 OD1        29.0600    5.9200   56.1370 O.co2     7 ASP3        0.0000 
     21 OD1        27.0560    7.0205   56.5900 O.co2     3 ASC3        0.0000 
     22 OD1        27.7820    7.5670   55.4070 O.co2     7 ASP3        0.0000 
     23 CA         29.2480    7.1815   58.9580 C.3       4 GLC5        0.0000 
     24 CA         27.3710    6.9950   58.6770 C.3      12 GLL5        0.0000 
     25 CA         31.1250    7.3680   59.2390 C.3       8 GLP5        0.0000 
     26 CA         27.1340   10.4740   59.0010 C.3       4 GLC5        0.0000 
     27 CA         27.2970    8.5230   58.6960 C.3      12 GLL5        0.0000 
     28 CA         26.9710   12.4250   59.3060 C.3       8 GLP5        0.0000 
     29 CA         25.9555    9.8480   57.5305 C.3       4 GLC5        0.0000 
     30 CA         24.6140   11.1730   56.3650 C.3       8 GLP5        0.0000 
     31 CA         29.1610    8.5885   58.7150 C.3       4 GLC5        0.0000 
     32 CA         31.0250    8.6540   58.7340 C.3       8 GLP5        0.0000 
     33 CA         27.2295    7.3765   61.8570 C.3       4 GLC5        0.0000 
     34 CA         27.2010    6.4440   60.0970 C.3      12 GLL5        0.0000 
     35 CA         27.2580    8.3090   63.6170 C.3       8 GLP5        0.0000 
     36 N          26.4480    7.8900   61.5650 N.am      2 SEC2        0.0000 
     37 N          26.0220    6.9460   60.7320 N.am     10 SEL2        0.0000 
     38 N          26.8740    8.8340   62.3980 N.am      6 SEP2        0.0000 
     39 O          25.4640    6.3130   61.8695 O.2       1 ALC1        0.0000 
     40 O          26.0220    6.9460   60.7320 O.2       9 ALL1        0.0000 
     41 O          24.9060    5.6800   63.0070 O.2       5 ALP1        0.0000 
     42 CA         28.6390    3.9060   59.9500 C.3       4 GLC5        0.0000 
     43 CA         27.1120    4.9180   60.0810 C.3      12 GLL5        0.0000 
     44 CA         30.1660    2.8940   59.8190 C.3       8 GLP5        0.0000 
     45 CA         27.3740    3.0145   61.1365 C.3       4 GLC5        0.0000 
     46 CA         27.6360    1.1110   62.1920 C.3       8 GLP5        0.0000 
     47 N          26.7970    2.9270   61.2565 N.am      2 SEC2        0.0000 
     48 N          26.8020    4.5110   61.4160 N.am     10 SEL2        0.0000 
     49 N          26.7920    1.3430   61.0970 N.am      6 SEP2        0.0000 
     50 O          27.9960    4.4975   62.1320 O.2       1 ALC1        0.0000 
     51 O          26.8020    4.5110   61.4160 O.2       9 ALL1        0.0000 
     52 O          29.1900    4.4840   62.8480 O.2       5 ALP1        0.0000 
     53 CA         24.7635    3.1965   60.3820 C.3       4 GLC5        0.0000 
     54 CA         26.0030    4.4780   59.1180 C.3      12 GLL5        0.0000 
     55 CA         23.5240    1.9150   61.6460 C.3       8 GLP5        0.0000 
     56 N          26.3240    2.1985   60.1060 N.am      2 SEC2        0.0000 
     57 N          25.8560    3.0540   59.1150 N.am     10 SEL2        0.0000 
     58 N          24.7300    2.9505   59.8740 N.am      2 SEC2        0.0000 
     59 N          23.6040    2.8470   60.6330 N.am      6 SEP2        0.0000 
     60 CA         21.0995    4.5845   53.8180 C.3       4 GLC5        0.0000 
     61 CA         22.3820    4.4280   52.6780 C.3      12 GLL5        0.0000 
     62 CA         20.0040    4.2440   55.4070 C.3       8 GLP5        0.0000 
     63 CA         22.9946    7.4574   52.6321 C.3       4 GLC5        0.0000 
     64 CA         22.0080    5.4220   51.7800 C.3      12 GLL5        0.0000 
     65 CA         22.5830    8.9850   53.7660 C.3       8 GLP5        0.0000 
     66 CA         28.2100    4.1832   58.5187 C.3       4 GLC5        0.0000 
     67 CA         26.3070    5.0030   57.7110 C.3      12 GLL5        0.0000 
     68 CA         30.2650    3.6260   58.6230 C.3       8 GLP5        0.0000 
     69 CA         28.7755    5.1728   59.0050 C.3       4 GLC5        0.0000 
     70 CA         29.0373    6.4155   60.3580 C.3       4 GLC5        0.0000 
     71 CA         30.9180    7.1500   60.6270 C.3       8 GLP5        0.0000 
@<TRIPOS>BOND
@<TRIPOS>SUBSTRUCTURE
     1 ALC1       39 GROUP        1 X    ALC  0     ROOT ALC X 1
     2 SEC2       36 GROUP        1 X    SEC  0     **** SEC X 2
     3 ASC3       14 GROUP        1 X    ASC  0     **** ASC X 3
     4 GLC5        1 GROUP        1 X    GLC  0     **** GLC X 6
     5 ALP1       41 GROUP        1 Y    ALP  0     ROOT ALP Y 8
     6 SEP2       38 GROUP        1 Y    SEP  0     **** SEP Y 9
     7 ASP3       16 GROUP        1 Y    ASP  0     **** ASP Y 10
     8 GLP5        3 GROUP        1 Y    GLP  0     **** GLP Y 13
     9 ALL1       40 GROUP        1 Z    ALL  0     ROOT ALL Z 15
    10 SEL2       37 GROUP        1 Z    SEL  0     **** SEL Z 16
    11 ASL3       15 GROUP        1 Z    ASL  0     **** ASL Z 17
    12 GLL5        2 GROUP        1 Z    GLL  0     **** GLL Z 20
@<TRIPOS>SET

