#    Name: 2zx6_ZX6_2_ligand
#    Modification time : Tue Mar 25 11:15:15 2014

@<TRIPOS>MOLECULE
2zx6_ZX6_2_ligand
   46    48     1     0     0
SMALL
NO_CHARGES


@<TRIPOS>ATOM
      1 CAS        24.6880    5.0420   52.4130 C.ar      1 ZX6902      0.0000 
      2 CAI        23.7220    4.2340   53.0000 C.ar      1 ZX6902      0.0000 
      3 CAG        22.3820    4.4280   52.6780 C.ar      1 ZX6902      0.0000 
      4 CAF        22.0080    5.4220   51.7800 C.ar      1 ZX6902      0.0000 
      5 CAH        22.9790    6.2270   51.1930 C.ar      1 ZX6902      0.0000 
      6 CAR        24.3190    6.0350   51.5100 C.ar      1 ZX6902      0.0000 
      7 NAO        25.4340    6.6360   51.0980 N.pl3     1 ZX6902      0.0000 
      8 CAJ        26.4820    6.0720   51.6980 C.2       1 ZX6902      0.0000 
      9 CAQ        26.0740    5.0970   52.5090 C.2       1 ZX6902      0.0000 
     10 CAL        26.9930    4.1870   53.3280 C.3       1 ZX6902      0.0000 
     11 CAP        26.5620    3.9430   54.7800 C.2       1 ZX6902      0.0000 
     12 OAB        27.0740    3.0260   55.4220 O.2       1 ZX6902      0.0000 
     13 NAM        25.6710    4.7630   55.3270 N.am      1 ZX6902      0.0000 
     14 CAK        25.2370    4.5480   56.7150 C.3       1 ZX6902      0.0000 
     15 CAU        26.3070    5.0030   57.7110 C.3       1 ZX6902      0.0000 
     16 NAN        26.3300    6.4740   57.7730 N.4       1 ZX6902      0.0000 
     17 CAT        27.3710    6.9950   58.6770 C.3       1 ZX6902      0.0000 
     18 CAA        27.2970    8.5230   58.6960 C.3       1 ZX6902      0.0000 
     19 CAV        27.2010    6.4440   60.0970 C.3       1 ZX6902      0.0000 
     20 OAC        26.0220    6.9460   60.7320 O.3       1 ZX6902      0.0000 
     21 CAX        27.1120    4.9180   60.0810 C.3       1 ZX6902      0.0000 
     22 OAE        26.8020    4.5110   61.4160 O.3       1 ZX6902      0.0000 
     23 CAW        26.0030    4.4780   59.1180 C.3       1 ZX6902      0.0000 
     24 OAD        25.8560    3.0540   59.1150 O.3       1 ZX6902      0.0000 
     25 H          23.9924    3.5024   53.6634 H         1 ZX6902      0.0000 
     26 H          21.6606    3.8295   53.1091 H         1 ZX6902      0.0000 
     27 H          21.0164    5.5617   51.5504 H         1 ZX6902      0.0000 
     28 H          22.7066    6.9602   50.5281 H         1 ZX6902      0.0000 
     29 H          25.4773    7.3728   50.4580 H         1 ZX6902      0.0000 
     30 H          27.4184    6.3368   51.5619 H         1 ZX6902      0.0000 
     31 H          28.0137    4.6199   53.3298 H         1 ZX6902      0.0000 
     32 H          27.0754    3.2081   52.8140 H         1 ZX6902      0.0000 
     33 H          25.2508    5.5597   54.8365 H         1 ZX6902      0.0000 
     34 H          25.0306    3.4854   56.8954 H         1 ZX6902      0.0000 
     35 H          24.3156    5.1065   56.9230 H         1 ZX6902      0.0000 
     36 H          27.2589    4.6293   57.4023 H         1 ZX6902      0.0000 
     37 H          28.3501    6.7136   58.3159 H         1 ZX6902      0.0000 
     38 H          28.0867    6.7081   60.6712 H         1 ZX6902      0.0000 
     39 H          28.0427    4.5278   59.7503 H         1 ZX6902      0.0000 
     40 H          25.0791    4.9612   59.4490 H         1 ZX6902      0.0000 
     41 H          27.9879    8.9208   59.2997 H         1 ZX6902      0.0000 
     42 H          27.4425    8.9132   57.7868 H         1 ZX6902      0.0000 
     43 H          26.4067    8.8478   59.0153 H         1 ZX6902      0.0000 
     44 H          25.8148    6.2846   61.4529 H         1 ZX6902      0.0000 
     45 H          27.6810    4.4958   61.8925 H         1 ZX6902      0.0000 
     46 H          26.0916    2.7715   58.1851 H         1 ZX6902      0.0000 
@<TRIPOS>BOND
     1    2    1 ar   
     2    6    1 ar   
     3    9    1 1    
     4    3    2 ar   
     5   25    2 1    
     6    4    3 ar   
     7   26    3 1    
     8    5    4 ar   
     9   27    4 1    
    10    6    5 ar   
    11   28    5 1    
    12    7    6 1    
    13    8    7 1    
    14   29    7 1    
    15    9    8 2    
    16   30    8 1    
    17   10    9 1    
    18   11   10 1    
    19   31   10 1    
    20   32   10 1    
    21   12   11 2    
    22   13   11 am   
    23   14   13 1    
    24   33   13 1    
    25   15   14 1    
    26   34   14 1    
    27   35   14 1    
    28   16   15 1    
    29   23   15 1    
    30   36   15 1    
    31   17   16 1    
    32   18   17 1    
    33   19   17 1    
    34   37   17 1    
    35   41   18 1    
    36   42   18 1    
    37   43   18 1    
    38   20   19 1    
    39   21   19 1    
    40   38   19 1    
    41   44   20 1    
    42   22   21 1    
    43   23   21 1    
    44   39   21 1    
    45   45   22 1    
    46   24   23 1    
    47   40   23 1    
    48   46   24 1    
@<TRIPOS>SUBSTRUCTURE
     1 ZX6902      1 GROUP   
@<TRIPOS>SET

