#    Name: 3aos_JH2_2_INTS_M
#    Modification time : Mon Mar 24 17:58:02 2014

@<TRIPOS>MOLECULE
3aos_JH2_2_INTS_M
   77     0     6     0     0
SMALL
NO_CHARGES


@<TRIPOS>ATOM
      1 CA         28.9500  -20.6655   42.7660 C.3       2 GLC5        0.0000 
      2 CA         27.5920  -19.8160   44.0200 C.3       6 GLL5        0.0000 
      3 CA         30.3080  -21.5150   41.5120 C.3       4 GLP5        0.0000 
      4 CA         26.8240  -21.5785   44.7545 C.3       2 GLC5        0.0000 
      5 CA         26.0560  -23.3410   45.4890 C.3       4 GLP5        0.0000 
      6 CA         27.6740  -21.8615   45.5805 C.3       2 GLC5        0.0000 
      7 CA         28.0090  -19.9830   45.3020 C.3       6 GLL5        0.0000 
      8 CA         27.3390  -23.7400   45.8590 C.3       4 GLP5        0.0000 
      9 N          25.4925  -13.6575   47.6605 N.am      1 SEC2        0.0000 
     10 N          26.6780  -13.8550   48.4970 N.am      5 SEL2        0.0000 
     11 N          24.3070  -13.4600   46.8240 N.am      3 SEP2        0.0000 
     12 CA         30.7065  -20.6010   47.1770 C.3       2 GLC5        0.0000 
     13 CA         29.4950  -20.0390   45.5780 C.3       6 GLL5        0.0000 
     14 CA         31.9180  -21.1630   48.7760 C.3       4 GLP5        0.0000 
     15 CA         29.9015  -20.7770   43.5450 C.3       2 GLC5        0.0000 
     16 CA         28.9415  -22.0195   45.1995 C.3       2 GLC5        0.0000 
     17 CA         28.3880  -24.0000   44.8210 C.3       4 GLP5        0.0000 
     18 CA         32.0065  -19.9180   44.7755 C.3       2 GLC5        0.0000 
     19 CA         30.2160  -18.7520   45.1800 C.3       6 GLL5        0.0000 
     20 CA         33.7970  -21.0840   44.3710 C.3       4 GLP5        0.0000 
     21 CA         29.6685  -18.0480   48.0905 C.3       2 GLC5        0.0000 
     22 CA         29.8010  -17.5100   45.9370 C.3       6 GLL5        0.0000 
     23 CA         29.5360  -18.5860   50.2440 C.3       4 GLP5        0.0000 
     24 CA         29.1905  -13.5235   45.4430 C.3       2 GLC5        0.0000 
     25 CA         28.7690  -15.2170   45.9930 C.3       6 GLL5        0.0000 
     26 CA         29.6120  -11.8300   44.8930 C.3       4 GLP5        0.0000 
     27 CA         30.5905  -14.4470   46.9565 C.3       2 GLC5        0.0000 
     28 CA         32.4120  -13.6770   47.9200 C.3       4 GLP5        0.0000 
     29 CA         26.2300  -16.3195   47.9615 C.3       2 GLC5        0.0000 
     30 CA         28.1480  -15.3950   47.3640 C.3       6 GLL5        0.0000 
     31 CA         24.3120  -17.2440   48.5590 C.3       4 GLP5        0.0000 
     32 CA         28.8125  -12.9220   46.4485 C.3       2 GLC5        0.0000 
     33 CA         28.0130  -14.0140   48.0040 C.3       6 GLL5        0.0000 
     34 CA         27.4555  -11.9340   47.7695 C.3       2 GLC5        0.0000 
     35 CA         26.8980   -9.8540   47.5350 C.3       4 GLP5        0.0000 
     36 CA         28.3625  -15.0290   52.0560 C.3       2 GLC5        0.0000 
     37 CA         27.6180  -15.3630   50.2090 C.3       6 GLL5        0.0000 
     38 CA         29.1070  -14.6950   53.9030 C.3       4 GLP5        0.0000 
     39 CA         28.5770  -16.9745   50.2265 C.3       2 GLC5        0.0000 
     40 CA         26.5465  -14.9240   52.8770 C.3       2 GLC5        0.0000 
     41 CA         26.3690  -15.4230   51.0560 C.3       6 GLL5        0.0000 
     42 CA         26.7240  -14.4250   54.6980 C.3       4 GLP5        0.0000 
     43 CA         24.3980  -15.1535   51.7165 C.3       2 GLC5        0.0000 
     44 CA         22.4270  -14.8840   52.3770 C.3       4 GLP5        0.0000 
     45 CA         25.6570  -16.5770   52.5160 C.3       2 GLC5        0.0000 
     46 CA         24.9450  -17.7310   53.9760 C.3       4 GLP5        0.0000 
     47 CA         27.3705  -17.3665   50.7730 C.3       2 GLC5        0.0000 
     48 CA         28.3720  -19.3100   50.4900 C.3       4 GLP5        0.0000 
     49 CA         28.4350  -21.3005   47.8345 C.3       2 GLC5        0.0000 
     50 CA         27.0860  -20.1490   46.4880 C.3       6 GLL5        0.0000 
     51 CA         29.7840  -22.4520   49.1810 C.3       4 GLP5        0.0000 
     52 CA         26.5710  -21.7450   45.9885 C.3       2 GLC5        0.0000 
     53 CA         25.2825  -19.3515   46.5450 C.3       2 GLC5        0.0000 
     54 CA         23.4790  -18.5540   46.6020 C.3       4 GLP5        0.0000 
     55 CA         27.7290  -19.7295   48.4890 C.3       2 GLC5        0.0000 
     56 CA         29.3295  -11.4450   50.4150 C.3       2 GLC5        0.0000 
     57 CA         27.9900  -12.7740   50.3020 C.3       6 GLL5        0.0000 
     58 CA         30.6690  -10.1160   50.5280 C.3       4 GLP5        0.0000 
     59 CA         27.4440  -11.3140   48.9185 C.3       2 GLC5        0.0000 
     60 CA         27.5970  -10.6710   50.9130 C.3       2 GLC5        0.0000 
     61 CA         27.2040   -8.5680   51.5240 C.3       4 GLP5        0.0000 
     62 CA         28.7105  -12.3645   51.9610 C.3       2 GLC5        0.0000 
     63 CA         29.4310  -11.9550   53.6200 C.3       4 GLP5        0.0000 
     64 CA         24.5415  -21.5040   41.4450 C.3       2 GLC5        0.0000 
     65 CA         24.7010  -19.5580   41.5710 C.3       6 GLL5        0.0000 
     66 CA         24.3820  -23.4500   41.3190 C.3       4 GLP5        0.0000 
     67 CA         22.9225  -19.2545   41.8225 C.3       2 GLC5        0.0000 
     68 CA         21.1440  -18.9510   42.0740 C.3       4 GLP5        0.0000 
     69 CA         31.2677  -17.1315   44.7253 C.3       2 GLC5        0.0000 
     70 CA         32.5270  -16.1320   43.8920 C.3       4 GLP5        0.0000 
     71 CA         29.9507  -14.2218   48.4300 C.3       2 GLC5        0.0000 
     72 CA         31.8210  -13.7390   49.1760 C.3       4 GLP5        0.0000 
     73 CA         29.8295  -13.5708   49.5365 C.3       2 GLC5        0.0000 
     74 CA         27.6860  -14.0310   49.4920 C.3       6 GLL5        0.0000 
     75 CA         25.6527  -16.3185   49.5957 C.3       2 GLC5        0.0000 
     76 CA         30.7256  -16.1788   44.3153 C.3       2 GLC5        0.0000 
     77 CA         29.1760  -16.4970   45.2970 C.3       6 GLL5        0.0000 
@<TRIPOS>BOND
@<TRIPOS>SUBSTRUCTURE
     1 SEC2        9 GROUP        1 X    SEC  0     ROOT SEC X 2
     2 GLC5        1 GROUP        1 X    GLC  0     **** GLC X 6
     3 SEP2       11 GROUP        1 Y    SEP  0     ROOT SEP Y 9
     4 GLP5        3 GROUP        1 Y    GLP  0     **** GLP Y 13
     5 SEL2       10 GROUP        1 Z    SEL  0     ROOT SEL Z 16
     6 GLL5        2 GROUP        1 Z    GLL  0     **** GLL Z 20
@<TRIPOS>SET

