#    Name: 3aos_JH2_2_ligand
#    Modification time : Mon Mar 24 17:58:02 2014

@<TRIPOS>MOLECULE
3aos_JH2_2_ligand
   48    48     1     0     0
SMALL
NO_CHARGES


@<TRIPOS>ATOM
      1 C1         26.1940  -19.7420   43.5510 C.2       1 JH2301      0.0000 
      2 O1         25.9370  -19.2770   42.2040 O.3       1 JH2301      0.0000 
      3 C2         27.5920  -19.8160   44.0200 C.2       1 JH2301      0.0000 
      4 O2         25.2380  -20.0520   44.2410 O.2       1 JH2301      0.0000 
      5 C3         28.0090  -19.9830   45.3020 C.2       1 JH2301      0.0000 
      6 O3         26.6780  -13.8550   48.4970 O.3       1 JH2301      0.0000 
      7 C4         29.4950  -20.0390   45.5780 C.3       1 JH2301      0.0000 
      8 C5         30.2160  -18.7520   45.1800 C.3       1 JH2301      0.0000 
      9 C6         29.8010  -17.5100   45.9370 C.2       1 JH2301      0.0000 
     10 C7         29.1760  -16.4970   45.2970 C.2       1 JH2301      0.0000 
     11 C8         28.7690  -15.2170   45.9930 C.3       1 JH2301      0.0000 
     12 C9         28.1480  -15.3950   47.3640 C.3       1 JH2301      0.0000 
     13 C10        28.0130  -14.0140   48.0040 C.3       1 JH2301      0.0000 
     14 C11        27.6860  -14.0310   49.4920 C.3       1 JH2301      0.0000 
     15 C12        27.6180  -15.3630   50.2090 C.3       1 JH2301      0.0000 
     16 C13        26.3690  -15.4230   51.0560 C.3       1 JH2301      0.0000 
     17 C14        27.0860  -20.1490   46.4880 C.3       1 JH2301      0.0000 
     18 C15        28.8760  -16.5940   43.8320 C.3       1 JH2301      0.0000 
     19 C16        27.9900  -12.7740   50.3020 C.3       1 JH2301      0.0000 
     20 C17        24.7010  -19.5580   41.5710 C.3       1 JH2301      0.0000 
     21 H          28.3154  -19.7244   43.2388 H         1 JH2301      0.0000 
     22 H          29.9379  -20.8785   45.0256 H         1 JH2301      0.0000 
     23 H          29.6613  -20.2218   46.6480 H         1 JH2301      0.0000 
     24 H          30.0606  -18.5833   44.0927 H         1 JH2301      0.0000 
     25 H          31.3090  -18.9069   45.3079 H         1 JH2301      0.0000 
     26 H          30.0253  -17.5051   46.9316 H         1 JH2301      0.0000 
     27 H          28.0537  -14.6666   45.3448 H         1 JH2301      0.0000 
     28 H          29.6596  -14.5591   46.0862 H         1 JH2301      0.0000 
     29 H          28.7857  -16.0115   47.9771 H         1 JH2301      0.0000 
     30 H          27.1709  -15.8407   47.2678 H         1 JH2301      0.0000 
     31 H          28.3911  -13.2338   47.7677 H         1 JH2301      0.0000 
     32 H          28.4941  -15.4774   50.8431 H         1 JH2301      0.0000 
     33 H          27.6008  -16.1672   49.4770 H         1 JH2301      0.0000 
     34 H          26.2936  -16.2917   51.5455 H         1 JH2301      0.0000 
     35 H          26.3511  -14.6968   51.7432 H         1 JH2301      0.0000 
     36 H          25.5409  -15.3247   50.5041 H         1 JH2301      0.0000 
     37 H          27.5946  -20.2599   47.3418 H         1 JH2301      0.0000 
     38 H          26.4857  -19.3578   46.6051 H         1 JH2301      0.0000 
     39 H          26.4975  -20.9516   46.3911 H         1 JH2301      0.0000 
     40 H          29.7085  -16.7036   43.2889 H         1 JH2301      0.0000 
     41 H          28.2859  -17.3742   43.6246 H         1 JH2301      0.0000 
     42 H          28.4106  -15.7763   43.4933 H         1 JH2301      0.0000 
     43 H          28.6974  -12.9374   50.9897 H         1 JH2301      0.0000 
     44 H          28.3130  -12.0269   49.7210 H         1 JH2301      0.0000 
     45 H          27.1816  -12.4400   50.7867 H         1 JH2301      0.0000 
     46 H          24.6624  -19.1784   40.6466 H         1 JH2301      0.0000 
     47 H          24.5399  -20.5417   41.4909 H         1 JH2301      0.0000 
     48 H          23.9287  -19.1748   42.0777 H         1 JH2301      0.0000 
@<TRIPOS>BOND
     1    2    1 1    
     2    3    1 1    
     3    4    1 2    
     4   20    2 1    
     5    5    3 2    
     6   21    3 1    
     7    7    5 1    
     8   17    5 1    
     9   13    6 1    
    10   14    6 1    
    11    8    7 1    
    12   22    7 1    
    13   23    7 1    
    14    9    8 1    
    15   24    8 1    
    16   25    8 1    
    17   10    9 2    
    18   26    9 1    
    19   11   10 1    
    20   18   10 1    
    21   12   11 1    
    22   27   11 1    
    23   28   11 1    
    24   13   12 1    
    25   29   12 1    
    26   30   12 1    
    27   14   13 1    
    28   31   13 1    
    29   15   14 1    
    30   19   14 1    
    31   16   15 1    
    32   32   15 1    
    33   33   15 1    
    34   34   16 1    
    35   35   16 1    
    36   36   16 1    
    37   37   17 1    
    38   38   17 1    
    39   39   17 1    
    40   40   18 1    
    41   41   18 1    
    42   42   18 1    
    43   43   19 1    
    44   44   19 1    
    45   45   19 1    
    46   46   20 1    
    47   47   20 1    
    48   48   20 1    
@<TRIPOS>SUBSTRUCTURE
     1 JH2301      1 GROUP   
@<TRIPOS>SET

