#    Name: 4hxz_19Y_1_INTS_M
#    Modification time : Tue Mar 25 01:58:00 2014

@<TRIPOS>MOLECULE
4hxz_19Y_1_INTS_M
   51     0     6     0     0
SMALL
NO_CHARGES


@<TRIPOS>ATOM
      1 CA         13.3735  -35.5105    2.4135 C.3       2 GLC5        0.0000 
      2 CA         12.2290  -35.3620    0.8170 C.3       6 GLL5        0.0000 
      3 CA         14.5180  -35.6590    4.0100 C.3       4 GLP5        0.0000 
      4 CA          9.4385  -36.0820    0.6345 C.3       2 GLC5        0.0000 
      5 CA         10.9600  -34.9380    0.1260 C.3       6 GLL5        0.0000 
      6 CA          7.9170  -37.2260    1.1430 C.3       4 GLP5        0.0000 
      7 CA         16.5210  -32.1305   -0.4325 C.3       2 GLC5        0.0000 
      8 CA         16.4690  -32.2010    1.1940 C.3       6 GLL5        0.0000 
      9 CA         16.5730  -32.0600   -2.0590 C.3       4 GLP5        0.0000 
     10 CA         18.7540  -33.0330   -0.1945 C.3       2 GLC5        0.0000 
     11 CA         18.7380  -32.3440    1.9390 C.3       6 GLL5        0.0000 
     12 CA         18.7700  -33.7220   -2.3280 C.3       4 GLP5        0.0000 
     13 CA         20.4200  -32.5900    0.5710 C.3       2 GLC5        0.0000 
     14 CA         22.1020  -32.8360   -0.7970 C.3       4 GLP5        0.0000 
     15 CA         15.9350  -31.0815   -0.3335 C.3       2 GLC5        0.0000 
     16 CA         15.2970  -30.1030    1.3920 C.3       6 GLL5        0.0000 
     17 CA         13.1665  -31.8330   -0.4875 C.3       2 GLC5        0.0000 
     18 CA         13.9470  -32.0680    1.1690 C.3       6 GLL5        0.0000 
     19 CA         12.3860  -31.5980   -2.1440 C.3       4 GLP5        0.0000 
     20 O          11.5260  -32.3855    1.2560 O.2       1 ALC1        0.0000 
     21 O          12.8740  -32.8870    1.0730 O.2       5 ALL1        0.0000 
     22 O          10.1780  -31.8840    1.4390 O.2       3 ALP1        0.0000 
     23 CA         14.9105  -26.3815    1.3100 C.3       2 GLC5        0.0000 
     24 CA         15.4430  -28.3950    1.5820 C.3       6 GLL5        0.0000 
     25 CA         14.3780  -24.3680    1.0380 C.3       4 GLP5        0.0000 
     26 CA         14.6955  -27.9220   -0.3545 C.3       2 GLC5        0.0000 
     27 CA         13.9480  -27.4490   -2.2910 C.3       4 GLP5        0.0000 
     28 CA         16.2870  -28.9905   -0.4090 C.3       2 GLC5        0.0000 
     29 CA         17.1310  -29.5860   -2.4000 C.3       4 GLP5        0.0000 
     30 CA         15.1755  -28.3700    3.1355 C.3       2 GLC5        0.0000 
     31 CA         17.0570  -28.0330    2.0300 C.3       6 GLL5        0.0000 
     32 CA         13.2940  -28.7070    4.2410 C.3       4 GLP5        0.0000 
     33 CA         20.3065  -27.7445    0.7770 C.3       2 GLC5        0.0000 
     34 CA         19.6830  -27.3870    2.6840 C.3       6 GLL5        0.0000 
     35 CA         20.9300  -28.1020   -1.1300 C.3       4 GLP5        0.0000 
     36 CA         16.0535  -25.6395    1.2690 C.3       2 GLC5        0.0000 
     37 CA         17.7290  -26.9110    1.5000 C.3       6 GLL5        0.0000 
     38 CA         19.3295  -27.5065    0.1850 C.3       2 GLC5        0.0000 
     39 CA         13.7035  -35.5628   -0.5473 C.3       2 GLC5        0.0000 
     40 CA         13.1870  -34.2060    0.9360 C.3       6 GLL5        0.0000 
     41 CA         13.4840  -36.8860   -2.0370 C.3       4 GLP5        0.0000 
     42 CA         11.3543  -36.9285    0.7077 C.3       2 GLC5        0.0000 
     43 CA         11.1140  -38.7070    0.9440 C.3       4 GLP5        0.0000 
     44 CA         12.2777  -34.0385   -1.0563 C.3       2 GLC5        0.0000 
     45 CA         12.9610  -32.9270   -2.5840 C.3       4 GLP5        0.0000 
     46 CA         12.5393  -36.0180   -0.7828 C.3       2 GLC5        0.0000 
     47 CA         14.5323  -34.6136    2.5161 C.3       2 GLC5        0.0000 
     48 CA         14.6590  -34.2730    0.9490 C.3       6 GLL5        0.0000 
     49 CA         13.7538  -33.2476   -0.7809 C.3       2 GLC5        0.0000 
     50 CA         14.3320  -28.9780    2.8640 C.3       2 GLC5        0.0000 
     51 CA         15.5019  -32.4432   -0.4809 C.3       2 GLC5        0.0000 
@<TRIPOS>BOND
@<TRIPOS>SUBSTRUCTURE
     1 ALC1       20 GROUP        1 X    ALC  0     ROOT ALC X 1
     2 GLC5        1 GROUP        1 X    GLC  0     **** GLC X 6
     3 ALP1       22 GROUP        1 Y    ALP  0     ROOT ALP Y 8
     4 GLP5        3 GROUP        1 Y    GLP  0     **** GLP Y 13
     5 ALL1       21 GROUP        1 Z    ALL  0     ROOT ALL Z 15
     6 GLL5        2 GROUP        1 Z    GLL  0     **** GLL Z 20
@<TRIPOS>SET

