#    Name: 4hxz_19Y_1_ligand
#    Modification time : Tue Mar 25 01:58:00 2014

@<TRIPOS>MOLECULE
4hxz_19Y_1_ligand
   36    38     1     0     0
SMALL
NO_CHARGES


@<TRIPOS>ATOM
      1 O20        15.1290  -36.5950    0.7120 O.2       1 19Y1401     0.0000 
      2 C19        15.5690  -35.4540    0.8460 C.2       1 19Y1401     0.0000 
      3 C5         14.6590  -34.2730    0.9490 C.2       1 19Y1401     0.0000 
      4 C1         13.1870  -34.2060    0.9360 C.2       1 19Y1401     0.0000 
      5 C21        12.2290  -35.3620    0.8170 C.3       1 19Y1401     0.0000 
      6 C22        10.9600  -34.9380    0.1260 C.3       1 19Y1401     0.0000 
      7 C4         15.1700  -32.8970    1.1020 C.ar      1 19Y1401     0.0000 
      8 C6         16.4690  -32.2010    1.1940 C.ar      1 19Y1401     0.0000 
      9 O17        17.6620  -32.8740    1.1460 O.3       1 19Y1401     0.0000 
     10 C18        18.7380  -32.3440    1.9390 C.3       1 19Y1401     0.0000 
     11 N7         16.4440  -30.8460    1.3400 N.ar      1 19Y1401     0.0000 
     12 C8         15.2970  -30.1030    1.3920 C.ar      1 19Y1401     0.0000 
     13 N9         14.0730  -30.7200    1.3130 N.ar      1 19Y1401     0.0000 
     14 C3         13.9470  -32.0680    1.1690 C.ar      1 19Y1401     0.0000 
     15 N2         12.8740  -32.8870    1.0730 N.pl3     1 19Y1401     0.0000 
     16 S10        15.4430  -28.3950    1.5820 S.3       1 19Y1401     0.0000 
     17 C11        17.0570  -28.0330    2.0300 C.ar      1 19Y1401     0.0000 
     18 C16        17.7570  -28.8550    2.9150 C.ar      1 19Y1401     0.0000 
     19 C15        19.0740  -28.5170    3.2370 C.ar      1 19Y1401     0.0000 
     20 C14        19.6830  -27.3870    2.6840 C.ar      1 19Y1401     0.0000 
     21 N13        19.0030  -26.6060    1.8300 N.ar      1 19Y1401     0.0000 
     22 C12        17.7290  -26.9110    1.5000 C.ar      1 19Y1401     0.0000 
     23 H          16.5871  -35.1840    0.9016 H         1 19Y1401     0.0000 
     24 H          11.9908  -35.7412    1.8148 H         1 19Y1401     0.0000 
     25 H          12.7009  -36.1685    0.2486 H         1 19Y1401     0.0000 
     26 H          11.9299  -32.5569    1.0998 H         1 19Y1401     0.0000 
     27 H          17.3199  -29.6792    3.3156 H         1 19Y1401     0.0000 
     28 H          19.6058  -29.1112    3.8937 H         1 19Y1401     0.0000 
     29 H          20.6614  -27.1732    2.9493 H         1 19Y1401     0.0000 
     30 H          17.1976  -26.3070    0.8267 H         1 19Y1401     0.0000 
     31 H          11.1360  -34.5975   -0.7976 H         1 19Y1401     0.0000 
     32 H          10.3126  -35.6954    0.0408 H         1 19Y1401     0.0000 
     33 H          10.4924  -34.2074    0.6236 H         1 19Y1401     0.0000 
     34 H          19.5703  -32.8909    1.8487 H         1 19Y1401     0.0000 
     35 H          18.9711  -31.4091    1.6713 H         1 19Y1401     0.0000 
     36 H          18.5064  -32.3213    2.9115 H         1 19Y1401     0.0000 
@<TRIPOS>BOND
     1    2    1 2    
     2    3    2 1    
     3   23    2 1    
     4    4    3 2    
     5    7    3 1    
     6    5    4 1    
     7   15    4 1    
     8    6    5 1    
     9   24    5 1    
    10   25    5 1    
    11   31    6 1    
    12   32    6 1    
    13   33    6 1    
    14    8    7 ar   
    15   14    7 ar   
    16    9    8 1    
    17   11    8 ar   
    18   10    9 1    
    19   34   10 1    
    20   35   10 1    
    21   36   10 1    
    22   12   11 ar   
    23   13   12 ar   
    24   16   12 1    
    25   14   13 ar   
    26   15   14 1    
    27   26   15 1    
    28   17   16 1    
    29   18   17 ar   
    30   22   17 ar   
    31   19   18 ar   
    32   27   18 1    
    33   20   19 ar   
    34   28   19 1    
    35   21   20 ar   
    36   29   20 1    
    37   22   21 ar   
    38   30   22 1    
@<TRIPOS>SUBSTRUCTURE
     1 19Y1401     1 GROUP   
@<TRIPOS>SET

