#    Name: 4bcp_T3C_2_INTS_M
#    Modification time : Tue Mar 25 07:32:42 2014

@<TRIPOS>MOLECULE
4bcp_T3C_2_INTS_M
   54     0     6     0     0
SMALL
NO_CHARGES


@<TRIPOS>ATOM
      1 CA         30.7745  -14.4990   30.0280 C.3       2 GLC5        0.0000 
      2 CA         32.0520  -13.8000   31.4240 C.3       6 GLL5        0.0000 
      3 CA         29.4970  -15.1980   28.6320 C.3       4 GLP5        0.0000 
      4 CA         32.3150  -12.3115   33.0000 C.3       2 GLC5        0.0000 
      5 CA         32.5780  -10.8230   34.5760 C.3       4 GLP5        0.0000 
      6 CA         31.6720  -12.1865   30.5080 C.3       2 GLC5        0.0000 
      7 CA         31.2920  -10.5730   29.5920 C.3       4 GLP5        0.0000 
      8 CA         30.6095  -18.6410   29.5880 C.3       2 GLC5        0.0000 
      9 CA         32.3950  -18.1430   28.7250 C.3       6 GLL5        0.0000 
     10 CA         28.8240  -19.1390   30.4510 C.3       4 GLP5        0.0000 
     11 CA         30.9460  -16.6705   28.6785 C.3       2 GLC5        0.0000 
     12 CA         34.3885  -17.2840   28.3710 C.3       2 GLC5        0.0000 
     13 CA         36.3820  -16.4250   28.0170 C.3       4 GLP5        0.0000 
     14 CA         35.4130  -19.4515   29.6845 C.3       2 GLC5        0.0000 
     15 CA         33.6320  -20.4640   30.0830 C.3       6 GLL5        0.0000 
     16 CA         37.1940  -18.4390   29.2860 C.3       4 GLP5        0.0000 
     17 CA         36.1775  -21.6260   30.9210 C.3       2 GLC5        0.0000 
     18 CA         34.1310  -21.5470   30.8150 C.3       6 GLL5        0.0000 
     19 CA         38.2240  -21.7050   31.0270 C.3       4 GLP5        0.0000 
     20 N          32.5535  -17.7470   26.1270 N.am      1 SEC2        0.0000 
     21 N          32.5240  -17.3810   27.5980 N.am      5 SEL2        0.0000 
     22 N          32.5830  -18.1130   24.6560 N.am      3 SEP2        0.0000 
     23 CA         31.7855  -16.4505   26.0210 C.3       2 GLC5        0.0000 
     24 CA         33.0070  -16.1000   27.6700 C.3       6 GLL5        0.0000 
     25 CA         30.5640  -16.8010   24.3720 C.3       4 GLP5        0.0000 
     26 CA         33.9740  -16.1780   25.6780 C.3       2 GLC5        0.0000 
     27 CA         34.9410  -16.2560   23.6860 C.3       4 GLP5        0.0000 
     28 CA         34.7320  -13.4255   27.4830 C.3       2 GLC5        0.0000 
     29 CA         33.8840  -14.1840   28.9920 C.3       6 GLL5        0.0000 
     30 CA         35.5800  -12.6670   25.9740 C.3       4 GLP5        0.0000 
     31 CA         32.6535  -12.9025   28.1555 C.3       2 GLC5        0.0000 
     32 CA         31.4230  -11.6210   27.3190 C.3       4 GLP5        0.0000 
     33 CA         35.9300  -17.5495   30.8405 C.3       2 GLC5        0.0000 
     34 CA         34.6660  -16.6600   32.3950 C.3       6 GLL5        0.0000 
     35 CA         31.2755  -15.4586   32.2240 C.3       2 GLC5        0.0000 
     36 CA         33.0880  -14.7750   32.0180 C.3       6 GLL5        0.0000 
     37 CA         29.4940  -15.8160   32.9250 C.3       4 GLP5        0.0000 
     38 CA         34.8767  -16.2860   29.3537 C.3       2 GLC5        0.0000 
     39 CA         33.5440  -15.9150   31.3250 C.3       6 GLL5        0.0000 
     40 CA         31.7762  -20.3982   31.1845 C.3       2 GLC5        0.0000 
     41 CA         32.3930  -20.5910   29.3690 C.3       6 GLL5        0.0000 
     42 CA         30.5400  -20.2690   32.6430 C.3       4 GLP5        0.0000 
     43 CA         34.6927  -22.2537   28.9655 C.3       2 GLC5        0.0000 
     44 CA         35.5040  -23.5020   27.4820 C.3       4 GLP5        0.0000 
     45 CA         32.1570  -21.2123   31.7387 C.3       2 GLC5        0.0000 
     46 CA         34.1545  -23.1638   28.9932 C.3       2 GLC5        0.0000 
     47 CA         33.4170  -22.7640   30.8540 C.3       6 GLL5        0.0000 
     48 CA         31.2405  -21.3020   31.2127 C.3       2 GLC5        0.0000 
     49 CA         32.1930  -22.8870   30.1550 C.3       6 GLL5        0.0000 
     50 CA         29.8550  -22.9595   27.4593 C.3       2 GLC5        0.0000 
     51 CA         30.3280  -23.9970   29.2900 C.3       6 GLL5        0.0000 
     52 CA         29.3920  -21.4190   26.1870 C.3       4 GLP5        0.0000 
     53 CA         31.3196  -15.6181   28.6033 C.3       2 GLC5        0.0000 
     54 CA         34.9574  -15.7178   28.3280 C.3       2 GLC5        0.0000 
@<TRIPOS>BOND
@<TRIPOS>SUBSTRUCTURE
     1 SEC2       20 GROUP        1 X    SEC  0     ROOT SEC X 2
     2 GLC5        1 GROUP        1 X    GLC  0     **** GLC X 6
     3 SEP2       22 GROUP        1 Y    SEP  0     ROOT SEP Y 9
     4 GLP5        3 GROUP        1 Y    GLP  0     **** GLP Y 13
     5 SEL2       21 GROUP        1 Z    SEL  0     ROOT SEL Z 16
     6 GLL5        2 GROUP        1 Z    GLL  0     **** GLL Z 20
@<TRIPOS>SET

