#    Name: 4bcp_T3C_2_ligand
#    Modification time : Tue Mar 25 07:32:42 2014

@<TRIPOS>MOLECULE
4bcp_T3C_2_ligand
   53    56     1     0     0
SMALL
NO_CHARGES


@<TRIPOS>ATOM
      1 C01        36.1580  -16.5250   35.2110 C.3       1 T3C1297     0.0000 
      2 N02        35.1930  -15.5010   34.9320 N.pl3     1 T3C1297     0.0000 
      3 C03        34.5020  -15.4920   33.6710 C.2       1 T3C1297     0.0000 
      4 N04        33.6090  -14.5790   33.2500 N.2       1 T3C1297     0.0000 
      5 C05        33.0880  -14.7750   32.0180 C.2       1 T3C1297     0.0000 
      6 C06        32.0520  -13.8000   31.4240 C.3       1 T3C1297     0.0000 
      7 C07        33.5440  -15.9150   31.3250 C.2       1 T3C1297     0.0000 
      8 C08        33.1990  -16.3790   30.0560 C.ar      1 T3C1297     0.0000 
      9 N09        32.7170  -17.6500   29.9250 N.ar      1 T3C1297     0.0000 
     10 C10        32.3950  -18.1430   28.7250 C.ar      1 T3C1297     0.0000 
     11 N11        31.8610  -19.5140   28.6250 N.pl3     1 T3C1297     0.0000 
     12 C12        32.3930  -20.5910   29.3690 C.ar      1 T3C1297     0.0000 
     13 C13        33.6320  -20.4640   30.0830 C.ar      1 T3C1297     0.0000 
     14 C14        34.1310  -21.5470   30.8150 C.ar      1 T3C1297     0.0000 
     15 C15        33.4170  -22.7640   30.8540 C.ar      1 T3C1297     0.0000 
     16 C16        32.1930  -22.8870   30.1550 C.ar      1 T3C1297     0.0000 
     17 N17        31.4380  -24.1570   30.1880 N.3       1 T3C1297     0.0000 
     18 C18        31.1000  -24.9580   31.3350 C.3       1 T3C1297     0.0000 
     19 C19        30.9340  -26.4000   30.9810 C.3       1 T3C1297     0.0000 
     20 C20        31.3140  -26.6830   29.5550 C.3       1 T3C1297     0.0000 
     21 N21        30.2670  -26.3610   28.6290 N.4       1 T3C1297     0.0000 
     22 C22        30.3080  -25.0030   28.1730 C.3       1 T3C1297     0.0000 
     23 C23        30.3280  -23.9970   29.2900 C.3       1 T3C1297     0.0000 
     24 C24        31.6890  -21.7830   29.4100 C.ar      1 T3C1297     0.0000 
     25 N25        32.5240  -17.3810   27.5980 N.ar      1 T3C1297     0.0000 
     26 C26        33.0070  -16.1000   27.6700 C.ar      1 T3C1297     0.0000 
     27 C27        33.3560  -15.5740   28.9020 C.ar      1 T3C1297     0.0000 
     28 C28        33.8840  -14.1840   28.9920 C.1       1 T3C1297     0.0000 
     29 N29        34.2830  -13.1240   29.0580 N.1       1 T3C1297     0.0000 
     30 S30        34.6660  -16.6600   32.3950 S.3       1 T3C1297     0.0000 
     31 H          34.9976  -14.7853   35.6206 H         1 T3C1297     0.0000 
     32 H          31.0718  -19.6655   27.9827 H         1 T3C1297     0.0000 
     33 H          34.1357  -19.5787   30.0466 H         1 T3C1297     0.0000 
     34 H          35.0149  -21.4621   31.3250 H         1 T3C1297     0.0000 
     35 H          33.7818  -23.5549   31.3852 H         1 T3C1297     0.0000 
     36 H          30.1606  -24.5998   31.7994 H         1 T3C1297     0.0000 
     37 H          31.8825  -24.8753   32.1144 H         1 T3C1297     0.0000 
     38 H          29.8867  -26.7001   31.1424 H         1 T3C1297     0.0000 
     39 H          31.5548  -27.0166   31.6497 H         1 T3C1297     0.0000 
     40 H          31.5938  -27.7546   29.4781 H         1 T3C1297     0.0000 
     41 H          32.2366  -26.1106   29.3231 H         1 T3C1297     0.0000 
     42 H          29.4325  -24.7778   27.5227 H         1 T3C1297     0.0000 
     43 H          31.2038  -24.8270   27.5353 H         1 T3C1297     0.0000 
     44 H          30.3314  -22.9793   28.8376 H         1 T3C1297     0.0000 
     45 H          29.3627  -24.0732   29.8401 H         1 T3C1297     0.0000 
     46 H          30.8011  -21.8882   28.9086 H         1 T3C1297     0.0000 
     47 H          33.1113  -15.5303   26.8203 H         1 T3C1297     0.0000 
     48 H          36.9101  -16.5160   34.5520 H         1 T3C1297     0.0000 
     49 H          36.5626  -16.4166   36.1191 H         1 T3C1297     0.0000 
     50 H          35.7508  -17.4378   35.1786 H         1 T3C1297     0.0000 
     51 H          32.4183  -12.8731   31.3427 H         1 T3C1297     0.0000 
     52 H          31.7593  -14.0807   30.5099 H         1 T3C1297     0.0000 
     53 H          31.2297  -13.7416   31.9901 H         1 T3C1297     0.0000 
@<TRIPOS>BOND
     1    2    1 1    
     2   48    1 1    
     3   49    1 1    
     4   50    1 1    
     5    3    2 1    
     6   31    2 1    
     7    4    3 2    
     8   30    3 1    
     9    5    4 1    
    10    6    5 1    
    11    7    5 2    
    12   51    6 1    
    13   52    6 1    
    14   53    6 1    
    15    8    7 1    
    16   30    7 1    
    17    9    8 ar   
    18   27    8 ar   
    19   10    9 ar   
    20   11   10 1    
    21   25   10 ar   
    22   12   11 1    
    23   32   11 1    
    24   13   12 ar   
    25   24   12 ar   
    26   14   13 ar   
    27   33   13 1    
    28   15   14 ar   
    29   34   14 1    
    30   16   15 ar   
    31   35   15 1    
    32   17   16 1    
    33   24   16 ar   
    34   18   17 1    
    35   23   17 1    
    36   19   18 1    
    37   36   18 1    
    38   37   18 1    
    39   20   19 1    
    40   38   19 1    
    41   39   19 1    
    42   21   20 1    
    43   40   20 1    
    44   41   20 1    
    45   22   21 1    
    46   23   22 1    
    47   42   22 1    
    48   43   22 1    
    49   44   23 1    
    50   45   23 1    
    51   46   24 1    
    52   26   25 ar   
    53   27   26 ar   
    54   47   26 1    
    55   28   27 1    
    56   29   28 3    
@<TRIPOS>SUBSTRUCTURE
     1 T3C1297     1 GROUP   
@<TRIPOS>SET

