#    Name: 3zsg_T75_1_INTS_M
#    Modification time : Tue Mar 25 03:54:29 2014

@<TRIPOS>MOLECULE
3zsg_T75_1_INTS_M
   82     0     9     0     0
SMALL
NO_CHARGES


@<TRIPOS>ATOM
      1 CA         23.9625   40.0485   10.6580 C.3       3 GLC5        0.0000 
      2 CA         22.9060   41.7300   11.3740 C.3       9 GLL5        0.0000 
      3 CA         25.0190   38.3670    9.9420 C.3       6 GLP5        0.0000 
      4 CA         19.8315   41.5415   13.9340 C.3       3 GLC5        0.0000 
      5 CA         21.3450   42.6800   12.9590 C.3       9 GLL5        0.0000 
      6 CA         18.3180   40.4030   14.9090 C.3       6 GLP5        0.0000 
      7 O          21.6875   39.2740   11.5715 O.2       1 ALC1        0.0000 
      8 O          22.4140   39.1990   12.7170 O.2       7 ALL1        0.0000 
      9 O          20.9610   39.3490   10.4260 O.2       4 ALP1        0.0000 
     10 CA         23.7670   38.1395   11.6110 C.3       3 GLC5        0.0000 
     11 CA         22.5150   37.9120   13.2800 C.3       9 GLL5        0.0000 
     12 CA         20.9490   37.2515   11.8460 C.3       3 GLC5        0.0000 
     13 CA         19.3830   36.5910   10.4120 C.3       6 GLP5        0.0000 
     14 N          22.0645   36.8705   10.9745 N.am      2 SEC2        0.0000 
     15 N          22.5070   36.8960   12.4260 N.am      8 SEL2        0.0000 
     16 N          21.6220   36.8450    9.5230 N.am      5 SEP2        0.0000 
     17 CA         23.1495   35.7390   10.8260 C.3       3 GLC5        0.0000 
     18 CA         22.6030   35.6370   12.8360 C.3       9 GLL5        0.0000 
     19 CA         23.6960   35.8410    8.8160 C.3       6 GLP5        0.0000 
     20 CA         24.1590   37.2455   18.0235 C.3       3 GLC5        0.0000 
     21 CA         22.0850   37.2880   17.6620 C.3       9 GLL5        0.0000 
     22 CA         26.2330   37.2030   18.3850 C.3       6 GLP5        0.0000 
     23 CA         23.5750   37.6470   21.3515 C.3       3 GLC5        0.0000 
     24 CA         22.1340   36.7480   20.4210 C.3       9 GLL5        0.0000 
     25 CA         25.0160   38.5460   22.2820 C.3       6 GLP5        0.0000 
     26 CA         20.6185   36.0880   19.3230 C.3       3 GLC5        0.0000 
     27 CA         19.1030   35.4280   18.2250 C.3       6 GLP5        0.0000 
     28 CA         23.7485   35.9975   22.3035 C.3       3 GLC5        0.0000 
     29 CA         21.8970   35.5590   21.3430 C.3       9 GLL5        0.0000 
     30 CA         25.6000   36.4360   23.2640 C.3       6 GLP5        0.0000 
     31 CA         20.0925   35.3440   20.9680 C.3       3 GLC5        0.0000 
     32 CA         18.2880   35.1290   20.5930 C.3       6 GLP5        0.0000 
     33 N          23.4020   33.9350   19.4830 N.am      2 SEC2        0.0000 
     34 N          22.9190   35.1790   18.6430 N.am      8 SEL2        0.0000 
     35 N          23.8850   32.6910   20.3230 N.am      5 SEP2        0.0000 
     36 CA         24.5930   34.4490   18.8465 C.3       3 GLC5        0.0000 
     37 CA         23.1510   34.9990   17.3320 C.3       9 GLL5        0.0000 
     38 CA         26.0350   33.8990   20.3610 C.3       6 GLP5        0.0000 
     39 CA         25.7270   35.7450   15.9870 C.3       3 GLC5        0.0000 
     40 CA         24.9980   33.8320   16.0490 C.3       9 GLL5        0.0000 
     41 CA         26.4560   37.6580   15.9250 C.3       6 GLP5        0.0000 
     42 CA         26.5935   30.5240   14.6415 C.3       3 GLC5        0.0000 
     43 CA         25.0870   31.4190   15.9480 C.3       9 GLL5        0.0000 
     44 CA         28.1000   29.6290   13.3350 C.3       6 GLP5        0.0000 
     45 CA         23.2285   28.5540   18.0370 C.3       3 GLC5        0.0000 
     46 CA         23.3050   30.0300   17.1030 C.3       9 GLL5        0.0000 
     47 CA         23.1520   27.0780   18.9710 C.3       6 GLP5        0.0000 
     48 CA         23.7460   42.2981   12.8099 C.3       3 GLC5        0.0000 
     49 CA         22.8210   42.8830   10.6110 C.3       9 GLL5        0.0000 
     50 CA         24.8170   42.3190   14.3320 C.3       6 GLP5        0.0000 
     51 CA         20.9371   42.0499    9.9131 C.3       3 GLC5        0.0000 
     52 CA         19.4340   40.9820    8.8210 C.3       6 GLP5        0.0000 
     53 CA         23.0650   42.7867   13.4522 C.3       3 GLC5        0.0000 
     54 CA         21.2810   43.8290   12.1860 C.3       9 GLL5        0.0000 
     55 CA         22.9670   33.6803   13.1777 C.3       3 GLC5        0.0000 
     56 CA         23.2880   31.8920   12.8520 C.3       6 GLP5        0.0000 
     57 CA         21.0738   35.1436   13.5694 C.3       3 GLC5        0.0000 
     58 CA         22.6890   35.3000   14.1710 C.3       9 GLL5        0.0000 
     59 CA         19.4690   34.3870   12.8290 C.3       6 GLP5        0.0000 
     60 CA         20.7514   37.5396   14.3701 C.3       3 GLC5        0.0000 
     61 CA         22.7110   36.3320   15.1160 C.3       9 GLL5        0.0000 
     62 CA         18.8670   38.0210   14.1990 C.3       6 GLP5        0.0000 
     63 CA         24.5784   37.0981   15.8259 C.3       3 GLC5        0.0000 
     64 CA         22.6060   37.6570   14.6530 C.3       9 GLL5        0.0000 
     65 CA         24.8585   35.7923   17.7327 C.3       3 GLC5        0.0000 
     66 CA         23.8478   32.8450   14.6455 C.3       3 GLC5        0.0000 
     67 CA         23.8170   33.7640   16.8290 C.3       9 GLL5        0.0000 
     68 CA         25.5965   34.3220   14.2717 C.3       3 GLC5        0.0000 
     69 CA         25.6320   32.6680   15.6280 C.3       9 GLL5        0.0000 
     70 CA         25.8780   35.3940   12.7050 C.3       6 GLP5        0.0000 
     71 CA         24.3238   31.9678   14.3200 C.3       3 GLC5        0.0000 
     72 CA         26.4710   32.9177   17.2346 C.3       3 GLC5        0.0000 
     73 CA         27.7410   33.5010   18.5760 C.3       6 GLP5        0.0000 
     74 CA         24.5644   32.4030   18.6376 C.3       3 GLC5        0.0000 
     75 CA         23.9230   31.3590   16.7090 C.3       9 GLL5        0.0000 
     76 CA         25.3850   32.5570   20.4240 C.3       6 GLP5        0.0000 
     77 CA         23.4528   31.9143   14.8927 C.3       3 GLC5        0.0000 
     78 CA         25.7290   29.8768   17.3039 C.3       3 GLC5        0.0000 
     79 CA         27.5530   29.0440   17.8920 C.3       6 GLP5        0.0000 
     80 CA         21.7635   30.9681   16.2775 C.3       3 GLC5        0.0000 
     81 CA         20.0640   30.3320   15.5230 C.3       6 GLP5        0.0000 
     82 CA         24.2594   35.8287   13.3637 C.3       3 GLC5        0.0000 
@<TRIPOS>BOND
@<TRIPOS>SUBSTRUCTURE
     1 ALC1        7 GROUP        1 X    ALC  0     ROOT ALC X 1
     2 SEC2       14 GROUP        1 X    SEC  0     **** SEC X 2
     3 GLC5        1 GROUP        1 X    GLC  0     **** GLC X 6
     4 ALP1        9 GROUP        1 Y    ALP  0     ROOT ALP Y 8
     5 SEP2       16 GROUP        1 Y    SEP  0     **** SEP Y 9
     6 GLP5        3 GROUP        1 Y    GLP  0     **** GLP Y 13
     7 ALL1        8 GROUP        1 Z    ALL  0     ROOT ALL Z 15
     8 SEL2       15 GROUP        1 Z    SEL  0     **** SEL Z 16
     9 GLL5        2 GROUP        1 Z    GLL  0     **** GLL Z 20
@<TRIPOS>SET

