#    Name: 3zsg_T75_1_ligand
#    Modification time : Tue Mar 25 03:54:30 2014

@<TRIPOS>MOLECULE
3zsg_T75_1_ligand
   50    53     1     0     0
SMALL
NO_CHARGES


@<TRIPOS>ATOM
      1 O24        22.2010   40.4820   14.5900 O.2       1 T75400      0.0000 
      2 C22        22.2450   40.3780   13.3730 C.2       1 T75400      0.0000 
      3 C23        22.1520   41.6130   12.5550 C.ar      1 T75400      0.0000 
      4 C29        22.9060   41.7300   11.3740 C.ar      1 T75400      0.0000 
      5 C28        22.8210   42.8830   10.6110 C.ar      1 T75400      0.0000 
      6 C27        22.0170   43.9290   11.0180 C.ar      1 T75400      0.0000 
      7 C26        21.2810   43.8290   12.1860 C.ar      1 T75400      0.0000 
      8 C25        21.3450   42.6800   12.9590 C.ar      1 T75400      0.0000 
      9 N19        22.4140   39.1990   12.7170 N.am      1 T75400      0.0000 
     10 C8         22.5150   37.9120   13.2800 C.ar      1 T75400      0.0000 
     11 C7         22.6060   37.6570   14.6530 C.ar      1 T75400      0.0000 
     12 N9         22.5070   36.8960   12.4260 N.ar      1 T75400      0.0000 
     13 C10        22.6030   35.6370   12.8360 C.ar      1 T75400      0.0000 
     14 C11        22.6890   35.3000   14.1710 C.ar      1 T75400      0.0000 
     15 C6         22.7110   36.3320   15.1160 C.ar      1 T75400      0.0000 
     16 C5         22.7430   36.0820   16.5690 C.2       1 T75400      0.0000 
     17 S4         22.0850   37.2880   17.6620 S.3       1 T75400      0.0000 
     18 C3         22.3900   36.2920   19.0060 C.2       1 T75400      0.0000 
     19 C20        22.1340   36.7480   20.4210 C.3       1 T75400      0.0000 
     20 C21        21.8970   35.5590   21.3430 C.3       1 T75400      0.0000 
     21 N2         22.9190   35.1790   18.6430 N.2       1 T75400      0.0000 
     22 C1         23.1510   34.9990   17.3320 C.2       1 T75400      0.0000 
     23 C12        23.8170   33.7640   16.8290 C.ar      1 T75400      0.0000 
     24 C17        24.9980   33.8320   16.0490 C.ar      1 T75400      0.0000 
     25 C16        25.6320   32.6680   15.6280 C.ar      1 T75400      0.0000 
     26 C15        25.0870   31.4190   15.9480 C.ar      1 T75400      0.0000 
     27 C14        23.9230   31.3590   16.7090 C.ar      1 T75400      0.0000 
     28 C18        23.3050   30.0300   17.1030 C.3       1 T75400      0.0000 
     29 C13        23.3120   32.5140   17.1580 C.ar      1 T75400      0.0000 
     30 H          23.5159   40.9568   11.0855 H         1 T75400      0.0000 
     31 H          23.3619   42.9585    9.7346 H         1 T75400      0.0000 
     32 H          21.9635   44.7898   10.4500 H         1 T75400      0.0000 
     33 H          20.6804   44.6144   12.4842 H         1 T75400      0.0000 
     34 H          20.8022   42.6082   13.8279 H         1 T75400      0.0000 
     35 H          22.4807   39.2346   11.6359 H         1 T75400      0.0000 
     36 H          22.5965   38.4309   15.3228 H         1 T75400      0.0000 
     37 H          22.6158   34.8488   12.1319 H         1 T75400      0.0000 
     38 H          22.7357   34.3292   14.4702 H         1 T75400      0.0000 
     39 H          21.2563   37.3974   20.4441 H         1 T75400      0.0000 
     40 H          22.9933   37.3154   20.7848 H         1 T75400      0.0000 
     41 H          25.3791   34.7523   15.7990 H         1 T75400      0.0000 
     42 H          26.5001   32.7205   15.0822 H         1 T75400      0.0000 
     43 H          25.5411   30.5630   15.6249 H         1 T75400      0.0000 
     44 H          22.4629   32.4486   17.7501 H         1 T75400      0.0000 
     45 H          22.6837   34.9420   21.3631 H         1 T75400      0.0000 
     46 H          21.7269   35.8477   22.2852 H         1 T75400      0.0000 
     47 H          21.1071   35.0175   21.0552 H         1 T75400      0.0000 
     48 H          23.9318   29.4772   17.6522 H         1 T75400      0.0000 
     49 H          22.4726   30.1531   17.6433 H         1 T75400      0.0000 
     50 H          23.0570   29.4840   16.3028 H         1 T75400      0.0000 
@<TRIPOS>BOND
     1    2    1 2    
     2    3    2 1    
     3    9    2 am   
     4    4    3 ar   
     5    8    3 ar   
     6    5    4 ar   
     7   30    4 1    
     8    6    5 ar   
     9   31    5 1    
    10    7    6 ar   
    11   32    6 1    
    12    8    7 ar   
    13   33    7 1    
    14   34    8 1    
    15   10    9 1    
    16   35    9 1    
    17   11   10 ar   
    18   12   10 ar   
    19   15   11 ar   
    20   36   11 1    
    21   13   12 ar   
    22   14   13 ar   
    23   37   13 1    
    24   15   14 ar   
    25   38   14 1    
    26   16   15 1    
    27   17   16 1    
    28   22   16 2    
    29   18   17 1    
    30   19   18 1    
    31   21   18 2    
    32   20   19 1    
    33   39   19 1    
    34   40   19 1    
    35   45   20 1    
    36   46   20 1    
    37   47   20 1    
    38   22   21 1    
    39   23   22 1    
    40   24   23 ar   
    41   29   23 ar   
    42   25   24 ar   
    43   41   24 1    
    44   26   25 ar   
    45   42   25 1    
    46   27   26 ar   
    47   43   26 1    
    48   28   27 1    
    49   29   27 ar   
    50   48   28 1    
    51   49   28 1    
    52   50   28 1    
    53   44   29 1    
@<TRIPOS>SUBSTRUCTURE
     1 T75400      1 GROUP   
@<TRIPOS>SET

