#    Name: 1npd_NAD_2_INTS_M
#    Modification time : Mon Mar 24 18:30:32 2014

@<TRIPOS>MOLECULE
1npd_NAD_2_INTS_M
   82     0    12     0     0
SMALL
NO_CHARGES


@<TRIPOS>ATOM
      1 NZ        -33.0855  -84.0575   -8.5775 N.4       3 LYC4        0.0000 
      2 NZ        -32.4710  -84.6160  -10.3950 N.4      11 LYL4        0.0000 
      3 NZ        -33.7000  -83.4990   -6.7600 N.4       7 LYP4        0.0000 
      4 N         -28.6185  -84.5150  -11.7240 N.am      2 SEC2        0.0000 
      5 N         -30.2470  -84.3190  -11.4570 N.am     10 SEL2        0.0000 
      6 N         -26.9900  -84.7110  -11.9910 N.am      6 SEP2        0.0000 
      7 CA        -32.2885  -86.9080  -11.6190 C.3       4 GLC5        0.0000 
      8 CA        -31.7280  -87.4150   -9.6770 C.3      12 GLL5        0.0000 
      9 CA        -32.8490  -86.4010  -13.5610 C.3       8 GLP5        0.0000 
     10 CA        -32.5875  -86.9345   -7.9260 C.3       4 GLC5        0.0000 
     11 CA        -33.4470  -86.4540   -6.1750 C.3       8 GLP5        0.0000 
     12 CA        -30.5230  -89.4755   -8.2070 C.3       4 GLC5        0.0000 
     13 CA        -31.1660  -88.7940  -10.0010 C.3      12 GLL5        0.0000 
     14 CA        -29.8800  -90.1570   -6.4130 C.3       8 GLP5        0.0000 
     15 CA        -29.8620  -88.0330  -12.0360 C.3       4 GLC5        0.0000 
     16 CA        -31.5590  -89.3510  -11.3800 C.3      12 GLL5        0.0000 
     17 CA        -28.1650  -86.7150  -12.6920 C.3       8 GLP5        0.0000 
     18 N         -29.0790  -90.3555  -12.2205 N.am      2 SEC2        0.0000 
     19 N         -30.4530  -89.9590  -12.1080 N.am     10 SEL2        0.0000 
     20 N         -27.7050  -90.7520  -12.3330 N.am      6 SEP2        0.0000 
     21 O         -30.2790  -91.3075  -12.6905 O.2       1 ALC1        0.0000 
     22 O         -30.4530  -89.9590  -12.1080 O.2       9 ALL1        0.0000 
     23 O         -30.1050  -92.6560  -13.2730 O.2       5 ALP1        0.0000 
     24 N         -32.1885  -92.5890  -13.2495 N.am      2 SEC2        0.0000 
     25 N         -32.6490  -91.4580  -12.0580 N.am     10 SEL2        0.0000 
     26 N         -31.7280  -93.7200  -14.4410 N.am      6 SEP2        0.0000 
     27 O         -33.8540  -91.6420  -12.6770 O.2       1 ALC1        0.0000 
     28 O         -32.6490  -91.4580  -12.0580 O.2       9 ALL1        0.0000 
     29 O         -35.0590  -91.8260  -13.2960 O.2       5 ALP1        0.0000 
     30 CA        -31.1700  -91.5880   -8.6030 C.3       4 GLC5        0.0000 
     31 CA        -32.3780  -90.7440   -9.7010 C.3      12 GLL5        0.0000 
     32 CA        -29.9620  -92.4320   -7.5050 C.3       8 GLP5        0.0000 
     33 CA        -36.1685  -93.9085   -9.4910 C.3       4 GLC5        0.0000 
     34 CA        -35.9270  -93.0970   -7.4380 C.3      12 GLL5        0.0000 
     35 CA        -36.4100  -94.7200  -11.5440 C.3       8 GLP5        0.0000 
     36 CA        -35.4035  -94.6430  -10.0775 C.3       4 GLC5        0.0000 
     37 CA        -34.3970  -94.5660   -8.6110 C.3      12 GLL5        0.0000 
     38 CA        -33.2790  -96.2240   -8.6530 C.3       4 GLC5        0.0000 
     39 CA        -32.1610  -97.8820   -8.6950 C.3       8 GLP5        0.0000 
     40 CA        -34.0195  -93.8245   -6.6205 C.3       4 GLC5        0.0000 
     41 CA        -33.6420  -93.0830   -4.6300 C.3       8 GLP5        0.0000 
     42 CA        -33.7495  -95.6445   -7.1420 C.3       4 GLC5        0.0000 
     43 CA        -33.1020  -96.7230   -5.6730 C.3       8 GLP5        0.0000 
     44 CA        -35.2230  -93.4775  -10.1160 C.3       4 GLC5        0.0000 
     45 CA        -34.0360  -92.2350   -8.6880 C.3      12 GLL5        0.0000 
     46 CA        -32.3440  -91.8610   -7.6055 C.3       4 GLC5        0.0000 
     47 CA        -30.6520  -91.4870   -6.5230 C.3       8 GLP5        0.0000 
     48 N         -26.5950  -84.9690   -9.3215 N.am      2 SEC2        0.0000 
     49 N         -27.9130  -85.1590   -8.9860 N.am     10 SEL2        0.0000 
     50 N         -25.2770  -84.7790   -9.6570 N.am      6 SEP2        0.0000 
     51 CA        -27.1345  -85.6115   -6.8515 C.3       4 GLC5        0.0000 
     52 CA        -29.0960  -85.6170   -6.3390 C.3      12 GLL5        0.0000 
     53 CA        -25.1730  -85.6060   -7.3640 C.3       8 GLP5        0.0000 
     54 CA        -31.2715  -86.0355   -6.2570 C.3       4 GLC5        0.0000 
     55 CA        -30.8590  -86.9580   -4.7040 C.3       4 GLC5        0.0000 
     56 CA        -29.1110  -85.6270   -4.8210 C.3      12 GLL5        0.0000 
     57 CA        -32.6070  -88.2890   -4.5870 C.3       8 GLP5        0.0000 
     58 CA        -31.7390  -85.5375   -5.1860 C.3       4 GLC5        0.0000 
     59 CA        -30.0310  -84.6210   -4.1970 C.3      12 GLL5        0.0000 
     60 CA        -26.5275  -85.7360   -3.2515 C.3       4 GLC5        0.0000 
     61 CA        -27.8700  -84.1690   -3.4590 C.3      12 GLL5        0.0000 
     62 CA        -25.1850  -87.3030   -3.0440 C.3       8 GLP5        0.0000 
     63 CA        -25.4920  -85.2340   -2.7900 C.3       4 GLC5        0.0000 
     64 CA        -25.7990  -83.1650   -2.5360 C.3      12 GLL5        0.0000 
     65 CA        -24.0860  -84.4895   -2.1530 C.3       4 GLC5        0.0000 
     66 CA        -22.3730  -85.8140   -1.7700 C.3       8 GLP5        0.0000 
     67 O         -24.6610  -84.2320   -0.4150 O.2       1 ALC1        0.0000 
     68 O         -23.6850  -82.9680   -0.4560 O.2       9 ALL1        0.0000 
     69 O         -25.6370  -85.4960   -0.3740 O.2       5 ALP1        0.0000 
     70 O         -22.9850  -83.2615    0.8240 O.2       1 ALC1        0.0000 
     71 O         -22.2850  -83.5550    2.1040 O.2       5 ALP1        0.0000 
     72 CA        -32.7455  -89.2463  -12.7628 C.3       4 GLC5        0.0000 
     73 CA        -33.3810  -88.6400  -14.2770 C.3       8 GLP5        0.0000 
     74 CA        -34.2157  -92.7394   -6.4041 C.3       4 GLC5        0.0000 
     75 CA        -35.1590  -92.0160   -7.8990 C.3      12 GLL5        0.0000 
     76 CA        -31.2815  -83.9150   -2.7782 C.3       4 GLC5        0.0000 
     77 CA        -32.9770  -83.7850   -1.5680 C.3       8 GLP5        0.0000 
     78 CA        -23.0918  -83.3932   -3.2243 C.3       4 GLC5        0.0000 
     79 CA        -24.6410  -82.3840   -2.6580 C.3      12 GLL5        0.0000 
     80 CA        -21.6570  -84.7040   -3.1520 C.3       8 GLP5        0.0000 
     81 CA        -25.5140  -83.9660   -6.1735 C.3       4 GLC5        0.0000 
     82 CA        -25.2780  -81.9340   -5.0510 C.3      12 GLL5        0.0000 
@<TRIPOS>BOND
@<TRIPOS>SUBSTRUCTURE
     1 ALC1       21 GROUP        1 X    ALC  0     ROOT ALC X 1
     2 SEC2        4 GROUP        1 X    SEC  0     **** SEC X 2
     3 LYC4        1 GROUP        1 X    LYC  0     **** LYC X 4
     4 GLC5        7 GROUP        1 X    GLC  0     **** GLC X 6
     5 ALP1       23 GROUP        1 Y    ALP  0     ROOT ALP Y 8
     6 SEP2        6 GROUP        1 Y    SEP  0     **** SEP Y 9
     7 LYP4        3 GROUP        1 Y    LYP  0     **** LYP Y 11
     8 GLP5        9 GROUP        1 Y    GLP  0     **** GLP Y 13
     9 ALL1       22 GROUP        1 Z    ALL  0     ROOT ALL Z 15
    10 SEL2        5 GROUP        1 Z    SEL  0     **** SEL Z 16
    11 LYL4        2 GROUP        1 Z    LYL  0     **** LYL Z 18
    12 GLL5        8 GROUP        1 Z    GLL  0     **** GLL Z 20
@<TRIPOS>SET

