#    Name: 1npd_NAD_2_ligand
#    Modification time : Mon Mar 24 18:30:32 2014

@<TRIPOS>MOLECULE
1npd_NAD_2_ligand
   70    74     1     0     0
SMALL
NO_CHARGES


@<TRIPOS>ATOM
      1 PA        -31.0450  -84.9310  -10.3990 P.3       1 NAD300      0.0000 
      2 O1A       -32.4710  -84.6160  -10.3950 O.co2     1 NAD300      0.0000 
      3 O2A       -30.2470  -84.3190  -11.4570 O.co2     1 NAD300      0.0000 
      4 O5B       -30.8640  -86.5310  -10.4130 O.3       1 NAD300      0.0000 
      5 C5B       -31.7280  -87.4150   -9.6770 C.3       1 NAD300      0.0000 
      6 C4B       -31.1660  -88.7940  -10.0010 C.3       1 NAD300      0.0000 
      7 O4B       -31.6660  -89.6860   -9.0500 O.3       1 NAD300      0.0000 
      8 C3B       -31.5590  -89.3510  -11.3800 C.3       1 NAD300      0.0000 
      9 O3B       -30.4530  -89.9590  -12.1080 O.3       1 NAD300      0.0000 
     10 C2B       -32.6610  -90.3540  -11.1170 C.3       1 NAD300      0.0000 
     11 O2B       -32.6490  -91.4580  -12.0580 O.3       1 NAD300      0.0000 
     12 C1B       -32.3780  -90.7440   -9.7010 C.3       1 NAD300      0.0000 
     13 N9A       -33.5810  -91.0130   -8.9080 N.pl3     1 NAD300      0.0000 
     14 C8A       -34.3950  -90.1130   -8.2840 C.2       1 NAD300      0.0000 
     15 N7A       -35.3970  -90.7320   -7.6380 N.2       1 NAD300      0.0000 
     16 C5A       -35.1590  -92.0160   -7.8990 C.ar      1 NAD300      0.0000 
     17 C6A       -35.9270  -93.0970   -7.4380 C.ar      1 NAD300      0.0000 
     18 N6A       -37.0130  -92.9160   -6.6700 N.pl3     1 NAD300      0.0000 
     19 N1A       -35.4860  -94.3280   -7.8370 N.ar      1 NAD300      0.0000 
     20 C2A       -34.3970  -94.5660   -8.6110 C.ar      1 NAD300      0.0000 
     21 N3A       -33.6680  -93.5140   -9.0380 N.ar      1 NAD300      0.0000 
     22 C4A       -34.0360  -92.2350   -8.6880 C.ar      1 NAD300      0.0000 
     23 O3        -30.3890  -84.5860   -8.9750 O.3       1 NAD300      0.0000 
     24 PN        -28.9300  -84.1790   -8.4790 P.3       1 NAD300      0.0000 
     25 O1N       -28.6760  -82.7580   -8.7550 O.co2     1 NAD300      0.0000 
     26 O2N       -27.9130  -85.1590   -8.9860 O.co2     1 NAD300      0.0000 
     27 O5D       -29.0350  -84.2850   -6.8740 O.3       1 NAD300      0.0000 
     28 C5D       -29.0960  -85.6170   -6.3390 C.3       1 NAD300      0.0000 
     29 C4D       -29.1110  -85.6270   -4.8210 C.3       1 NAD300      0.0000 
     30 O4D       -27.8110  -85.3030   -4.3300 O.3       1 NAD300      0.0000 
     31 C3D       -30.0310  -84.6210   -4.1970 C.3       1 NAD300      0.0000 
     32 O3D       -30.5890  -85.2760   -3.0800 O.3       1 NAD300      0.0000 
     33 C2D       -29.1410  -83.4690   -3.7800 C.3       1 NAD300      0.0000 
     34 O2D       -29.6810  -82.7320   -2.6620 O.3       1 NAD300      0.0000 
     35 C1D       -27.8700  -84.1690   -3.4590 C.3       1 NAD300      0.0000 
     36 N1N       -26.6780  -83.3320   -3.6400 N.pl3     1 NAD300      0.0000 
     37 C2N       -25.7990  -83.1650   -2.5360 C.ar      1 NAD300      0.0000 
     38 C3N       -24.6410  -82.3840   -2.6580 C.ar      1 NAD300      0.0000 
     39 C7N       -23.6310  -82.1480   -1.5170 C.2       1 NAD300      0.0000 
     40 O7N       -22.8100  -81.2430   -1.5720 O.2       1 NAD300      0.0000 
     41 N7N       -23.6850  -82.9680   -0.4560 N.am      1 NAD300      0.0000 
     42 C4N       -24.4120  -81.7810   -3.9350 C.ar      1 NAD300      0.0000 
     43 C5N       -25.2780  -81.9340   -5.0510 C.ar      1 NAD300      0.0000 
     44 C6N       -26.4320  -82.7180   -4.9150 C.ar      1 NAD300      0.0000 
     45 H         -32.7382  -87.3694  -10.0228 H         1 NAD300      0.0000 
     46 H         -31.6585  -87.2585   -8.6221 H         1 NAD300      0.0000 
     47 H         -30.0866  -88.7510   -9.9506 H         1 NAD300      0.0000 
     48 H         -31.9987  -88.5305  -11.9430 H         1 NAD300      0.0000 
     49 H         -33.5925  -89.8079  -11.1304 H         1 NAD300      0.0000 
     50 H         -31.7498  -91.6395   -9.7068 H         1 NAD300      0.0000 
     51 H         -34.2564  -89.1416   -8.3107 H         1 NAD300      0.0000 
     52 H         -37.5165  -93.7425   -6.4180 H         1 NAD300      0.0000 
     53 H         -37.2215  -91.9709   -6.4185 H         1 NAD300      0.0000 
     54 H         -34.1357  -95.5301   -8.8650 H         1 NAD300      0.0000 
     55 H         -28.2313  -86.2209   -6.6738 H         1 NAD300      0.0000 
     56 H         -30.0017  -86.1466   -6.6908 H         1 NAD300      0.0000 
     57 H         -29.3922  -86.6142   -4.4751 H         1 NAD300      0.0000 
     58 H         -30.7300  -84.3068   -4.9039 H         1 NAD300      0.0000 
     59 H         -28.9816  -82.8570   -4.6466 H         1 NAD300      0.0000 
     60 H         -27.9244  -84.5164   -2.4279 H         1 NAD300      0.0000 
     61 H         -26.0209  -83.6231   -1.6458 H         1 NAD300      0.0000 
     62 H         -23.0046  -82.8077    0.2591 H         1 NAD300      0.0000 
     63 H         -24.4008  -83.6660   -0.4753 H         1 NAD300      0.0000 
     64 H         -23.5554  -81.1935   -4.0499 H         1 NAD300      0.0000 
     65 H         -25.0566  -81.4786   -5.9304 H         1 NAD300      0.0000 
     66 H         -27.0746  -82.8555   -5.6730 H         1 NAD300      0.0000 
     67 H         -30.6973  -90.9253  -12.1898 H         1 NAD300      0.0000 
     68 H         -33.5731  -91.4830  -12.4393 H         1 NAD300      0.0000 
     69 H         -30.8978  -84.5408   -2.4766 H         1 NAD300      0.0000 
     70 H         -29.0185  -82.8596   -1.9239 H         1 NAD300      0.0000 
@<TRIPOS>BOND
     1    2    1 ar   
     2    3    1 ar   
     3    4    1 1    
     4   23    1 1    
     5    5    4 1    
     6    6    5 1    
     7   45    5 1    
     8   46    5 1    
     9    7    6 1    
    10    8    6 1    
    11   47    6 1    
    12   12    7 1    
    13    9    8 1    
    14   10    8 1    
    15   48    8 1    
    16   67    9 1    
    17   11   10 1    
    18   12   10 1    
    19   49   10 1    
    20   68   11 1    
    21   13   12 1    
    22   50   12 1    
    23   14   13 1    
    24   22   13 1    
    25   15   14 2    
    26   51   14 1    
    27   16   15 1    
    28   17   16 ar   
    29   22   16 ar   
    30   18   17 1    
    31   19   17 ar   
    32   52   18 1    
    33   53   18 1    
    34   20   19 ar   
    35   21   20 ar   
    36   54   20 1    
    37   22   21 ar   
    38   24   23 1    
    39   25   24 ar   
    40   26   24 ar   
    41   27   24 1    
    42   28   27 1    
    43   29   28 1    
    44   55   28 1    
    45   56   28 1    
    46   30   29 1    
    47   31   29 1    
    48   57   29 1    
    49   35   30 1    
    50   32   31 1    
    51   33   31 1    
    52   58   31 1    
    53   69   32 1    
    54   34   33 1    
    55   35   33 1    
    56   59   33 1    
    57   70   34 1    
    58   36   35 1    
    59   60   35 1    
    60   37   36 ar   
    61   44   36 ar   
    62   38   37 ar   
    63   61   37 1    
    64   39   38 1    
    65   42   38 ar   
    66   40   39 2    
    67   41   39 am   
    68   62   41 1    
    69   63   41 1    
    70   43   42 ar   
    71   64   42 1    
    72   44   43 ar   
    73   65   43 1    
    74   66   44 1    
@<TRIPOS>SUBSTRUCTURE
     1 NAD300      1 GROUP   
@<TRIPOS>SET

