#    Name: 2vwz_7X6_1_INTS_M
#    Modification time : Tue Mar 25 03:13:01 2014

@<TRIPOS>MOLECULE
2vwz_7X6_1_INTS_M
   73     0     9     0     0
SMALL
NO_CHARGES


@<TRIPOS>ATOM
      1 O          15.0100    7.5405   11.1305 O.2       1 ALC1        0.0000 
      2 O          13.6440    7.4540   11.6170 O.2       7 ALL1        0.0000 
      3 O          16.3760    7.6270   10.6440 O.2       4 ALP1        0.0000 
      4 CA         12.7670    5.5995   13.7360 C.3       3 GLC5        0.0000 
      5 CA         13.0090    6.2490   11.8950 C.3       9 GLL5        0.0000 
      6 CA         12.5250    4.9500   15.5770 C.3       6 GLP5        0.0000 
      7 CA         14.7320    5.5210   10.9030 C.3       3 GLC5        0.0000 
      8 CA         16.4550    4.7930    9.9110 C.3       6 GLP5        0.0000 
      9 CA         12.6715    4.7880   10.4450 C.3       3 GLC5        0.0000 
     10 CA         12.3340    3.3270    8.9950 C.3       6 GLP5        0.0000 
     11 N          15.3880    5.2195   12.2470 N.am      2 SEC2        0.0000 
     12 N          13.8960    5.2800   12.1850 N.am      8 SEL2        0.0000 
     13 N          16.8800    5.1590   12.3090 N.am      5 SEP2        0.0000 
     14 CA         15.1460    4.2560   13.5410 C.3       3 GLC5        0.0000 
     15 CA         13.3820    4.0620   12.4540 C.3       9 GLL5        0.0000 
     16 CA         16.9100    4.4500   14.6280 C.3       6 GLP5        0.0000 
     17 CA         14.8640    3.6590   11.2975 C.3       3 GLC5        0.0000 
     18 CA         16.3460    3.2560   10.1410 C.3       6 GLP5        0.0000 
     19 CA         10.0690    6.3785   13.2045 C.3       3 GLC5        0.0000 
     20 CA         11.1920    4.9240   12.0710 C.3       9 GLL5        0.0000 
     21 CA          8.9460    7.8330   14.3380 C.3       6 GLP5        0.0000 
     22 CA         10.7905    4.0255   14.5870 C.3       3 GLC5        0.0000 
     23 CA          9.0560    3.1010   13.5970 C.3       9 GLL5        0.0000 
     24 CA          7.4000    3.5805   14.4650 C.3       3 GLC5        0.0000 
     25 CA          5.7440    4.0600   15.3330 C.3       6 GLP5        0.0000 
     26 CA         10.9665    3.8280   15.6440 C.3       3 GLC5        0.0000 
     27 CA          9.4080    2.7060   15.7110 C.3       9 GLL5        0.0000 
     28 CA          9.5380    3.8450   17.3835 C.3       3 GLC5        0.0000 
     29 CA          9.6680    4.9840   19.0560 C.3       6 GLP5        0.0000 
     30 CA          7.5760    3.3830   15.5220 C.3       3 GLC5        0.0000 
     31 CA         10.2805    1.0530   15.4430 C.3       3 GLC5        0.0000 
     32 CA         11.1530   -0.6000   15.1750 C.3       6 GLP5        0.0000 
     33 CA          6.6840    2.5105   14.1880 C.3       3 GLC5        0.0000 
     34 CA          8.3970    1.9480   13.9370 C.3       9 GLL5        0.0000 
     35 CA          4.9710    3.0730   14.4390 C.3       6 GLP5        0.0000 
     36 CA          8.0580   -0.8230   13.5065 C.3       3 GLC5        0.0000 
     37 CA          7.7790    1.1560   13.0030 C.3       9 GLL5        0.0000 
     38 CA          8.3370   -2.8020   14.0100 C.3       6 GLP5        0.0000 
     39 CA         10.4465    3.3395    9.3260 C.3       3 GLC5        0.0000 
     40 CA          8.5590    3.3520    9.6570 C.3       9 GLL5        0.0000 
     41 CA          9.3130    1.9120    8.5310 C.3       3 GLC5        0.0000 
     42 CA         10.0670    0.4720    7.4050 C.3       6 GLP5        0.0000 
     43 CA         10.0945    8.4550    6.2385 C.3       3 GLC5        0.0000 
     44 CA          9.4280    8.4370    8.1980 C.3       9 GLL5        0.0000 
     45 CA         10.7610    8.4730    4.2790 C.3       6 GLP5        0.0000 
     46 CA         10.7020    6.7800    7.8110 C.3       3 GLC5        0.0000 
     47 CA         11.9760    5.1230    7.4240 C.3       6 GLP5        0.0000 
     48 CA         10.3055    8.2960   12.6345 C.3       3 GLC5        0.0000 
     49 CA         11.6650    8.7590   10.9310 C.3       9 GLL5        0.0000 
     50 CA         12.3630    2.1242   12.0105 C.3       3 GLC5        0.0000 
     51 CA         12.0270    0.2870   11.5920 C.3       6 GLP5        0.0000 
     52 CA         12.2353    4.6964   13.9135 C.3       3 GLC5        0.0000 
     53 CA         12.1397    3.8849   10.6225 C.3       3 GLC5        0.0000 
     54 CA         12.0160    3.8610   12.4040 C.3       9 GLL5        0.0000 
     55 CA          6.9538    3.3535   12.3880 C.3       3 GLC5        0.0000 
     56 CA          9.1300    3.5770   12.3000 C.3       9 GLL5        0.0000 
     57 CA          5.0910    3.5170   12.9610 C.3       6 GLP5        0.0000 
     58 CA          9.6205    0.4760   14.3225 C.3       3 GLC5        0.0000 
     59 CA          6.4533    2.4497   12.6517 C.3       3 GLC5        0.0000 
     60 CA         10.1806    1.3432   11.6703 C.3       3 GLC5        0.0000 
     61 CA          7.8520    1.6090   11.6820 C.3       9 GLL5        0.0000 
     62 CA         12.0493   10.3100   12.4425 C.3       3 GLC5        0.0000 
     63 CA         11.1830    9.9940   10.5020 C.3       9 GLL5        0.0000 
     64 CA         12.4910   10.0850   14.4530 C.3       6 GLP5        0.0000 
     65 CA         12.9228    9.7665    9.0295 C.3       3 GLC5        0.0000 
     66 CA         14.2380    8.9980    7.6270 C.3       6 GLP5        0.0000 
     67 CA         13.0600   10.2088   12.6405 C.3       3 GLC5        0.0000 
     68 CA         13.3790   10.9380   10.6190 C.3       9 GLL5        0.0000 
     69 CA         13.9335    9.6653    9.2275 C.3       3 GLC5        0.0000 
     70 CA         13.8790    9.7270   11.0370 C.3       9 GLL5        0.0000 
     71 CA         12.4165    9.3920   12.7557 C.3       3 GLC5        0.0000 
     72 CA         13.0190    8.6390   11.1860 C.3       9 GLL5        0.0000 
     73 CA         13.2900    8.8485    9.3427 C.3       3 GLC5        0.0000 
@<TRIPOS>BOND
@<TRIPOS>SUBSTRUCTURE
     1 ALC1        1 GROUP        1 X    ALC  0     ROOT ALC X 1
     2 SEC2       11 GROUP        1 X    SEC  0     **** SEC X 2
     3 GLC5        4 GROUP        1 X    GLC  0     **** GLC X 6
     4 ALP1        3 GROUP        1 Y    ALP  0     ROOT ALP Y 8
     5 SEP2       13 GROUP        1 Y    SEP  0     **** SEP Y 9
     6 GLP5        6 GROUP        1 Y    GLP  0     **** GLP Y 13
     7 ALL1        2 GROUP        1 Z    ALL  0     ROOT ALL Z 15
     8 SEL2       12 GROUP        1 Z    SEL  0     **** SEL Z 16
     9 GLL5        5 GROUP        1 Z    GLL  0     **** GLL Z 20
@<TRIPOS>SET

