#    Name: 2vwz_7X6_1_ligand
#    Modification time : Tue Mar 25 03:13:01 2014

@<TRIPOS>MOLECULE
2vwz_7X6_1_ligand
   45    48     1     0     0
SMALL
NO_CHARGES


@<TRIPOS>ATOM
      1 N2         13.6440    7.4540   11.6170 N.pl3     1 7X61889     0.0000 
      2 C7         13.0090    6.2490   11.8950 C.ar      1 7X61889     0.0000 
      3 N3         13.8960    5.2800   12.1850 N.ar      1 7X61889     0.0000 
      4 C8         13.3820    4.0620   12.4540 C.ar      1 7X61889     0.0000 
      5 C9         12.0160    3.8610   12.4040 C.ar      1 7X61889     0.0000 
      6 C10        11.1920    4.9240   12.0710 C.ar      1 7X61889     0.0000 
      7 N4          9.7940    4.7930   12.0020 N.pl3     1 7X61889     0.0000 
      8 C11         9.1300    3.5770   12.3000 C.ar      1 7X61889     0.0000 
      9 C12         9.0560    3.1010   13.5970 C.ar      1 7X61889     0.0000 
     10 O3          9.6260    3.7260   14.6940 O.3       1 7X61889     0.0000 
     11 C13         9.4080    2.7060   15.7110 C.3       1 7X61889     0.0000 
     12 O4          8.4610    1.7000   15.2850 O.3       1 7X61889     0.0000 
     13 C14         8.3970    1.9480   13.9370 C.ar      1 7X61889     0.0000 
     14 C15         7.7790    1.1560   13.0030 C.ar      1 7X61889     0.0000 
     15 C16         7.8520    1.6090   11.6820 C.ar      1 7X61889     0.0000 
     16 C17         8.5030    2.8030   11.3300 C.ar      1 7X61889     0.0000 
     17 CL1         8.5590    3.3520    9.6570 Cl        1 7X61889     0.0000 
     18 N5         11.6830    6.1270   11.8280 N.ar      1 7X61889     0.0000 
     19 C1          9.4280    8.4370    8.1980 C.3       1 7X61889     0.0000 
     20 S1          8.7140    9.0380    9.7100 S.o2      1 7X61889     0.0000 
     21 O1          8.6090    7.8620   10.5640 O.2       1 7X61889     0.0000 
     22 O2          7.5060    9.7720    9.3450 O.2       1 7X61889     0.0000 
     23 N1          9.8050   10.2680   10.2030 N.pl3     1 7X61889     0.0000 
     24 C2         11.1830    9.9940   10.5020 C.ar      1 7X61889     0.0000 
     25 C3         12.0320   11.0760   10.3620 C.ar      1 7X61889     0.0000 
     26 C4         13.3790   10.9380   10.6190 C.ar      1 7X61889     0.0000 
     27 C5         13.8790    9.7270   11.0370 C.ar      1 7X61889     0.0000 
     28 C6         13.0190    8.6390   11.1860 C.ar      1 7X61889     0.0000 
     29 C18        11.6650    8.7590   10.9310 C.ar      1 7X61889     0.0000 
     30 H          14.7050    7.4907   11.7399 H         1 7X61889     0.0000 
     31 H          14.0004    3.2666   12.7000 H         1 7X61889     0.0000 
     32 H          11.6168    2.9410   12.6096 H         1 7X61889     0.0000 
     33 H           9.2230    5.6142   11.7231 H         1 7X61889     0.0000 
     34 H           9.0524    3.1875   16.6482 H         1 7X61889     0.0000 
     35 H          10.3779    2.2273   15.9692 H         1 7X61889     0.0000 
     36 H           7.3039    0.3079   13.2379 H         1 7X61889     0.0000 
     37 H           7.4080    1.0419   10.9292 H         1 7X61889     0.0000 
     38 H           9.3621   11.1535   10.2481 H         1 7X61889     0.0000 
     39 H          11.6538   11.9899   10.0638 H         1 7X61889     0.0000 
     40 H          14.0120   11.7451   10.4972 H         1 7X61889     0.0000 
     41 H          14.8803    9.6151   11.2409 H         1 7X61889     0.0000 
     42 H          11.0348    7.9707   11.0518 H         1 7X61889     0.0000 
     43 H          10.3277    8.0276    8.3492 H         1 7X61889     0.0000 
     44 H           8.8560    7.7376    7.7694 H         1 7X61889     0.0000 
     45 H           9.5480    9.1689    7.5273 H         1 7X61889     0.0000 
@<TRIPOS>BOND
     1    2    1 1    
     2   28    1 1    
     3   30    1 1    
     4    3    2 ar   
     5   18    2 ar   
     6    4    3 ar   
     7    5    4 ar   
     8   31    4 1    
     9    6    5 ar   
    10   32    5 1    
    11    7    6 1    
    12   18    6 ar   
    13    8    7 1    
    14   33    7 1    
    15    9    8 ar   
    16   16    8 ar   
    17   10    9 1    
    18   13    9 ar   
    19   11   10 1    
    20   12   11 1    
    21   34   11 1    
    22   35   11 1    
    23   13   12 1    
    24   14   13 ar   
    25   15   14 ar   
    26   36   14 1    
    27   16   15 ar   
    28   37   15 1    
    29   17   16 1    
    30   20   19 1    
    31   43   19 1    
    32   44   19 1    
    33   45   19 1    
    34   21   20 2    
    35   22   20 2    
    36   23   20 1    
    37   24   23 1    
    38   38   23 1    
    39   25   24 ar   
    40   29   24 ar   
    41   26   25 ar   
    42   39   25 1    
    43   27   26 ar   
    44   40   26 1    
    45   28   27 ar   
    46   41   27 1    
    47   29   28 ar   
    48   42   29 1    
@<TRIPOS>SUBSTRUCTURE
     1 7X61889     1 GROUP   
@<TRIPOS>SET

