#    Name: 1b6j_PI1_1_INTS_M
#    Modification time : Mon Mar 24 19:25:08 2014

@<TRIPOS>MOLECULE
1b6j_PI1_1_INTS_M
   91     0     9     0     0
SMALL
NO_CHARGES


@<TRIPOS>ATOM
      1 N           2.7750    5.0175   12.4670 N.am      2 SEC2        0.0000 
      2 N           3.7960    4.3130   11.3740 N.am      8 SEL2        0.0000 
      3 N           1.7540    5.7220   13.5600 N.am      5 SEP2        0.0000 
      4 O           3.6770    1.3870    9.6030 O.2       1 ALC1        0.0000 
      5 O           3.9350    2.1390   10.8180 O.2       7 ALL1        0.0000 
      6 O           3.4190    0.6350    8.3880 O.2       4 ALP1        0.0000 
      7 CA          2.8610    2.8250   13.5810 C.3       3 GLC5        0.0000 
      8 CA          3.2650    1.6680   12.0450 C.3       9 GLL5        0.0000 
      9 CA          2.4570    3.9820   15.1170 C.3       6 GLP5        0.0000 
     10 CA          1.6060    2.1395   13.6470 C.3       3 GLC5        0.0000 
     11 CA          1.8040    1.3250   11.7710 C.3       9 GLL5        0.0000 
     12 CA          1.4080    2.9540   15.5230 C.3       6 GLP5        0.0000 
     13 CA          0.6335    0.5725   13.3900 C.3       3 GLC5        0.0000 
     14 CA         -0.5370   -0.1800   15.0090 C.3       6 GLP5        0.0000 
     15 CA          1.0740   -0.4535   11.6900 C.3       3 GLC5        0.0000 
     16 CA          0.3440   -2.2320   11.6090 C.3       6 GLP5        0.0000 
     17 N          -0.1130    4.5390   12.4195 N.am      2 SEC2        0.0000 
     18 N           0.6600    3.4160   11.9450 N.am      8 SEL2        0.0000 
     19 N          -0.8860    5.6620   12.8940 N.am      5 SEP2        0.0000 
     20 O           5.0250    2.1720   14.2260 O.2       1 ALC1        0.0000 
     21 O           4.8490    0.6910   13.5920 O.2       7 ALL1        0.0000 
     22 O           5.2010    3.6530   14.8600 O.2       4 ALP1        0.0000 
     23 CA          6.2245   -0.4495    9.7920 C.3       3 GLC5        0.0000 
     24 CA          7.7340    0.8310   10.6380 C.3       9 GLL5        0.0000 
     25 CA          4.7150   -1.7300    8.9460 C.3       6 GLP5        0.0000 
     26 N           4.3655    1.0650   17.3720 N.am      2 SEC2        0.0000 
     27 N           5.2480    0.4690   16.4450 N.am      8 SEL2        0.0000 
     28 N           3.4830    1.6610   18.2990 N.am      5 SEP2        0.0000 
     29 O           6.4255    0.6385   16.9995 O.2       1 ALC1        0.0000 
     30 O           5.2480    0.4690   16.4450 O.2       7 ALL1        0.0000 
     31 O           7.6030    0.8080   17.5540 O.2       4 ALP1        0.0000 
     32 CA          1.5810   -0.6350   15.2480 C.3       3 GLC5        0.0000 
     33 CA          3.6990   -1.0900   15.4870 C.3       9 GLL5        0.0000 
     34 CA          1.8750   -6.2345   14.8365 C.3       3 GLC5        0.0000 
     35 CA          2.5420   -4.6660   15.3720 C.3       9 GLL5        0.0000 
     36 CA          1.2080   -7.8030   14.3010 C.3       6 GLP5        0.0000 
     37 CA          3.6465   -5.7055   14.0490 C.3       3 GLC5        0.0000 
     38 CA          4.7510   -6.7450   12.7260 C.3       6 GLP5        0.0000 
     39 CA          0.8375   -2.6605   16.1060 C.3       3 GLC5        0.0000 
     40 CA          2.3670   -3.2470   14.8510 C.3       9 GLL5        0.0000 
     41 CA         -0.6920   -2.0740   17.3610 C.3       6 GLP5        0.0000 
     42 CA          1.5835   -3.4495   13.0925 C.3       3 GLC5        0.0000 
     43 CA          0.8000   -3.6520   11.3340 C.3       6 GLP5        0.0000 
     44 O           5.8285   -3.6745   18.1725 O.2       1 ALC1        0.0000 
     45 O           6.2670   -4.5230   16.9150 O.2       7 ALL1        0.0000 
     46 O           5.3900   -2.8260   19.4300 O.2       4 ALP1        0.0000 
     47 CA          7.7910   -3.9100   18.3510 C.3       3 GLC5        0.0000 
     48 CA          7.5050   -5.2630   16.6770 C.3       9 GLL5        0.0000 
     49 CA          8.0770   -2.5570   20.0250 C.3       6 GLP5        0.0000 
     50 N           8.0010   -5.4270   19.9730 N.am      2 SEC2        0.0000 
     51 N           7.3650   -6.1760   18.8800 N.am      8 SEL2        0.0000 
     52 N           8.6370   -4.6780   21.0660 N.am      5 SEP2        0.0000 
     53 CA         11.6205   -5.8565   18.4010 C.3       3 GLC5        0.0000 
     54 CA         10.0080   -5.3640   16.9340 C.3       9 GLL5        0.0000 
     55 CA         13.2330   -6.3490   19.8680 C.3       6 GLP5        0.0000 
     56 CA         11.7755   -4.6730   16.3420 C.3       3 GLC5        0.0000 
     57 CA         13.5430   -3.9820   15.7500 C.3       6 GLP5        0.0000 
     58 CA         11.3015   -6.1135   15.4290 C.3       3 GLC5        0.0000 
     59 CA         12.5950   -6.8630   13.9240 C.3       6 GLP5        0.0000 
     60 CA          8.7825   -3.8685   12.9130 C.3       3 GLC5        0.0000 
     61 CA          9.1600   -3.6980   14.6320 C.3       9 GLL5        0.0000 
     62 CA          8.4050   -4.0390   11.1940 C.3       6 GLP5        0.0000 
     63 O           6.9980   -7.5915   15.6970 O.2       1 ALC1        0.0000 
     64 O           7.0850   -7.5930   17.1520 O.2       7 ALL1        0.0000 
     65 O           6.9110   -7.5900   14.2420 O.2       4 ALP1        0.0000 
     66 N           8.4550   -9.9140   15.1065 N.am      2 SEC2        0.0000 
     67 N           8.3940  -10.0630   16.5900 N.am      8 SEL2        0.0000 
     68 N           8.5160   -9.7650   13.6230 N.am      5 SEP2        0.0000 
     69 CA          6.4120   -9.7510   14.5890 C.3       3 GLC5        0.0000 
     70 CA          5.4180  -10.0870   16.4130 C.3       9 GLL5        0.0000 
     71 CA          7.4060   -9.4150   12.7650 C.3       6 GLP5        0.0000 
     72 CA          8.2040    3.8460   13.7080 C.3       3 GLC5        0.0000 
     73 CA          7.4990    2.2910   12.9850 C.3       9 GLL5        0.0000 
     74 CA          8.8550    5.0690   15.0460 C.3       6 GLP5        0.0000 
     75 CA          9.3750    2.9900   12.0490 C.3       3 GLC5        0.0000 
     76 CA         11.1970    3.3570   11.7280 C.3       6 GLP5        0.0000 
     77 CA          7.8495   -1.4580   10.5380 C.3       3 GLC5        0.0000 
     78 CA          7.6300    0.1790   11.8640 C.3       9 GLL5        0.0000 
     79 CA          8.0170   -3.4210    9.8250 C.3       6 GLP5        0.0000 
     80 CA          9.2423    0.4686   13.4024 C.3       3 GLC5        0.0000 
     81 CA         10.9690    0.1390   14.2040 C.3       6 GLP5        0.0000 
     82 CA          9.2260    1.2893    9.2982 C.3       3 GLC5        0.0000 
     83 CA         10.7310    1.0530    7.9900 C.3       6 GLP5        0.0000 
     84 CA          9.4590    2.4413   11.1672 C.3       3 GLC5        0.0000 
     85 CA          1.3650   -5.1455   17.1145 C.3       3 GLC5        0.0000 
     86 CA         -0.1210   -5.7290   18.1850 C.3       6 GLP5        0.0000 
     87 CA         10.0132   -1.6755   14.7725 C.3       3 GLC5        0.0000 
     88 CA          8.9550   -3.2820   16.0500 C.3       9 GLL5        0.0000 
     89 CA          9.3042   -3.1818   18.0452 C.3       3 GLC5        0.0000 
     90 CA          8.7830   -4.4560   17.0160 C.3       9 GLL5        0.0000 
     91 CA          9.1700   -1.7470   19.3570 C.3       6 GLP5        0.0000 
@<TRIPOS>BOND
@<TRIPOS>SUBSTRUCTURE
     1 ALC1        4 GROUP        1 X    ALC  0     ROOT ALC X 1
     2 SEC2        1 GROUP        1 X    SEC  0     **** SEC X 2
     3 GLC5        7 GROUP        1 X    GLC  0     **** GLC X 6
     4 ALP1        6 GROUP        1 Y    ALP  0     ROOT ALP Y 8
     5 SEP2        3 GROUP        1 Y    SEP  0     **** SEP Y 9
     6 GLP5        9 GROUP        1 Y    GLP  0     **** GLP Y 13
     7 ALL1        5 GROUP        1 Z    ALL  0     ROOT ALL Z 15
     8 SEL2        2 GROUP        1 Z    SEL  0     **** SEL Z 16
     9 GLL5        8 GROUP        1 Z    GLL  0     **** GLL Z 20
@<TRIPOS>SET

