#    Name: 1b6j_PI1_1_ligand
#    Modification time : Mon Mar 24 19:25:08 2014

@<TRIPOS>MOLECULE
1b6j_PI1_1_ligand
  103   105     1     0     0
SMALL
NO_CHARGES


@<TRIPOS>ATOM
      1 C1          6.0980    4.6800    9.6030 C.3       1 PI1201      0.0000 
      2 C2          4.1570    3.4300   10.5900 C.2       1 PI1201      0.0000 
      3 O3          3.7960    4.3130   11.3740 O.2       1 PI1201      0.0000 
      4 C4          4.8970    3.7810    9.3140 C.3       1 PI1201      0.0000 
      5 N5          3.9350    2.1390   10.8180 N.am      1 PI1201      0.0000 
      6 C6          3.2650    1.6680   12.0450 C.3       1 PI1201      0.0000 
      7 C7          4.0410    0.4620   12.5560 C.2       1 PI1201      0.0000 
      8 O8          3.9570   -0.6280   11.9920 O.2       1 PI1201      0.0000 
      9 C9          1.8040    1.3250   11.7710 C.3       1 PI1201      0.0000 
     10 C10         1.0450    2.5070   11.2100 C.2       1 PI1201      0.0000 
     11 O11         0.6600    3.4160   11.9450 O.2       1 PI1201      0.0000 
     12 N12         0.8940    2.5410    9.8930 N.am      1 PI1201      0.0000 
     13 N13         4.8490    0.6910   13.5920 N.am      1 PI1201      0.0000 
     14 C14         5.6860   -0.3610   14.1980 C.3       1 PI1201      0.0000 
     15 C15         7.1130    0.1920   14.3260 C.3       1 PI1201      0.0000 
     16 C16         7.4940    0.8960   13.0550 C.ar      1 PI1201      0.0000 
     17 C17         7.4990    2.2910   12.9850 C.ar      1 PI1201      0.0000 
     18 C18         7.6070    2.9550   11.7550 C.ar      1 PI1201      0.0000 
     19 C19         7.6300    0.1790   11.8640 C.ar      1 PI1201      0.0000 
     20 C20         7.7340    0.8310   10.6380 C.ar      1 PI1201      0.0000 
     21 C21         7.7080    2.2200   10.5750 C.ar      1 PI1201      0.0000 
     22 O22         7.6860    2.7860    9.2980 O.3       1 PI1201      0.0000 
     23 C23         7.4460    4.1620    9.0120 C.3       1 PI1201      0.0000 
     24 C24         5.1540   -0.6860   15.5970 C.3       1 PI1201      0.0000 
     25 O25         5.2480    0.4690   16.4450 O.3       1 PI1201      0.0000 
     26 C26         3.6990   -1.0900   15.4870 C.3       1 PI1201      0.0000 
     27 N27         3.5160   -2.5440   15.4480 N.4       1 PI1201      0.0000 
     28 C28         4.2080   -3.3990   16.4120 C.3       1 PI1201      0.0000 
     29 C29         5.5010   -4.0600   15.9380 C.2       1 PI1201      0.0000 
     30 O30         5.8130   -4.1120   14.7460 O.2       1 PI1201      0.0000 
     31 C31         3.1600   -4.4580   16.7160 C.3       1 PI1201      0.0000 
     32 C32         2.5420   -4.6660   15.3720 C.3       1 PI1201      0.0000 
     33 C33         2.3670   -3.2470   14.8510 C.3       1 PI1201      0.0000 
     34 N34         6.2670   -4.5230   16.9150 N.am      1 PI1201      0.0000 
     35 C35         7.5050   -5.2630   16.6770 C.3       1 PI1201      0.0000 
     36 C36         7.3570   -6.4010   17.6690 C.2       1 PI1201      0.0000 
     37 O37         7.3650   -6.1760   18.8800 O.2       1 PI1201      0.0000 
     38 C38         8.7830   -4.4560   17.0160 C.3       1 PI1201      0.0000 
     39 C39         8.9550   -3.2820   16.0500 C.3       1 PI1201      0.0000 
     40 C40        10.0080   -5.3640   16.9340 C.3       1 PI1201      0.0000 
     41 C41         9.1600   -3.6980   14.6320 C.3       1 PI1201      0.0000 
     42 N42         7.0850   -7.5930   17.1520 N.am      1 PI1201      0.0000 
     43 C43         6.9200   -8.7790   18.0020 C.3       1 PI1201      0.0000 
     44 C44         8.0430   -9.7860   17.7430 C.2       1 PI1201      0.0000 
     45 O45         8.3940  -10.0630   16.5900 O.2       1 PI1201      0.0000 
     46 C46         5.5280   -9.4500   17.7970 C.3       1 PI1201      0.0000 
     47 C47         4.4170   -8.4300   18.0070 C.3       1 PI1201      0.0000 
     48 C48         5.4180  -10.0870   16.4130 C.3       1 PI1201      0.0000 
     49 N49         8.6300  -10.3170   18.8160 N.am      1 PI1201      0.0000 
     50 H           6.2205    4.7878   10.6915 H         1 PI1201      0.0000 
     51 H           5.9091    5.6847    9.1953 H         1 PI1201      0.0000 
     52 H           5.2449    2.8662    8.8311 H         1 PI1201      0.0000 
     53 H           4.2209    4.2985    8.6312 H         1 PI1201      0.0000 
     54 H           4.2178    1.3927   10.1515 H         1 PI1201      0.0000 
     55 H           3.3097    2.4415   12.7984 H         1 PI1201      0.0000 
     56 H           1.3339    0.9988   12.7044 H         1 PI1201      0.0000 
     57 H           1.7609    0.4929   11.0608 H         1 PI1201      0.0000 
     58 H           0.3904    3.3240    9.5279 H         1 PI1201      0.0000 
     59 H           1.2974    1.7805    9.3841 H         1 PI1201      0.0000 
     60 H           4.9342    1.6340   14.0342 H         1 PI1201      0.0000 
     61 H           5.7002   -1.2321   13.6076 H         1 PI1201      0.0000 
     62 H           7.7921   -0.6334   14.5140 H         1 PI1201      0.0000 
     63 H           7.1459    0.8845   15.1610 H         1 PI1201      0.0000 
     64 H           7.4219    2.8454   13.8538 H         1 PI1201      0.0000 
     65 H           7.6114    3.9798   11.7273 H         1 PI1201      0.0000 
     66 H           7.6537   -0.8555   11.8953 H         1 PI1201      0.0000 
     67 H           7.8308    0.2800    9.7722 H         1 PI1201      0.0000 
     68 H           8.2418    4.8143    9.4200 H         1 PI1201      0.0000 
     69 H           7.4102    4.3582    7.9232 H         1 PI1201      0.0000 
     70 H           5.7106   -1.5110   15.9900 H         1 PI1201      0.0000 
     71 H           3.2762   -0.6259   14.5771 H         1 PI1201      0.0000 
     72 H           3.1514   -0.6576   16.3444 H         1 PI1201      0.0000 
     73 H           4.3573   -2.7999   14.4488 H         1 PI1201      0.0000 
     74 H           4.3784   -2.8610   17.3300 H         1 PI1201      0.0000 
     75 H           2.4510   -4.0698   17.3971 H         1 PI1201      0.0000 
     76 H           3.6351   -5.3414   17.0494 H         1 PI1201      0.0000 
     77 H           1.5908   -5.1291   15.4651 H         1 PI1201      0.0000 
     78 H           3.2035   -5.1985   14.7342 H         1 PI1201      0.0000 
     79 H           1.4475   -2.8539   15.2099 H         1 PI1201      0.0000 
     80 H           2.4298   -3.2539   13.7904 H         1 PI1201      0.0000 
     81 H           6.0222   -4.3811   17.9273 H         1 PI1201      0.0000 
     82 H           7.5470   -5.6569   15.7124 H         1 PI1201      0.0000 
     83 H           8.6952   -4.0781   18.0164 H         1 PI1201      0.0000 
     84 H           9.8133   -2.6752   16.3903 H         1 PI1201      0.0000 
     85 H           8.0616   -2.6363   16.1256 H         1 PI1201      0.0000 
     86 H           6.9748   -7.7533   16.1319 H         1 PI1201      0.0000 
     87 H           6.9796   -8.4872   19.0565 H         1 PI1201      0.0000 
     88 H           5.4261  -10.2291   18.5468 H         1 PI1201      0.0000 
     89 H           9.3733  -10.9616   18.6372 H         1 PI1201      0.0000 
     90 H           8.2741  -10.0229   19.7030 H         1 PI1201      0.0000 
     91 H          10.8514   -4.8698   17.1448 H         1 PI1201      0.0000 
     92 H           9.9476   -6.1280   17.5763 H         1 PI1201      0.0000 
     93 H          10.1188   -5.7567   16.0210 H         1 PI1201      0.0000 
     94 H           9.2662   -2.9101   14.0254 H         1 PI1201      0.0000 
     95 H           9.9785   -4.2625   14.5252 H         1 PI1201      0.0000 
     96 H           8.3884   -4.2321   14.2864 H         1 PI1201      0.0000 
     97 H           4.4393   -8.0409   18.9279 H         1 PI1201      0.0000 
     98 H           4.4872   -7.6668   17.3646 H         1 PI1201      0.0000 
     99 H           3.5117   -8.8359   17.8821 H         1 PI1201      0.0000 
    100 H           5.5296   -9.4121   15.6836 H         1 PI1201      0.0000 
    101 H           6.1151  -10.7899   16.2712 H         1 PI1201      0.0000 
    102 H           4.5291  -10.5237   16.2747 H         1 PI1201      0.0000 
    103 H           6.1937    0.4750   16.7700 H         1 PI1201      0.0000 
@<TRIPOS>BOND
     1    4    1 1    
     2   23    1 1    
     3   50    1 1    
     4   51    1 1    
     5    3    2 2    
     6    4    2 1    
     7    5    2 am   
     8   52    4 1    
     9   53    4 1    
    10    6    5 1    
    11   54    5 1    
    12    7    6 1    
    13    9    6 1    
    14   55    6 1    
    15    8    7 2    
    16   13    7 am   
    17   10    9 1    
    18   56    9 1    
    19   57    9 1    
    20   11   10 2    
    21   12   10 am   
    22   58   12 1    
    23   59   12 1    
    24   14   13 1    
    25   60   13 1    
    26   15   14 1    
    27   24   14 1    
    28   61   14 1    
    29   16   15 1    
    30   62   15 1    
    31   63   15 1    
    32   17   16 ar   
    33   19   16 ar   
    34   18   17 ar   
    35   64   17 1    
    36   21   18 ar   
    37   65   18 1    
    38   20   19 ar   
    39   66   19 1    
    40   21   20 ar   
    41   67   20 1    
    42   22   21 1    
    43   23   22 1    
    44   68   23 1    
    45   69   23 1    
    46   25   24 1    
    47   26   24 1    
    48   70   24 1    
    49  103   25 1    
    50   27   26 1    
    51   71   26 1    
    52   72   26 1    
    53   28   27 1    
    54   33   27 1    
    55   73   27 1    
    56   29   28 1    
    57   31   28 1    
    58   74   28 1    
    59   30   29 2    
    60   34   29 am   
    61   32   31 1    
    62   75   31 1    
    63   76   31 1    
    64   33   32 1    
    65   77   32 1    
    66   78   32 1    
    67   79   33 1    
    68   80   33 1    
    69   35   34 1    
    70   81   34 1    
    71   36   35 1    
    72   38   35 1    
    73   82   35 1    
    74   37   36 2    
    75   42   36 am   
    76   39   38 1    
    77   40   38 1    
    78   83   38 1    
    79   41   39 1    
    80   84   39 1    
    81   85   39 1    
    82   91   40 1    
    83   92   40 1    
    84   93   40 1    
    85   94   41 1    
    86   95   41 1    
    87   96   41 1    
    88   43   42 1    
    89   86   42 1    
    90   44   43 1    
    91   46   43 1    
    92   87   43 1    
    93   45   44 2    
    94   49   44 am   
    95   47   46 1    
    96   48   46 1    
    97   88   46 1    
    98   97   47 1    
    99   98   47 1    
   100   99   47 1    
   101  100   48 1    
   102  101   48 1    
   103  102   48 1    
   104   89   49 1    
   105   90   49 1    
@<TRIPOS>SUBSTRUCTURE
     1 PI1201      1 GROUP   
@<TRIPOS>SET

