#    Name: 2BU5_1_CAVITY_N1_ALL.mol2
#    Modification time : Tue Mar 11 04:52:27 2014

@<TRIPOS>MOLECULE
2BU5_1_CAVITY_N1_ALL.mol2
   70     0     5     0     0
SMALL
NO_CHARGES


@<TRIPOS>ATOM
      1 CA         58.9396   62.2412   81.1492 C.3       4 GLY6        0.0000 
      2 N          59.3343   62.4225   79.7135 N.2       2 ALA2        0.0000 
      3 DU         58.1443   63.3101   79.4984 H         5 CUB7        0.0000 
      4 CZ         58.5390   63.4913   78.0626 C.ar      3 PHE5        0.0000 
      5 CZ         57.3491   64.3789   77.8475 C.ar      3 PHE5        0.0000 
      6 DU         56.1591   65.2664   77.6325 H         5 CUB7        0.0000 
      7 CZ         57.7438   64.5601   76.4118 C.ar      3 PHE5        0.0000 
      8 CA         56.9485   65.6289   74.7610 C.3       4 GLY6        0.0000 
      9 CZ         56.9261   61.9332   80.5568 C.ar      3 PHE5        0.0000 
     10 CZ         55.7361   62.8207   80.3417 C.ar      3 PHE5        0.0000 
     11 CA         59.7007   60.3394   79.5512 C.3       4 GLY6        0.0000 
     12 CA         58.5107   61.2269   79.3361 C.3       4 GLY6        0.0000 
     13 DU         57.3208   62.1145   79.1210 H         5 CUB7        0.0000 
     14 DU         56.1308   63.0020   78.9059 H         5 CUB7        0.0000 
     15 O          54.9409   63.8895   78.6908 O.2       2 ALA2        0.0000 
     16 CZ         60.0954   60.5207   78.1155 C.ar      3 PHE5        0.0000 
     17 CZ         58.9055   61.4082   77.9004 C.ar      3 PHE5        0.0000 
     18 CZ         57.7155   62.2957   77.6853 C.ar      3 PHE5        0.0000 
     19 DU         56.5255   63.1833   77.4702 H         5 CUB7        0.0000 
     20 CA         55.3356   64.0708   77.2551 C.3       4 GLY6        0.0000 
     21 O          54.1456   64.9584   77.0400 O.2       2 ALA2        0.0000 
     22 CZ         56.9202   63.3645   76.0345 C.ar      3 PHE5        0.0000 
     23 N          55.7303   64.2521   75.8194 N.2       2 ALA2        0.0000 
     24 CA         54.5403   65.1396   75.6043 C.3       4 GLY6        0.0000 
     25 CZ         56.1025   60.7376   80.1794 C.ar      3 PHE5        0.0000 
     26 CA         54.9126   61.6252   79.9643 C.3       4 GLY6        0.0000 
     27 CA         53.7226   62.5127   79.7492 C.3       4 GLY6        0.0000 
     28 CZ         58.8772   59.1438   79.1738 C.ar      3 PHE5        0.0000 
     29 CZ         57.6872   60.0314   78.9588 C.ar      3 PHE5        0.0000 
     30 CZ         56.4973   60.9189   78.7437 C.ar      3 PHE5        0.0000 
     31 CA         55.3073   61.8064   78.5286 C.3       4 GLY6        0.0000 
     32 CA         54.1173   62.6940   78.3135 C.3       4 GLY6        0.0000 
     33 OG         59.2719   59.3251   77.7381 O.2       1 SER1        0.0000 
     34 CZ         58.0819   60.2126   77.5230 C.ar      3 PHE5        0.0000 
     35 DU         56.8920   61.1002   77.3079 H         5 CUB7        0.0000 
     36 N          55.7020   61.9877   77.0928 N.2       2 ALA2        0.0000 
     37 CA         54.5120   62.8752   76.8777 C.3       4 GLY6        0.0000 
     38 CZ         59.6666   59.5064   76.3024 C.ar      3 PHE5        0.0000 
     39 CZ         58.4767   60.3939   76.0873 C.ar      3 PHE5        0.0000 
     40 CZ         57.2867   61.2814   75.8722 C.ar      3 PHE5        0.0000 
     41 N          56.0967   62.1690   75.6571 N.2       2 ALA2        0.0000 
     42 CZ         57.6814   61.4627   74.4365 C.ar      3 PHE5        0.0000 
     43 CZ         58.0537   57.9482   78.7965 C.ar      3 PHE5        0.0000 
     44 CZ         56.8637   58.8358   78.5814 C.ar      3 PHE5        0.0000 
     45 CA         55.6737   59.7233   78.3663 C.3       4 GLY6        0.0000 
     46 OG         58.4484   58.1295   77.3608 O.2       1 SER1        0.0000 
     47 DU         57.2584   59.0170   77.1457 H         5 CUB7        0.0000 
     48 CA         56.0685   59.9046   76.9306 C.3       4 GLY6        0.0000 
     49 CA         54.8785   60.7921   76.7155 C.3       4 GLY6        0.0000 
     50 CA         53.6885   61.6797   76.5004 C.3       4 GLY6        0.0000 
     51 OG         60.0331   57.4232   76.1401 O.2       1 SER1        0.0000 
     52 CZ         58.8431   58.3108   75.9250 C.ar      3 PHE5        0.0000 
     53 CZ         57.6531   59.1983   75.7099 C.ar      3 PHE5        0.0000 
     54 CZ         56.4632   60.0858   75.4948 C.ar      3 PHE5        0.0000 
     55 N          55.2732   60.9734   75.2797 N.2       2 ALA2        0.0000 
     56 CZ         60.4278   57.6045   74.7044 C.ar      3 PHE5        0.0000 
     57 CZ         59.2378   58.4920   74.4893 C.ar      3 PHE5        0.0000 
     58 CZ         58.0478   59.3796   74.2742 C.ar      3 PHE5        0.0000 
     59 CA         56.8579   60.2671   74.0591 C.3       4 GLY6        0.0000 
     60 CA         57.2301   56.7526   78.4191 C.3       4 GLY6        0.0000 
     61 CA         56.0402   57.6402   78.2041 C.3       4 GLY6        0.0000 
     62 CA         58.8148   56.0464   77.1985 C.3       4 GLY6        0.0000 
     63 DU         57.6249   56.9339   76.9834 H         5 CUB7        0.0000 
     64 CZ         56.4349   57.8215   76.7683 C.ar      3 PHE5        0.0000 
     65 CA         55.2449   58.7090   76.5532 C.3       4 GLY6        0.0000 
     66 O          59.2095   56.2276   75.7628 O.2       2 ALA2        0.0000 
     67 CA         58.0196   57.1152   75.5477 C.3       4 GLY6        0.0000 
     68 CZ         56.8296   58.0027   75.3326 C.ar      3 PHE5        0.0000 
     69 CA         58.4143   57.2965   74.1119 C.3       4 GLY6        0.0000 
     70 CZ         57.2243   58.1840   73.8968 C.ar      3 PHE5        0.0000 
@<TRIPOS>BOND
@<TRIPOS>SUBSTRUCTURE
     1 SER1       33 GROUP   
     2 ALA2        2 GROUP   
     3 PHE5        4 GROUP   
     4 GLY6        1 GROUP   
     5 CUB7        3 GROUP   
@<TRIPOS>SET

