#    Name: 2bu5_TF1_1_INTS_M
#    Modification time : Mon Mar 24 21:41:50 2014

@<TRIPOS>MOLECULE
2bu5_TF1_1_INTS_M
   62     0     6     0     0
SMALL
NO_CHARGES


@<TRIPOS>ATOM
      1 CA         58.0505   62.2345   75.1345 C.3       2 GLC5        0.0000 
      2 CA         56.3930   61.3420   76.1390 C.3       6 GLL5        0.0000 
      3 CA         59.7080   63.1270   74.1300 C.3       4 GLP5        0.0000 
      4 CA         55.0285   59.1940   78.2205 C.3       2 GLC5        0.0000 
      5 CA         56.9480   60.1200   78.3280 C.3       6 GLL5        0.0000 
      6 CA         53.1090   58.2680   78.1130 C.3       4 GLP5        0.0000 
      7 CA         58.4430   63.0640   76.1245 C.3       2 GLC5        0.0000 
      8 CA         56.8310   62.6470   76.8420 C.3       6 GLL5        0.0000 
      9 CA         60.0550   63.4810   75.4070 C.3       4 GLP5        0.0000 
     10 CA         53.9840   59.6930   77.1210 C.3       2 GLC5        0.0000 
     11 CA         54.8590   61.1180   76.1290 C.3       6 GLL5        0.0000 
     12 CA         53.6530   62.3360   75.5035 C.3       2 GLC5        0.0000 
     13 CA         52.4470   63.5540   74.8780 C.3       4 GLP5        0.0000 
     14 CA         54.5495   59.5515   74.8670 C.3       2 GLC5        0.0000 
     15 CA         54.2400   57.9850   73.6050 C.3       4 GLP5        0.0000 
     16 CA         58.4380   56.0225   74.2600 C.3       2 GLC5        0.0000 
     17 CA         59.1690   57.4210   75.2140 C.3       6 GLL5        0.0000 
     18 CA         57.7070   54.6240   73.3060 C.3       4 GLP5        0.0000 
     19 CA         60.5135   55.6775   75.0310 C.3       2 GLC5        0.0000 
     20 CA         61.8580   53.9340   74.8480 C.3       4 GLP5        0.0000 
     21 CA         59.8520   57.5425   73.1070 C.3       2 GLC5        0.0000 
     22 CA         60.5350   57.6640   71.0000 C.3       4 GLP5        0.0000 
     23 N          60.6095   57.9415   77.8995 N.am      1 SEC2        0.0000 
     24 N          59.3740   58.2940   77.3420 N.am      5 SEL2        0.0000 
     25 N          61.8450   57.5890   78.4570 N.am      3 SEP2        0.0000 
     26 CA         59.8045   62.1820   77.6435 C.3       2 GLC5        0.0000 
     27 CA         58.8030   61.7500   79.1120 C.3       6 GLL5        0.0000 
     28 CA         60.8060   62.6140   76.1750 C.3       4 GLP5        0.0000 
     29 CA         60.4080   63.0870   79.3225 C.3       2 GLC5        0.0000 
     30 CA         62.0130   64.4240   79.5330 C.3       4 GLP5        0.0000 
     31 CA         60.5930   60.6845   79.3845 C.3       2 GLC5        0.0000 
     32 CA         62.3830   59.6190   79.6570 C.3       4 GLP5        0.0000 
     33 CA         58.9940   60.9025   80.8065 C.3       2 GLC5        0.0000 
     34 CA         59.1850   60.0550   82.5010 C.3       4 GLP5        0.0000 
     35 CA         57.0625   54.2855   77.2015 C.3       2 GLC5        0.0000 
     36 CA         58.1330   55.8150   77.4430 C.3       6 GLL5        0.0000 
     37 CA         55.9920   52.7560   76.9600 C.3       4 GLP5        0.0000 
     38 CA         54.8500   57.7485   78.0065 C.3       2 GLC5        0.0000 
     39 CA         56.5910   57.2290   77.9000 C.3       6 GLL5        0.0000 
     40 CA         56.3260   57.7585   79.5680 C.3       2 GLC5        0.0000 
     41 CA         56.0610   58.2880   81.2360 C.3       4 GLP5        0.0000 
     42 CA         54.8890   61.6115   83.7085 C.3       2 GLC5        0.0000 
     43 CA         54.3570   63.3930   84.4720 C.3       6 GLL5        0.0000 
     44 CA         55.4210   59.8300   82.9450 C.3       4 GLP5        0.0000 
     45 CA         57.2485   59.7347   80.0318 C.3       2 GLC5        0.0000 
     46 CA         57.2820   61.4430   79.0410 C.3       6 GLL5        0.0000 
     47 CA         57.3820   58.6880   81.3790 C.3       4 GLP5        0.0000 
     48 CA         59.8230   59.3805   75.1047 C.3       2 GLC5        0.0000 
     49 CA         58.4190   57.9970   76.4570 C.3       6 GLL5        0.0000 
     50 CA         60.8520   61.0520   74.3740 C.3       4 GLP5        0.0000 
     51 CA         57.6586   55.4145   75.1312 C.3       2 GLC5        0.0000 
     52 CA         56.7270   56.3510   75.9690 C.3       6 GLL5        0.0000 
     53 CA         55.3831   57.0130   75.9145 C.3       2 GLC5        0.0000 
     54 CA         57.4480   56.8390   76.9710 C.3       6 GLL5        0.0000 
     55 CA         53.9270   57.1140   74.6440 C.3       4 GLP5        0.0000 
     56 CA         57.8049   55.8960   79.1178 C.3       2 GLC5        0.0000 
     57 CA         58.4190   55.0140   80.6820 C.3       4 GLP5        0.0000 
     58 CA         55.5011   55.8285   77.5480 C.3       2 GLC5        0.0000 
     59 CA         54.1630   54.7450   77.9110 C.3       4 GLP5        0.0000 
     60 CA         53.2924   61.6931   80.2971 C.3       2 GLC5        0.0000 
     61 CA         54.1010   62.9060   80.7450 C.3       6 GLL5        0.0000 
     62 CA         52.3360   60.3530   79.2570 C.3       4 GLP5        0.0000 
@<TRIPOS>BOND
@<TRIPOS>SUBSTRUCTURE
     1 SEC2       23 GROUP        1 X    SEC  0     ROOT SEC X 2
     2 GLC5        1 GROUP        1 X    GLC  0     **** GLC X 6
     3 SEP2       25 GROUP        1 Y    SEP  0     ROOT SEP Y 9
     4 GLP5        3 GROUP        1 Y    GLP  0     **** GLP Y 13
     5 SEL2       24 GROUP        1 Z    SEL  0     ROOT SEL Z 16
     6 GLL5        2 GROUP        1 Z    GLL  0     **** GLL Z 20
@<TRIPOS>SET

