#    Name: 2bu5_TF1_1_ligand
#    Modification time : Mon Mar 24 21:41:50 2014

@<TRIPOS>MOLECULE
2bu5_TF1_1_ligand
   47    48     1     0     0
SMALL
NO_CHARGES


@<TRIPOS>ATOM
      1 N1         57.0590   60.1930   76.8260 N.am      1 TF11386     0.0000 
      2 C1         57.6740   59.2960   75.9190 C.2       1 TF11386     0.0000 
      3 C2         56.3930   61.3420   76.1390 C.3       1 TF11386     0.0000 
      4 C3         56.9480   60.1200   78.3280 C.3       1 TF11386     0.0000 
      5 C4         58.4190   57.9970   76.4570 C.3       1 TF11386     0.0000 
      6 O1         57.6330   59.5100   74.7010 O.2       1 TF11386     0.0000 
      7 C5         56.8310   62.6470   76.8420 C.3       1 TF11386     0.0000 
      8 C6         54.8590   61.1180   76.1290 C.3       1 TF11386     0.0000 
      9 C7         57.2820   61.4430   79.0410 C.3       1 TF11386     0.0000 
     10 C8         57.4480   56.8390   76.9710 C.3       1 TF11386     0.0000 
     11 C9         59.1690   57.4210   75.2140 C.3       1 TF11386     0.0000 
     12 O2         59.3740   58.2940   77.3420 O.3       1 TF11386     0.0000 
     13 N2         56.5630   62.5260   78.3040 N.am      1 TF11386     0.0000 
     14 C10        58.8030   61.7500   79.1120 C.3       1 TF11386     0.0000 
     15 F1         56.7270   56.3510   75.9690 F         1 TF11386     0.0000 
     16 F2         58.1330   55.8150   77.4430 F         1 TF11386     0.0000 
     17 F3         56.5910   57.2290   77.9000 F         1 TF11386     0.0000 
     18 C11        55.6790   63.4330   78.8960 C.2       1 TF11386     0.0000 
     19 C12        55.3720   63.3970   80.3360 C.ar      1 TF11386     0.0000 
     20 O3         55.1450   64.2860   78.1960 O.2       1 TF11386     0.0000 
     21 C13        56.3360   63.8990   81.2960 C.ar      1 TF11386     0.0000 
     22 C14        54.1010   62.9060   80.7450 C.ar      1 TF11386     0.0000 
     23 C15        55.9980   63.9090   82.6870 C.ar      1 TF11386     0.0000 
     24 C16        53.7610   62.9150   82.1340 C.ar      1 TF11386     0.0000 
     25 C17        54.7090   63.4140   83.0880 C.ar      1 TF11386     0.0000 
     26 C18        54.3570   63.3930   84.4720 C.1       1 TF11386     0.0000 
     27 N3         54.0620   63.3670   85.5920 N.1       1 TF11386     0.0000 
     28 H          56.7403   61.3772   75.1120 H         1 TF11386     0.0000 
     29 H          57.6252   59.3388   78.7113 H         1 TF11386     0.0000 
     30 H          55.9239   59.8234   78.6091 H         1 TF11386     0.0000 
     31 H          56.2678   63.4699   76.4179 H         1 TF11386     0.0000 
     32 H          57.8887   62.7958   76.6593 H         1 TF11386     0.0000 
     33 H          56.8902   61.3915   80.0485 H         1 TF11386     0.0000 
     34 H          57.2302   64.2347   80.9796 H         1 TF11386     0.0000 
     35 H          53.4424   62.5535   80.0631 H         1 TF11386     0.0000 
     36 H          56.6465   64.2544   83.3716 H         1 TF11386     0.0000 
     37 H          52.8619   62.5735   82.4426 H         1 TF11386     0.0000 
     38 H          54.6093   60.2791   75.6453 H         1 TF11386     0.0000 
     39 H          54.4885   61.0439   77.0549 H         1 TF11386     0.0000 
     40 H          54.3768   61.8700   75.6796 H         1 TF11386     0.0000 
     41 H          59.8272   58.0752   74.8413 H         1 TF11386     0.0000 
     42 H          59.6773   56.5898   75.4392 H         1 TF11386     0.0000 
     43 H          58.5375   57.1871   74.4747 H         1 TF11386     0.0000 
     44 H          59.3031   61.0376   79.6043 H         1 TF11386     0.0000 
     45 H          59.2109   61.8186   78.2016 H         1 TF11386     0.0000 
     46 H          58.9860   62.6140   79.5810 H         1 TF11386     0.0000 
     47 H          59.7396   59.1752   77.0421 H         1 TF11386     0.0000 
@<TRIPOS>BOND
     1    2    1 am   
     2    3    1 1    
     3    4    1 1    
     4    5    2 1    
     5    6    2 2    
     6    7    3 1    
     7    8    3 1    
     8   28    3 1    
     9    9    4 1    
    10   29    4 1    
    11   30    4 1    
    12   10    5 1    
    13   11    5 1    
    14   12    5 1    
    15   13    7 1    
    16   31    7 1    
    17   32    7 1    
    18   38    8 1    
    19   39    8 1    
    20   40    8 1    
    21   13    9 1    
    22   14    9 1    
    23   33    9 1    
    24   15   10 1    
    25   16   10 1    
    26   17   10 1    
    27   41   11 1    
    28   42   11 1    
    29   43   11 1    
    30   47   12 1    
    31   18   13 am   
    32   44   14 1    
    33   45   14 1    
    34   46   14 1    
    35   19   18 1    
    36   20   18 2    
    37   21   19 ar   
    38   22   19 ar   
    39   23   21 ar   
    40   34   21 1    
    41   24   22 ar   
    42   35   22 1    
    43   25   23 ar   
    44   36   23 1    
    45   25   24 ar   
    46   37   24 1    
    47   26   25 1    
    48   27   26 3    
@<TRIPOS>SUBSTRUCTURE
     1 TF11386     1 GROUP   
@<TRIPOS>SET

