#    Name: 1n5v_NOM_1_INTS_M
#    Modification time : Tue Mar 25 12:25:57 2014

@<TRIPOS>MOLECULE
1n5v_NOM_1_INTS_M
   44     0     6     0     0
SMALL
NO_CHARGES


@<TRIPOS>ATOM
      1 CA         48.2805   37.7310   14.1375 C.3       2 GLC5        0.0000 
      2 CA         46.3570   38.3020   13.4680 C.3       6 GLL5        0.0000 
      3 CA         50.2040   37.1600   14.8070 C.3       4 GLP5        0.0000 
      4 CA         47.8220   36.5410   14.6265 C.3       2 GLC5        0.0000 
      5 CA         46.0410   36.9580   13.7450 C.3       6 GLL5        0.0000 
      6 CA         49.6030   36.1240   15.5080 C.3       4 GLP5        0.0000 
      7 N          46.4920   34.1115   14.3720 N.am      1 SEC2        0.0000 
      8 N          46.4770   34.7990   13.2400 N.am      5 SEL2        0.0000 
      9 N          46.5070   33.4240   15.5040 N.am      3 SEP2        0.0000 
     10 N          49.1260   32.9685   11.2395 N.am      1 SEC2        0.0000 
     11 N          48.1710   34.0330   11.4860 N.am      5 SEL2        0.0000 
     12 N          50.0810   31.9040   10.9930 N.am      3 SEP2        0.0000 
     13 CA         42.4790   39.9580   14.5310 C.3       2 GLC5        0.0000 
     14 CA         44.4160   38.9260   14.8700 C.3       6 GLL5        0.0000 
     15 CA         40.5420   40.9900   14.1920 C.3       4 GLP5        0.0000 
     16 CA         45.8490   33.8180   15.1095 C.3       2 GLC5        0.0000 
     17 CA         44.3780   35.3300   14.7740 C.3       6 GLL5        0.0000 
     18 CA         47.3200   32.3060   15.4450 C.3       4 GLP5        0.0000 
     19 CA         42.5130   35.0365   14.6160 C.3       2 GLC5        0.0000 
     20 CA         40.6480   34.7430   14.4580 C.3       4 GLP5        0.0000 
     21 CA         43.9425   33.4210   14.9630 C.3       2 GLC5        0.0000 
     22 CA         43.5070   31.5120   15.1520 C.3       4 GLP5        0.0000 
     23 CA         44.7265   41.5225   17.0275 C.3       2 GLC5        0.0000 
     24 CA         43.9940   40.0720   15.7630 C.3       6 GLL5        0.0000 
     25 CA         45.4590   42.9730   18.2920 C.3       4 GLP5        0.0000 
     26 CA         42.5920   41.1815   15.1635 C.3       2 GLC5        0.0000 
     27 CA         41.1900   42.2910   14.5640 C.3       4 GLP5        0.0000 
     28 CA         51.4575   36.5455   10.8535 C.3       2 GLC5        0.0000 
     29 CA         49.6880   37.0690   10.1100 C.3       6 GLL5        0.0000 
     30 CA         53.3600   36.6910   11.4710 C.3       4 GLP5        0.0000 
     31 CA         49.7295   36.6860    8.3700 C.3       2 GLC5        0.0000 
     32 CA         49.9040   36.9720    6.5040 C.3       4 GLP5        0.0000 
     33 CA         49.4975   39.5142   12.1080 C.3       2 GLC5        0.0000 
     34 CA         49.0170   38.0490   10.8210 C.3       6 GLL5        0.0000 
     35 CA         50.4560   41.1690   12.9270 C.3       4 GLP5        0.0000 
     36 CA         48.2245   34.8377    9.4802 C.3       2 GLC5        0.0000 
     37 CA         47.4450   33.7920    8.1960 C.3       4 GLP5        0.0000 
     38 CA         44.7325   36.9940   12.4943 C.3       2 GLC5        0.0000 
     39 CA         43.2660   36.3580   11.3820 C.3       4 GLP5        0.0000 
     40 CA         43.6095   38.8320   13.1173 C.3       2 GLC5        0.0000 
     41 CA         45.7180   39.3420   14.1430 C.3       6 GLL5        0.0000 
     42 CA         42.1520   38.5300   11.7280 C.3       4 GLP5        0.0000 
     43 CA         43.9967   36.1770   13.0567 C.3       2 GLC5        0.0000 
     44 CA         45.0770   36.6620   14.6890 C.3       6 GLL5        0.0000 
@<TRIPOS>BOND
@<TRIPOS>SUBSTRUCTURE
     1 SEC2        7 GROUP        1 X    SEC  0     ROOT SEC X 2
     2 GLC5        1 GROUP        1 X    GLC  0     **** GLC X 6
     3 SEP2        9 GROUP        1 Y    SEP  0     ROOT SEP Y 9
     4 GLP5        3 GROUP        1 Y    GLP  0     **** GLP Y 13
     5 SEL2        8 GROUP        1 Z    SEL  0     ROOT SEL Z 16
     6 GLL5        2 GROUP        1 Z    GLL  0     **** GLL Z 20
@<TRIPOS>SET

