#    Name: 1n5v_NOM_1_ligand
#    Modification time : Tue Mar 25 12:25:57 2014

@<TRIPOS>MOLECULE
1n5v_NOM_1_ligand
   34    37     1     0     0
SMALL
NO_CHARGES


@<TRIPOS>ATOM
      1 C1         49.6880   37.0690   10.1100 C.ar      1 NOM1001     0.0000 
      2 C2         49.0170   38.0490   10.8210 C.ar      1 NOM1001     0.0000 
      3 C3         48.0610   37.6700   11.7570 C.ar      1 NOM1001     0.0000 
      4 C4         47.7520   36.3280   12.0200 C.ar      1 NOM1001     0.0000 
      5 C5         48.4530   35.3670   11.2930 C.ar      1 NOM1001     0.0000 
      6 C6         49.4220   35.7310   10.3620 C.ar      1 NOM1001     0.0000 
      7 C10        47.3470   38.6640   12.4970 C.2       1 NOM1001     0.0000 
      8 C9         46.3570   38.3020   13.4680 C.2       1 NOM1001     0.0000 
      9 C8         46.0410   36.9580   13.7450 C.2       1 NOM1001     0.0000 
     10 C7         46.7650   35.9580   12.9960 C.2       1 NOM1001     0.0000 
     11 O3         46.4770   34.7990   13.2400 O.2       1 NOM1001     0.0000 
     12 O4         47.5440   39.8660   12.3370 O.2       1 NOM1001     0.0000 
     13 O2         48.1710   34.0330   11.4860 O.3       1 NOM1001     0.0000 
     14 C13        45.7180   39.3420   14.1430 C.3       1 NOM1001     0.0000 
     15 C14        44.4160   38.9260   14.8700 C.3       1 NOM1001     0.0000 
     16 O1         44.3740   37.6510   15.4220 O.3       1 NOM1001     0.0000 
     17 C11        45.0770   36.6620   14.6890 C.3       1 NOM1001     0.0000 
     18 C12        44.3780   35.3300   14.7740 C.3       1 NOM1001     0.0000 
     19 C15        43.9940   40.0720   15.7630 C.3       1 NOM1001     0.0000 
     20 C16        44.7690   41.2710   15.1510 C.2       1 NOM1001     0.0000 
     21 O5         44.4930   42.4080   15.5620 O.2       1 NOM1001     0.0000 
     22 O6         45.6300   41.0340   14.2920 O.3       1 NOM1001     0.0000 
     23 H          50.3815   37.3305    9.3972 H         1 NOM1001     0.0000 
     24 H          49.2195   39.0390   10.6622 H         1 NOM1001     0.0000 
     25 H          49.9449   34.9987    9.8570 H         1 NOM1001     0.0000 
     26 H          46.3747   39.2522   15.3581 H         1 NOM1001     0.0000 
     27 H          43.6292   38.9759   14.0012 H         1 NOM1001     0.0000 
     28 H          45.9195   36.3628   15.7078 H         1 NOM1001     0.0000 
     29 H          44.3272   39.9162   16.7502 H         1 NOM1001     0.0000 
     30 H          42.9596   40.2509   15.6743 H         1 NOM1001     0.0000 
     31 H          45.0224   34.5819   14.9324 H         1 NOM1001     0.0000 
     32 H          43.7127   35.3067   15.5202 H         1 NOM1001     0.0000 
     33 H          43.8821   35.1164   13.9323 H         1 NOM1001     0.0000 
     34 H          47.4677   34.0175   12.1968 H         1 NOM1001     0.0000 
@<TRIPOS>BOND
     1    2    1 ar   
     2    6    1 ar   
     3   23    1 1    
     4    3    2 ar   
     5   24    2 1    
     6    4    3 ar   
     7    7    3 1    
     8    5    4 ar   
     9   10    4 1    
    10    6    5 ar   
    11   13    5 1    
    12   25    6 1    
    13    8    7 1    
    14   12    7 2    
    15    9    8 2    
    16   14    8 1    
    17   10    9 1    
    18   17    9 1    
    19   11   10 2    
    20   34   13 1    
    21   15   14 1    
    22   22   14 1    
    23   26   14 1    
    24   16   15 1    
    25   19   15 1    
    26   27   15 1    
    27   17   16 1    
    28   18   17 1    
    29   28   17 1    
    30   31   18 1    
    31   32   18 1    
    32   33   18 1    
    33   20   19 1    
    34   29   19 1    
    35   30   19 1    
    36   21   20 2    
    37   22   20 1    
@<TRIPOS>SUBSTRUCTURE
     1 NOM1001     1 GROUP   
@<TRIPOS>SET

