#    Name: 4mlh_VO2_1_INTS_M
#    Modification time : Tue Mar 25 12:15:29 2014

@<TRIPOS>MOLECULE
4mlh_VO2_1_INTS_M
   68     0     9     0     0
SMALL
NO_CHARGES


@<TRIPOS>ATOM
      1 N          37.8230   15.0475   58.2415 N.am      2 SEC2        0.0000 
      2 N          37.7590   16.3050   59.1220 N.am      8 SEL2        0.0000 
      3 N          37.8870   13.7900   57.3610 N.am      5 SEP2        0.0000 
      4 CA         33.9965   17.0720   59.4280 C.3       3 GLC5        0.0000 
      5 CA         35.9180   17.3700   59.9550 C.3       9 GLL5        0.0000 
      6 CA         32.0750   16.7740   58.9010 C.3       6 GLP5        0.0000 
      7 CA         37.4090   18.8275   60.6440 C.3       3 GLC5        0.0000 
      8 CA         38.9000   20.2850   61.3330 C.3       6 GLP5        0.0000 
      9 CA         36.7925   14.8555   60.9565 C.3       3 GLC5        0.0000 
     10 CA         36.7960   16.8700   61.4730 C.3       9 GLL5        0.0000 
     11 CA         36.7890   12.8410   60.4400 C.3       6 GLP5        0.0000 
     12 CA         37.5075   18.5245   62.0800 C.3       3 GLC5        0.0000 
     13 CA         38.2190   20.1790   62.6870 C.3       6 GLP5        0.0000 
     14 CA         36.6565   16.4875   55.6330 C.3       3 GLC5        0.0000 
     15 CA         36.0780   17.2790   57.4120 C.3       9 GLL5        0.0000 
     16 CA         37.2350   15.6960   53.8540 C.3       6 GLP5        0.0000 
     17 O          39.8485   14.8235   59.4720 O.2       1 ALC1        0.0000 
     18 O          39.1220   15.5190   60.8480 O.2       7 ALL1        0.0000 
     19 O          40.5750   14.1280   58.0960 O.2       4 ALP1        0.0000 
     20 CA         38.0965   14.1035   61.3015 C.3       3 GLC5        0.0000 
     21 CA         39.4040   15.3660   62.1630 C.3       9 GLL5        0.0000 
     22 CA         40.6825   16.7195   61.3760 C.3       3 GLC5        0.0000 
     23 CA         41.9610   18.0730   60.5890 C.3       6 GLP5        0.0000 
     24 CA         38.0645   15.9225   66.4970 C.3       3 GLC5        0.0000 
     25 CA         38.8240   15.7430   64.4240 C.3       9 GLL5        0.0000 
     26 CA         37.3050   16.1020   68.5700 C.3       6 GLP5        0.0000 
     27 CA         36.9190   16.3780   64.6455 C.3       3 GLC5        0.0000 
     28 CA         35.0140   17.0130   64.8670 C.3       6 GLP5        0.0000 
     29 CA         39.0360   17.8475   64.1035 C.3       3 GLC5        0.0000 
     30 CA         39.2480   19.9520   63.7830 C.3       6 GLP5        0.0000 
     31 CA         43.0640   14.9615   61.0510 C.3       3 GLC5        0.0000 
     32 CA         42.6240   13.5880   62.0760 C.3       9 GLL5        0.0000 
     33 CA         43.5040   16.3350   60.0260 C.3       6 GLP5        0.0000 
     34 CA         43.8100   12.3080   63.0080 C.3       3 GLC5        0.0000 
     35 CA         44.9960   11.0280   63.9400 C.3       6 GLP5        0.0000 
     36 CA         43.0085   11.9930   58.8900 C.3       3 GLC5        0.0000 
     37 CA         43.4440   11.4660   60.9430 C.3       9 GLL5        0.0000 
     38 CA         42.5730   12.5200   56.8370 C.3       6 GLP5        0.0000 
     39 CA         42.0095   10.7545   64.5570 C.3       3 GLC5        0.0000 
     40 CA         41.5660   11.3140   62.4750 C.3       9 GLL5        0.0000 
     41 CA         42.4530   10.1950   66.6390 C.3       6 GLP5        0.0000 
     42 CA         38.9270   14.0190   66.6210 C.3       3 GLC5        0.0000 
     43 CA         40.2800   14.9410   66.3570 C.3       9 GLL5        0.0000 
     44 CA         37.5740   13.0970   66.8850 C.3       6 GLP5        0.0000 
     45 CA         38.7925   15.5215   67.4635 C.3       3 GLC5        0.0000 
     46 CA         34.3778   16.2683   58.2725 C.3       3 GLC5        0.0000 
     47 CA         36.5370   17.0120   58.8200 C.3       9 GLL5        0.0000 
     48 CA         32.4480   15.3910   58.4290 C.3       6 GLP5        0.0000 
     49 CA         34.9430   16.5780   61.8775 C.3       3 GLC5        0.0000 
     50 CA         33.5290   16.0360   63.0410 C.3       6 GLP5        0.0000 
     51 CA         35.9139   15.2785   58.3259 C.3       3 GLC5        0.0000 
     52 CA         35.6750   13.3220   58.2520 C.3       6 GLP5        0.0000 
     53 CA         41.8927   15.9400   62.1827 C.3       3 GLC5        0.0000 
     54 CA         40.8630   14.5580   63.9060 C.3       9 GLL5        0.0000 
     55 CA         43.0710   17.2490   61.1380 C.3       6 GLP5        0.0000 
     56 CA         41.6373   10.8133   60.1433 C.3       3 GLC5        0.0000 
     57 CA         42.5450   12.0790   61.8260 C.3       9 GLL5        0.0000 
     58 CA         40.2800    9.8540   58.9020 C.3       6 GLP5        0.0000 
     59 CA         41.5787    9.7797   59.9703 C.3       3 GLC5        0.0000 
     60 CA         43.3670   10.0870   60.7130 C.3       9 GLL5        0.0000 
     61 CA         39.9860   11.2960   63.2770 C.3       3 GLC5        0.0000 
     62 CA         41.4880    9.9380   62.2450 C.3       9 GLL5        0.0000 
     63 CA         38.4450   11.9660   64.1940 C.3       6 GLP5        0.0000 
     64 CA         40.9035   10.2400   60.6310 C.3       3 GLC5        0.0000 
     65 CA         40.0855    9.3838   62.1229 C.3       3 GLC5        0.0000 
     66 CA         42.3880    9.3240   61.3640 C.3       9 GLL5        0.0000 
     67 CA         38.4190    8.2950   62.1060 C.3       6 GLP5        0.0000 
     68 CA         39.1792   13.5355   64.0399 C.3       3 GLC5        0.0000 
@<TRIPOS>BOND
@<TRIPOS>SUBSTRUCTURE
     1 ALC1       17 GROUP        1 X    ALC  0     ROOT ALC X 1
     2 SEC2        1 GROUP        1 X    SEC  0     **** SEC X 2
     3 GLC5        4 GROUP        1 X    GLC  0     **** GLC X 6
     4 ALP1       19 GROUP        1 Y    ALP  0     ROOT ALP Y 8
     5 SEP2        3 GROUP        1 Y    SEP  0     **** SEP Y 9
     6 GLP5        6 GROUP        1 Y    GLP  0     **** GLP Y 13
     7 ALL1       18 GROUP        1 Z    ALL  0     ROOT ALL Z 15
     8 SEL2        2 GROUP        1 Z    SEL  0     **** SEL Z 16
     9 GLL5        5 GROUP        1 Z    GLL  0     **** GLL Z 20
@<TRIPOS>SET

