#    Name: 4mlh_VO2_1_ligand
#    Modification time : Tue Mar 25 12:15:30 2014

@<TRIPOS>MOLECULE
4mlh_VO2_1_ligand
   39    41     1     0     0
SMALL
NO_CHARGES


@<TRIPOS>ATOM
      1 C1         38.0540   16.1360   60.4160 C.2       1 VO2502      0.0000 
      2 N2         37.7590   16.3050   59.1220 N.2       1 VO2502      0.0000 
      3 C3         36.5370   17.0120   58.8200 C.2       1 VO2502      0.0000 
      4 C4         35.9180   17.3700   59.9550 C.2       1 VO2502      0.0000 
      5 S5         36.7960   16.8700   61.4730 S.3       1 VO2502      0.0000 
      6 C6         36.0780   17.2790   57.4120 C.3       1 VO2502      0.0000 
      7 N7         39.1220   15.5190   60.8480 N.pl3     1 VO2502      0.0000 
      8 C8         39.4040   15.3660   62.1630 C.ar      1 VO2502      0.0000 
      9 N9         38.5720   15.8640   63.1030 N.ar      1 VO2502      0.0000 
     10 C10        38.8240   15.7430   64.4240 C.ar      1 VO2502      0.0000 
     11 C11        39.9820   15.0840   64.8570 C.ar      1 VO2502      0.0000 
     12 C12        40.8630   14.5580   63.9060 C.ar      1 VO2502      0.0000 
     13 C13        40.5660   14.7040   62.5490 C.ar      1 VO2502      0.0000 
     14 O14        41.4220   14.2010   61.5790 O.3       1 VO2502      0.0000 
     15 C15        42.6240   13.5880   62.0760 C.3       1 VO2502      0.0000 
     16 C16        42.5450   12.0790   61.8260 C.ar      1 VO2502      0.0000 
     17 C17        43.4440   11.4660   60.9430 C.ar      1 VO2502      0.0000 
     18 C18        43.3670   10.0870   60.7130 C.ar      1 VO2502      0.0000 
     19 C19        42.3880    9.3240   61.3640 C.ar      1 VO2502      0.0000 
     20 C20        41.4880    9.9380   62.2450 C.ar      1 VO2502      0.0000 
     21 C21        41.5660   11.3140   62.4750 C.ar      1 VO2502      0.0000 
     22 C28        40.2800   14.9410   66.3570 C.3       1 VO2502      0.0000 
     23 H          35.1267   17.8246   60.1931 H         1 VO2502      0.0000 
     24 H          39.8168   15.1095   60.1465 H         1 VO2502      0.0000 
     25 H          38.1781   16.1279   65.1323 H         1 VO2502      0.0000 
     26 H          41.7111   14.0742   64.2008 H         1 VO2502      0.0000 
     27 H          42.7431   13.7447   63.1483 H         1 VO2502      0.0000 
     28 H          43.5103   13.9666   61.5665 H         1 VO2502      0.0000 
     29 H          44.1567   12.0267   60.4664 H         1 VO2502      0.0000 
     30 H          44.0245    9.6361   60.0704 H         1 VO2502      0.0000 
     31 H          42.3304    8.3140   61.1950 H         1 VO2502      0.0000 
     32 H          40.7736    9.3767   62.7196 H         1 VO2502      0.0000 
     33 H          40.9078   11.7661   63.1183 H         1 VO2502      0.0000 
     34 H          36.7446   17.8214   56.9006 H         1 VO2502      0.0000 
     35 H          35.9357   16.4314   56.9007 H         1 VO2502      0.0000 
     36 H          35.2139   17.7819   57.3921 H         1 VO2502      0.0000 
     37 H          41.1376   14.4533   66.5204 H         1 VO2502      0.0000 
     38 H          40.3586   15.8308   66.8065 H         1 VO2502      0.0000 
     39 H          39.5600   14.4352   66.8321 H         1 VO2502      0.0000 
@<TRIPOS>BOND
     1    2    1 2    
     2    5    1 1    
     3    7    1 1    
     4    3    2 1    
     5    4    3 2    
     6    6    3 1    
     7    5    4 1    
     8   23    4 1    
     9   34    6 1    
    10   35    6 1    
    11   36    6 1    
    12    8    7 1    
    13   24    7 1    
    14    9    8 ar   
    15   13    8 ar   
    16   10    9 ar   
    17   11   10 ar   
    18   25   10 1    
    19   12   11 ar   
    20   22   11 1    
    21   13   12 ar   
    22   26   12 1    
    23   14   13 1    
    24   15   14 1    
    25   16   15 1    
    26   27   15 1    
    27   28   15 1    
    28   17   16 ar   
    29   21   16 ar   
    30   18   17 ar   
    31   29   17 1    
    32   19   18 ar   
    33   30   18 1    
    34   20   19 ar   
    35   31   19 1    
    36   21   20 ar   
    37   32   20 1    
    38   33   21 1    
    39   37   22 1    
    40   38   22 1    
    41   39   22 1    
@<TRIPOS>SUBSTRUCTURE
     1 VO2502      1 GROUP   
@<TRIPOS>SET

