#    Name: 3tem_6A1_1_INTS_M
#    Modification time : Mon Mar 24 19:59:38 2014

@<TRIPOS>MOLECULE
3tem_6A1_1_INTS_M
   36     0     3     0     0
SMALL
NO_CHARGES


@<TRIPOS>ATOM
      1 CA          0.2130  -11.4645   18.1535 C.3       1 GLC5        0.0000 
      2 CA          1.7120  -10.4370   17.0130 C.3       3 GLL5        0.0000 
      3 CA         -1.2860  -12.4920   19.2940 C.3       2 GLP5        0.0000 
      4 CA          2.7710  -10.2110   18.4785 C.3       1 GLC5        0.0000 
      5 CA          3.8300   -9.9850   19.9440 C.3       2 GLP5        0.0000 
      6 CA          1.0340  -11.5215   16.3585 C.3       1 GLC5        0.0000 
      7 CA          0.3560  -12.6060   15.7040 C.3       2 GLP5        0.0000 
      8 CA          4.0350   -3.3765   17.1075 C.3       1 GLC5        0.0000 
      9 CA          4.0300   -3.9330   14.9950 C.3       3 GLL5        0.0000 
     10 CA          4.0400   -2.8200   19.2200 C.3       2 GLP5        0.0000 
     11 CA          1.2030   -1.2085   14.9785 C.3       1 GLC5        0.0000 
     12 CA          2.6120   -2.1890   16.1000 C.3       3 GLL5        0.0000 
     13 CA         -0.2060   -0.2280   13.8570 C.3       2 GLP5        0.0000 
     14 CA          3.6665   -1.9790   17.3260 C.3       1 GLC5        0.0000 
     15 CA          3.2930   -1.1380   15.4320 C.3       3 GLL5        0.0000 
     16 CA          6.5080   -3.4840   15.5525 C.3       1 GLC5        0.0000 
     17 CA          4.7790   -2.8600   14.3110 C.3       3 GLL5        0.0000 
     18 CA          8.2370   -4.1080   16.7940 C.3       2 GLP5        0.0000 
     19 CA          9.0155   -3.2085   15.4900 C.3       1 GLC5        0.0000 
     20 CA          9.7940   -2.3090   14.1860 C.3       3 GLL5        0.0000 
     21 CA          2.2430   -7.0745   14.5910 C.3       1 GLC5        0.0000 
     22 CA          3.5470   -7.6240   15.7090 C.3       3 GLL5        0.0000 
     23 CA          1.3740   -6.1380   13.0830 C.3       2 GLP5        0.0000 
     24 CA          1.6695   -6.1022   15.0115 C.3       1 GLC5        0.0000 
     25 CA          2.4230   -5.6800   16.5480 C.3       3 GLL5        0.0000 
     26 CA          2.6040   -5.9712   14.2040 C.3       1 GLC5        0.0000 
     27 CA          3.3860   -6.2270   15.7450 C.3       3 GLL5        0.0000 
     28 CA          3.2470    0.6223   14.5557 C.3       1 GLC5        0.0000 
     29 CA          4.3110   -1.5250   14.4930 C.3       3 GLL5        0.0000 
     30 CA          2.6920    2.5760   14.1490 C.3       2 GLP5        0.0000 
     31 CA          2.2030   -1.9357   14.1632 C.3       1 GLC5        0.0000 
     32 CA          0.6040   -2.5400   13.3640 C.3       2 GLP5        0.0000 
     33 CA          3.2858   -3.7724   13.3417 C.3       1 GLC5        0.0000 
     34 CA          2.4150   -4.2530   11.8180 C.3       2 GLP5        0.0000 
     35 CA          7.9260   -3.8232   14.9612 C.3       1 GLC5        0.0000 
     36 CA          7.0170   -3.8230   13.5040 C.3       3 GLL5        0.0000 
@<TRIPOS>BOND
@<TRIPOS>SUBSTRUCTURE
     1 GLC5        1 GROUP        1 X    GLC  0     ROOT GLC X 6
     2 GLP5        3 GROUP        1 Y    GLP  0     ROOT GLP Y 13
     3 GLL5        2 GROUP        1 Z    GLL  0     ROOT GLL Z 20
@<TRIPOS>SET

