#    Name: 3tem_6A1_1_ligand
#    Modification time : Mon Mar 24 19:59:38 2014

@<TRIPOS>MOLECULE
3tem_6A1_1_ligand
   49    52     1     0     0
SMALL
NO_CHARGES


@<TRIPOS>ATOM
      1 CAA         1.7120  -10.4370   17.0130 C.3       1 6A1501      0.0000 
      2 OAP         2.7960   -9.7450   16.4750 O.3       1 6A1501      0.0000 
      3 CAQ         2.6770   -8.3980   16.4890 C.ar      1 6A1501      0.0000 
      4 CAK         3.5470   -7.6240   15.7090 C.ar      1 6A1501      0.0000 
      5 CAF         1.6750   -7.8420   17.2870 C.ar      1 6A1501      0.0000 
      6 CAI         1.5070   -6.4530   17.3320 C.ar      1 6A1501      0.0000 
      7 CAV         2.4230   -5.6800   16.5480 C.ar      1 6A1501      0.0000 
      8 CAU         3.3860   -6.2270   15.7450 C.ar      1 6A1501      0.0000 
      9 CAS         4.2820   -5.3820   14.9050 C.2       1 6A1501      0.0000 
     10 OAD         5.2460   -5.9040   14.1240 O.3       1 6A1501      0.0000 
     11 CAW         4.0300   -3.9330   14.9950 C.2       1 6A1501      0.0000 
     12 CAX         3.0380   -3.5140   15.8450 C.2       1 6A1501      0.0000 
     13 NAY         2.2450   -4.3050   16.5720 N.pl3     1 6A1501      0.0000 
     14 CAJ         1.3170   -3.5860   17.3260 C.2       1 6A1501      0.0000 
     15 NAN         1.5230   -2.2180   17.0340 N.2       1 6A1501      0.0000 
     16 CAT         2.6120   -2.1890   16.1000 C.2       1 6A1501      0.0000 
     17 CAH         3.2930   -1.1380   15.4320 C.3       1 6A1501      0.0000 
     18 CAG         4.3110   -1.5250   14.4930 C.3       1 6A1501      0.0000 
     19 CAR         4.7790   -2.8600   14.3110 C.3       1 6A1501      0.0000 
     20 NAO         5.7610   -3.1590   13.2630 N.3       1 6A1501      0.0000 
     21 CAL         7.0170   -3.8230   13.5040 C.3       1 6A1501      0.0000 
     22 CAM         8.2130   -3.2540   12.7530 C.3       1 6A1501      0.0000 
     23 NAZ         8.7580   -2.0040   13.2010 N.4       1 6A1501      0.0000 
     24 CAB         9.7940   -2.3090   14.1860 C.3       1 6A1501      0.0000 
     25 CAC         9.1380   -1.2580   11.9800 C.3       1 6A1501      0.0000 
     26 OAE         7.8460   -1.2870   13.8200 O.co2     1 6A1501      0.0000 
     27 H           4.2621   -8.0501   15.1426 H         1 6A1501      0.0000 
     28 H           1.0616   -8.4497   17.8404 H         1 6A1501      0.0000 
     29 H           0.7985   -6.0138   17.8715 H         1 6A1501      0.0000 
     30 H           0.6783   -3.9314   17.9135 H         1 6A1501      0.0000 
     31 H           3.7490   -0.4337   16.1973 H         1 6A1501      0.0000 
     32 H           2.5398   -0.4730   14.9026 H         1 6A1501      0.0000 
     33 H           5.2421   -0.8385   14.6798 H         1 6A1501      0.0000 
     34 H           4.0007   -1.1052   13.4439 H         1 6A1501      0.0000 
     35 H           5.7196   -2.7676   15.3062 H         1 6A1501      0.0000 
     36 H           6.9447   -4.9098   13.2452 H         1 6A1501      0.0000 
     37 H           7.2681   -3.8082   14.5949 H         1 6A1501      0.0000 
     38 H           7.9169   -3.1862   11.6628 H         1 6A1501      0.0000 
     39 H           9.0132   -4.0543   12.7511 H         1 6A1501      0.0000 
     40 H           1.8500  -11.4269   16.9803 H         1 6A1501      0.0000 
     41 H           1.5547  -10.1945   17.9703 H         1 6A1501      0.0000 
     42 H           0.8649  -10.2427   16.5184 H         1 6A1501      0.0000 
     43 H          10.5225   -2.8725   13.7964 H         1 6A1501      0.0000 
     44 H          10.2238   -1.4792   14.5420 H         1 6A1501      0.0000 
     45 H           9.4253   -2.8078   14.9704 H         1 6A1501      0.0000 
     46 H           9.5326   -0.3653   12.1979 H         1 6A1501      0.0000 
     47 H           9.8164   -1.7539   11.4378 H         1 6A1501      0.0000 
     48 H           8.3510   -1.0933   11.3854 H         1 6A1501      0.0000 
     49 H           5.4593   -6.7907   14.5341 H         1 6A1501      0.0000 
@<TRIPOS>BOND
     1    2    1 1    
     2   40    1 1    
     3   41    1 1    
     4   42    1 1    
     5    3    2 1    
     6    4    3 ar   
     7    5    3 ar   
     8    8    4 ar   
     9   27    4 1    
    10    6    5 ar   
    11   28    5 1    
    12    7    6 ar   
    13   29    6 1    
    14    8    7 ar   
    15   13    7 1    
    16    9    8 1    
    17   10    9 1    
    18   11    9 2    
    19   49   10 1    
    20   12   11 1    
    21   19   11 1    
    22   13   12 1    
    23   16   12 2    
    24   14   13 1    
    25   15   14 2    
    26   30   14 1    
    27   16   15 1    
    28   17   16 1    
    29   18   17 1    
    30   31   17 1    
    31   32   17 1    
    32   19   18 1    
    33   33   18 1    
    34   34   18 1    
    35   20   19 1    
    36   35   19 1    
    37   21   20 1    
    38   22   21 1    
    39   36   21 1    
    40   37   21 1    
    41   23   22 1    
    42   38   22 1    
    43   39   22 1    
    44   24   23 1    
    45   25   23 1    
    46   26   23 1    
    47   43   24 1    
    48   44   24 1    
    49   45   24 1    
    50   46   25 1    
    51   47   25 1    
    52   48   25 1    
@<TRIPOS>SUBSTRUCTURE
     1 6A1501      1 GROUP   
@<TRIPOS>SET

