#    Name: 4a9l_P9L_1_INTS_M
#    Modification time : Tue Mar 25 05:19:07 2014

@<TRIPOS>MOLECULE
4a9l_P9L_1_INTS_M
   46     0     6     0     0
SMALL
NO_CHARGES


@<TRIPOS>ATOM
      1 CA         30.6250   44.7290   -4.0340 C.3       2 GLC5        0.0000 
      2 CA         30.3890   46.4660   -4.0280 C.3       6 GLL5        0.0000 
      3 CA         30.8610   42.9920   -4.0400 C.3       4 GLP5        0.0000 
      4 CA         29.0090   46.1150   -6.9695 C.3       2 GLC5        0.0000 
      5 CA         29.3900   47.5510   -5.6990 C.3       6 GLL5        0.0000 
      6 CA         28.6280   44.6790   -8.2400 C.3       4 GLP5        0.0000 
      7 CA         29.0640   47.1555   -0.0800 C.3       2 GLC5        0.0000 
      8 CA         27.9020   48.8350   -0.6290 C.3       6 GLL5        0.0000 
      9 CA         30.2260   45.4760    0.4690 C.3       4 GLP5        0.0000 
     10 CA         27.7770   46.7405   -1.1240 C.3       2 GLC5        0.0000 
     11 CA         27.6520   44.6460   -1.6190 C.3       4 GLP5        0.0000 
     12 CA         28.4470   46.5635    0.8335 C.3       2 GLC5        0.0000 
     13 CA         26.6680   47.6510    1.1980 C.3       6 GLL5        0.0000 
     14 CA         25.5145   47.9785    2.8050 C.3       2 GLC5        0.0000 
     15 CA         24.3610   48.3060    4.4120 C.3       4 GLP5        0.0000 
     16 CA         27.1600   46.1485   -0.2105 C.3       2 GLC5        0.0000 
     17 CA         23.2150   50.8610   -0.6060 C.3       2 GLC5        0.0000 
     18 CA         23.0720   49.0950   -0.4580 C.3       6 GLL5        0.0000 
     19 CA         23.3580   52.6270   -0.7540 C.3       4 GLP5        0.0000 
     20 CA         21.7960   48.9200    1.1240 C.3       2 GLC5        0.0000 
     21 CA         20.5200   48.7450    2.7060 C.3       4 GLP5        0.0000 
     22 CA         21.3585   49.0905   -0.8320 C.3       2 GLC5        0.0000 
     23 CA         19.6450   49.0860   -1.2060 C.3       4 GLP5        0.0000 
     24 N          22.5205   46.2095   -0.5900 N.am      1 SEC2        0.0000 
     25 N          23.2940   46.6500    0.6050 N.am      5 SEL2        0.0000 
     26 N          21.7470   45.7690   -1.7850 N.am      3 SEP2        0.0000 
     27 CA         25.9505   43.8555    1.7355 C.3       2 GLC5        0.0000 
     28 CA         25.4880   45.5380    1.8740 C.3       6 GLL5        0.0000 
     29 CA         26.4130   42.1730    1.5970 C.3       4 GLP5        0.0000 
     30 CA         24.9245   46.9220    3.1430 C.3       2 GLC5        0.0000 
     31 CA         25.8615   45.2020   -0.1060 C.3       2 GLC5        0.0000 
     32 CA         26.2350   44.8660   -2.0860 C.3       4 GLP5        0.0000 
     33 CA         31.7900   47.3580   -2.8690 C.3       2 GLC5        0.0000 
     34 CA         29.9370   47.4060   -2.9400 C.3       6 GLL5        0.0000 
     35 CA         33.4170   47.7800   -2.2540 C.3       4 GLP5        0.0000 
     36 CA         30.6885   45.8945   -1.9745 C.3       2 GLC5        0.0000 
     37 CA         31.2140   44.8530   -0.4650 C.3       4 GLP5        0.0000 
     38 CA         28.9075   45.7910   -2.5515 C.3       2 GLC5        0.0000 
     39 CA         27.5553   50.6692    0.0540 C.3       2 GLC5        0.0000 
     40 CA         27.2130   52.0810    1.2850 C.3       4 GLP5        0.0000 
     41 CA         26.6593   51.0132   -0.3670 C.3       2 GLC5        0.0000 
     42 CA         26.7110   50.1080   -2.3140 C.3       6 GLL5        0.0000 
     43 CA         24.5824   51.0499   -1.0260 C.3       2 GLC5        0.0000 
     44 CA         25.5080   49.0000   -0.5770 C.3       6 GLL5        0.0000 
     45 CA         26.1680   46.8110   -1.1972 C.3       2 GLC5        0.0000 
     46 CA         26.7987   50.1423    0.8649 C.3       2 GLC5        0.0000 
@<TRIPOS>BOND
@<TRIPOS>SUBSTRUCTURE
     1 SEC2       24 GROUP        1 X    SEC  0     ROOT SEC X 2
     2 GLC5        1 GROUP        1 X    GLC  0     **** GLC X 6
     3 SEP2       26 GROUP        1 Y    SEP  0     ROOT SEP Y 9
     4 GLP5        3 GROUP        1 Y    GLP  0     **** GLP Y 13
     5 SEL2       25 GROUP        1 Z    SEL  0     ROOT SEL Z 16
     6 GLL5        2 GROUP        1 Z    GLL  0     **** GLL Z 20
@<TRIPOS>SET

