#    Name: 4a9l_P9L_1_ligand
#    Modification time : Tue Mar 25 05:19:07 2014

@<TRIPOS>MOLECULE
4a9l_P9L_1_ligand
   41    43     1     0     0
SMALL
NO_CHARGES


@<TRIPOS>ATOM
      1 O3         29.3020   51.1620   -3.3720 O.2       1 P9L1171     0.0000 
      2 S          29.4120   49.9960   -2.5410 S.o2      1 P9L1171     0.0000 
      3 O2         30.5260   49.9600   -1.6300 O.2       1 P9L1171     0.0000 
      4 N3         29.5340   48.7060   -3.5200 N.pl3     1 P9L1171     0.0000 
      5 C14        29.9370   47.4060   -2.9400 C.3       1 P9L1171     0.0000 
      6 C13        30.3890   46.4660   -4.0280 C.3       1 P9L1171     0.0000 
      7 O4         29.3970   46.3210   -5.0110 O.3       1 P9L1171     0.0000 
      8 C12        29.3900   47.5510   -5.6990 C.3       1 P9L1171     0.0000 
      9 C11        28.8500   48.6770   -4.8360 C.3       1 P9L1171     0.0000 
     10 C5         27.8930   49.6800   -1.7250 C.ar      1 P9L1171     0.0000 
     11 C4         27.9020   48.8350   -0.6290 C.ar      1 P9L1171     0.0000 
     12 C6         26.7110   50.1080   -2.3140 C.ar      1 P9L1171     0.0000 
     13 C7         25.5000   49.7830   -1.7240 C.ar      1 P9L1171     0.0000 
     14 C8         25.5080   49.0000   -0.5770 C.ar      1 P9L1171     0.0000 
     15 C3         26.6940   48.5120   -0.0400 C.ar      1 P9L1171     0.0000 
     16 C2         26.6680   47.6510    1.1980 C.3       1 P9L1171     0.0000 
     17 N2         24.3410   48.5700    0.0700 N.am      1 P9L1171     0.0000 
     18 C9         23.0720   49.0950   -0.4580 C.3       1 P9L1171     0.0000 
     19 C10        24.2910   47.3420    0.6990 C.2       1 P9L1171     0.0000 
     20 O1         23.2940   46.6500    0.6050 O.2       1 P9L1171     0.0000 
     21 N1         25.4470   46.8370    1.1930 N.am      1 P9L1171     0.0000 
     22 C1         25.4880   45.5380    1.8740 C.3       1 P9L1171     0.0000 
     23 H          29.0957   46.9548   -2.4054 H         1 P9L1171     0.0000 
     24 H          30.7559   47.5484   -2.2285 H         1 P9L1171     0.0000 
     25 H          30.6437   45.4995   -3.5538 H         1 P9L1171     0.0000 
     26 H          31.3308   46.8658   -4.4488 H         1 P9L1171     0.0000 
     27 H          28.7682   47.5067   -6.6152 H         1 P9L1171     0.0000 
     28 H          30.4064   47.8436   -6.0296 H         1 P9L1171     0.0000 
     29 H          29.0000   49.6261   -5.3604 H         1 P9L1171     0.0000 
     30 H          27.7738   48.5311   -4.6990 H         1 P9L1171     0.0000 
     31 H          28.7777   48.4607   -0.2659 H         1 P9L1171     0.0000 
     32 H          26.7350   50.6597   -3.1780 H         1 P9L1171     0.0000 
     33 H          24.6207   50.1112   -2.1225 H         1 P9L1171     0.0000 
     34 H          26.6956   48.2953    2.0778 H         1 P9L1171     0.0000 
     35 H          27.5534   47.0139    1.2047 H         1 P9L1171     0.0000 
     36 H          23.0323   50.0928   -0.4053 H         1 P9L1171     0.0000 
     37 H          22.9378   48.8466   -1.4173 H         1 P9L1171     0.0000 
     38 H          22.2850   48.7432    0.0488 H         1 P9L1171     0.0000 
     39 H          26.1770   44.9319    1.4766 H         1 P9L1171     0.0000 
     40 H          25.7074   45.6344    2.8449 H         1 P9L1171     0.0000 
     41 H          24.6107   45.0613    1.8177 H         1 P9L1171     0.0000 
@<TRIPOS>BOND
     1    2    1 2    
     2    3    2 2    
     3    4    2 1    
     4   10    2 1    
     5    5    4 1    
     6    9    4 1    
     7    6    5 1    
     8   23    5 1    
     9   24    5 1    
    10    7    6 1    
    11   25    6 1    
    12   26    6 1    
    13    8    7 1    
    14    9    8 1    
    15   27    8 1    
    16   28    8 1    
    17   29    9 1    
    18   30    9 1    
    19   11   10 ar   
    20   12   10 ar   
    21   15   11 ar   
    22   31   11 1    
    23   13   12 ar   
    24   32   12 1    
    25   14   13 ar   
    26   33   13 1    
    27   15   14 ar   
    28   17   14 1    
    29   16   15 1    
    30   21   16 1    
    31   34   16 1    
    32   35   16 1    
    33   18   17 1    
    34   19   17 am   
    35   36   18 1    
    36   37   18 1    
    37   38   18 1    
    38   20   19 2    
    39   21   19 am   
    40   22   21 1    
    41   39   22 1    
    42   40   22 1    
    43   41   22 1    
@<TRIPOS>SUBSTRUCTURE
     1 P9L1171     1 GROUP   
@<TRIPOS>SET

