#    Name: 3qgf_46F_4_INTS_M
#    Modification time : Tue Mar 25 09:45:27 2014

@<TRIPOS>MOLECULE
3qgf_46F_4_INTS_M
   85     0     6     0     0
SMALL
NO_CHARGES


@<TRIPOS>ATOM
      1 CA         18.9480    9.0695   71.8815 C.3       2 GLC5        0.0000 
      2 CA         20.8590    8.1750   71.9800 C.3       6 GLL5        0.0000 
      3 CA         17.0370    9.9640   71.7830 C.3       4 GLP5        0.0000 
      4 CA         27.6485    1.9650   75.6200 C.3       2 GLC5        0.0000 
      5 CA         27.8760    1.4160   73.6220 C.3       6 GLL5        0.0000 
      6 CA         27.4210    2.5140   77.6180 C.3       4 GLP5        0.0000 
      7 CA         26.0060    3.6310   73.9975 C.3       2 GLC5        0.0000 
      8 CA         27.3700    2.5890   73.0930 C.3       6 GLL5        0.0000 
      9 CA         24.6420    4.6730   74.9020 C.3       4 GLP5        0.0000 
     10 CA         24.2495    0.0225   69.5740 C.3       2 GLC5        0.0000 
     11 CA         24.6490    1.9940   70.1540 C.3       6 GLL5        0.0000 
     12 CA         23.8500   -1.9490   68.9940 C.3       4 GLP5        0.0000 
     13 CA         25.7735    0.2030   70.6630 C.3       2 GLC5        0.0000 
     14 CA         26.8980   -1.5880   71.1720 C.3       4 GLP5        0.0000 
     15 CA         24.2050    4.5650   72.1775 C.3       2 GLC5        0.0000 
     16 CA         24.8280    3.4690   70.5860 C.3       6 GLL5        0.0000 
     17 CA         23.5820    5.6610   73.7690 C.3       4 GLP5        0.0000 
     18 CA         20.9790   11.1105   72.5915 C.3       2 GLC5        0.0000 
     19 CA         20.2100    9.8840   74.1840 C.3       6 GLL5        0.0000 
     20 CA         21.7480   12.3370   70.9990 C.3       4 GLP5        0.0000 
     21 CA         18.6235    9.9240   72.9835 C.3       2 GLC5        0.0000 
     22 CA         19.1635   11.0405   75.1920 C.3       2 GLC5        0.0000 
     23 CA         18.1170   12.1970   76.2000 C.3       4 GLP5        0.0000 
     24 CA         21.0945   11.7485   74.7770 C.3       2 GLC5        0.0000 
     25 CA         21.9790   13.6130   75.3700 C.3       4 GLP5        0.0000 
     26 CA         21.8985    5.6105   67.9445 C.3       2 GLC5        0.0000 
     27 CA         23.0020    6.6430   69.2100 C.3       6 GLL5        0.0000 
     28 CA         20.7950    4.5780   66.6790 C.3       4 GLP5        0.0000 
     29 O          25.0760    6.5745   69.4860 O.2       1 ALC1        0.0000 
     30 O          23.9220    5.6220   69.7120 O.2       5 ALL1        0.0000 
     31 O          26.2300    7.5270   69.2600 O.2       3 ALP1        0.0000 
     32 CA         28.8940    1.4685   76.4400 C.3       2 GLC5        0.0000 
     33 CA         30.3670    0.4230   75.2620 C.3       6 GLL5        0.0000 
     34 CA         29.9055    2.3840   75.4390 C.3       2 GLC5        0.0000 
     35 CA         29.4440    4.3450   75.6160 C.3       4 GLP5        0.0000 
     36 CA         29.9265   -2.9410   76.1805 C.3       2 GLC5        0.0000 
     37 CA         30.4670   -1.7390   74.8030 C.3       6 GLL5        0.0000 
     38 CA         29.3860   -4.1430   77.5580 C.3       4 GLP5        0.0000 
     39 CA         31.8870   -0.7930   76.1890 C.3       2 GLC5        0.0000 
     40 CA         33.3070    0.1530   77.5750 C.3       4 GLP5        0.0000 
     41 CA         31.3415   -3.0760   74.5410 C.3       2 GLC5        0.0000 
     42 CA         32.2160   -4.4130   74.2790 C.3       4 GLP5        0.0000 
     43 CA         28.0425   -0.5580   77.2005 C.3       2 GLC5        0.0000 
     44 CA         28.5180   -0.8380   75.3540 C.3       6 GLL5        0.0000 
     45 CA         27.5670   -0.2780   79.0470 C.3       4 GLP5        0.0000 
     46 CA         26.6350   -0.2680   75.2855 C.3       2 GLC5        0.0000 
     47 CA         24.7520    0.3020   75.2170 C.3       4 GLP5        0.0000 
     48 CA         27.9395   -2.2325   74.1935 C.3       2 GLC5        0.0000 
     49 CA         27.3610   -3.6270   73.0330 C.3       4 GLP5        0.0000 
     50 CA         21.2740    2.8650   64.7630 C.3       2 GLC5        0.0000 
     51 CA         21.5100    1.0160   64.2160 C.3       6 GLL5        0.0000 
     52 CA         21.0380    4.7140   65.3100 C.3       4 GLP5        0.0000 
     53 CA         24.7362    9.4698   72.6583 C.3       2 GLC5        0.0000 
     54 CA         23.4720    8.3030   71.0200 C.3       6 GLL5        0.0000 
     55 CA         26.1820   10.2550   73.7360 C.3       4 GLP5        0.0000 
     56 CA         22.5192   10.5107   71.2897 C.3       2 GLC5        0.0000 
     57 CA         23.1090    9.0660   72.1410 C.3       6 GLL5        0.0000 
     58 CA         21.5370   10.4630   71.6492 C.3       2 GLC5        0.0000 
     59 CA         26.1875    1.1522   74.2873 C.3       2 GLC5        0.0000 
     60 CA         28.5335    3.1737   74.4868 C.3       2 GLC5        0.0000 
     61 CA         20.7987    1.8147   68.7235 C.3       2 GLC5        0.0000 
     62 CA         22.6410    1.5750   68.0020 C.3       6 GLL5        0.0000 
     63 CA         19.3840    2.1820   69.9850 C.3       4 GLP5        0.0000 
     64 CA         22.2575    3.0802   65.5400 C.3       2 GLC5        0.0000 
     65 CA         21.7860    1.3200   66.9220 C.3       6 GLL5        0.0000 
     66 CA         22.4410    4.8480   64.7870 C.3       4 GLP5        0.0000 
     67 CA         30.7601    1.4108   72.6531 C.3       2 GLC5        0.0000 
     68 CA         28.9110    2.3800   71.1840 C.3       6 GLL5        0.0000 
     69 CA         32.4940    1.5560   73.1120 C.3       4 GLP5        0.0000 
     70 CA         29.3819    3.8063   72.5316 C.3       2 GLC5        0.0000 
     71 CA         30.2400    5.1920   73.3980 C.3       4 GLP5        0.0000 
     72 CA         23.4826   -0.1714   68.3030 C.3       2 GLC5        0.0000 
     73 CA         24.0170    1.7650   67.7620 C.3       6 GLL5        0.0000 
     74 CA         23.6593    2.3912   71.8725 C.3       2 GLC5        0.0000 
     75 CA         22.5800    2.0510   73.3750 C.3       4 GLP5        0.0000 
     76 CA         29.1857   -2.2652   73.3970 C.3       2 GLC5        0.0000 
     77 CA         29.7000   -0.6240   74.7150 C.3       6 GLL5        0.0000 
     78 CA         28.2880   -3.3490   72.0350 C.3       4 GLP5        0.0000 
     79 CA         28.5890   -2.1510   76.3092 C.3       2 GLC5        0.0000 
     80 CA         28.0690   -3.5710   77.5840 C.3       4 GLP5        0.0000 
     81 CA         30.7833    0.9032   76.3607 C.3       2 GLC5        0.0000 
     82 CA         31.5330    1.9070   77.7330 C.3       4 GLP5        0.0000 
     83 CA         31.3721    0.3181   74.0039 C.3       2 GLC5        0.0000 
     84 CA         22.8754    6.9490   72.6332 C.3       2 GLC5        0.0000 
     85 CA         22.5420    7.4680   70.3690 C.3       6 GLL5        0.0000 
@<TRIPOS>BOND
@<TRIPOS>SUBSTRUCTURE
     1 ALC1       29 GROUP        1 X    ALC  0     ROOT ALC X 1
     2 GLC5        1 GROUP        1 X    GLC  0     **** GLC X 6
     3 ALP1       31 GROUP        1 Y    ALP  0     ROOT ALP Y 8
     4 GLP5        3 GROUP        1 Y    GLP  0     **** GLP Y 13
     5 ALL1       30 GROUP        1 Z    ALL  0     ROOT ALL Z 15
     6 GLL5        2 GROUP        1 Z    GLL  0     **** GLL Z 20
@<TRIPOS>SET

