#    Name: 3qgf_46F_4_ligand
#    Modification time : Tue Mar 25 09:45:27 2014

@<TRIPOS>MOLECULE
3qgf_46F_4_ligand
   62    65     1     0     0
SMALL
NO_CHARGES


@<TRIPOS>ATOM
      1 C1         23.4720    8.3030   71.0200 C.ar      1 46F602      0.0000 
      2 C2         21.2410    7.4100   70.8620 C.ar      1 46F602      0.0000 
      3 C3         23.1090    9.0660   72.1410 C.ar      1 46F602      0.0000 
      4 C4         20.8590    8.1750   71.9800 C.ar      1 46F602      0.0000 
      5 C5         27.8760    1.4160   73.6220 C.ar      1 46F602      0.0000 
      6 C6         29.4040    1.2080   71.7270 C.ar      1 46F602      0.0000 
      7 C7         27.3700    2.5890   73.0930 C.ar      1 46F602      0.0000 
      8 C8         28.9110    2.3800   71.1840 C.ar      1 46F602      0.0000 
      9 C9         22.6410    1.5750   68.0020 C.ar      1 46F602      0.0000 
     10 C10        21.7860    1.3200   66.9220 C.ar      1 46F602      0.0000 
     11 C11        22.5420    7.4680   70.3690 C.ar      1 46F602      0.0000 
     12 C12        21.7930    9.0030   72.6190 C.ar      1 46F602      0.0000 
     13 C13        28.8950    0.7370   72.9330 C.ar      1 46F602      0.0000 
     14 C14        27.8900    3.0470   71.8750 C.ar      1 46F602      0.0000 
     15 C15        24.0170    1.7650   67.7620 C.ar      1 46F602      0.0000 
     16 C16        22.3620    1.3050   65.6640 C.ar      1 46F602      0.0000 
     17 C17        23.6250    4.3090   70.0930 C.2       1 46F602      0.0000 
     18 C18        26.3220    2.2730   68.3370 C.3       1 46F602      0.0000 
     19 C19        26.5960    3.7330   68.6700 C.3       1 46F602      0.0000 
     20 C20        24.6490    1.9940   70.1540 C.3       1 46F602      0.0000 
     21 C21        24.8280    3.4690   70.5860 C.3       1 46F602      0.0000 
     22 C22        20.2100    9.8840   74.1840 C.3       1 46F602      0.0000 
     23 C23        23.0020    6.6430   69.2100 C.3       1 46F602      0.0000 
     24 C24        29.7000   -0.6240   74.7150 C.3       1 46F602      0.0000 
     25 N25        24.4800    1.7790   66.4880 N.ar      1 46F602      0.0000 
     26 N26        23.6620    1.5190   65.4400 N.ar      1 46F602      0.0000 
     27 N27        24.9220    2.1420   68.7370 N.3       1 46F602      0.0000 
     28 N28        26.0660    4.1180   70.0180 N.pl3     1 46F602      0.0000 
     29 N29        23.9220    5.6220   69.7120 N.am      1 46F602      0.0000 
     30 O30        22.4980    3.8520   70.0280 O.2       1 46F602      0.0000 
     31 O31        26.6300    5.2740   72.2720 O.2       1 46F602      0.0000 
     32 O32        28.3860    5.1030   70.4620 O.2       1 46F602      0.0000 
     33 O33        21.5520    9.8020   73.7090 O.3       1 46F602      0.0000 
     34 O34        29.4790   -0.4220   73.3320 O.3       1 46F602      0.0000 
     35 F35        30.3670    0.4230   75.2620 F         1 46F602      0.0000 
     36 F36        30.4670   -1.7390   74.8030 F         1 46F602      0.0000 
     37 F37        28.5180   -0.8380   75.3540 F         1 46F602      0.0000 
     38 S38        27.2670    4.5370   71.1810 S.o2      1 46F602      0.0000 
     39 CL39       21.5100    1.0160   64.2160 Cl        1 46F602      0.0000 
     40 H          24.4397    8.3530   70.6633 H         1 46F602      0.0000 
     41 H          20.5443    6.8014   70.4072 H         1 46F602      0.0000 
     42 H          23.7973    9.6604   72.6027 H         1 46F602      0.0000 
     43 H          19.8959    8.1252   72.3259 H         1 46F602      0.0000 
     44 H          27.5201    1.0393   74.5024 H         1 46F602      0.0000 
     45 H          30.1445    0.6833   71.2440 H         1 46F602      0.0000 
     46 H          26.6400    3.1117   73.5684 H         1 46F602      0.0000 
     47 H          29.2711    2.7531   70.3128 H         1 46F602      0.0000 
     48 H          22.2764    1.6234   68.9515 H         1 46F602      0.0000 
     49 H          20.8047    1.1572   67.0625 H         1 46F602      0.0000 
     50 H          26.9544    1.6590   68.9257 H         1 46F602      0.0000 
     51 H          26.4445    2.1268   67.2944 H         1 46F602      0.0000 
     52 H          26.1362    4.3643   67.8969 H         1 46F602      0.0000 
     53 H          27.6806    3.9061   68.6350 H         1 46F602      0.0000 
     54 H          23.6554    1.7131   70.3419 H         1 46F602      0.0000 
     55 H          25.3763    1.4162   70.6424 H         1 46F602      0.0000 
     56 H          24.8458    3.5285   71.6571 H         1 46F602      0.0000 
     57 H          23.5016    7.2859   68.4870 H         1 46F602      0.0000 
     58 H          22.1394    6.1798   68.7337 H         1 46F602      0.0000 
     59 H          24.9438    5.9420   69.7888 H         1 46F602      0.0000 
     60 H          20.1330   10.4884   74.9769 H         1 46F602      0.0000 
     61 H          19.5894   10.2379   73.4843 H         1 46F602      0.0000 
     62 H          19.8591    8.9898   74.4619 H         1 46F602      0.0000 
@<TRIPOS>BOND
     1    3    1 ar   
     2   11    1 ar   
     3   40    1 1    
     4    4    2 ar   
     5   11    2 ar   
     6   41    2 1    
     7   12    3 ar   
     8   42    3 1    
     9   12    4 ar   
    10   43    4 1    
    11    7    5 ar   
    12   13    5 ar   
    13   44    5 1    
    14    8    6 ar   
    15   13    6 ar   
    16   45    6 1    
    17   14    7 ar   
    18   46    7 1    
    19   14    8 ar   
    20   47    8 1    
    21   10    9 ar   
    22   15    9 ar   
    23   48    9 1    
    24   16   10 ar   
    25   49   10 1    
    26   23   11 1    
    27   33   12 1    
    28   34   13 1    
    29   38   14 1    
    30   25   15 ar   
    31   27   15 1    
    32   26   16 ar   
    33   39   16 1    
    34   21   17 1    
    35   29   17 am   
    36   30   17 2    
    37   19   18 1    
    38   27   18 1    
    39   50   18 1    
    40   51   18 1    
    41   28   19 1    
    42   52   19 1    
    43   53   19 1    
    44   21   20 1    
    45   27   20 1    
    46   54   20 1    
    47   55   20 1    
    48   28   21 1    
    49   56   21 1    
    50   33   22 1    
    51   60   22 1    
    52   61   22 1    
    53   62   22 1    
    54   29   23 1    
    55   57   23 1    
    56   58   23 1    
    57   34   24 1    
    58   35   24 1    
    59   36   24 1    
    60   37   24 1    
    61   26   25 ar   
    62   38   28 1    
    63   59   29 1    
    64   38   31 2    
    65   38   32 2    
@<TRIPOS>SUBSTRUCTURE
     1 46F602      1 GROUP   
@<TRIPOS>SET

