#    Name: 2ONH_2_CAVITY_N1_ALL.mol2
#    Modification time : Tue Mar 11 03:18:47 2014

@<TRIPOS>MOLECULE
2ONH_2_CAVITY_N1_ALL.mol2
   63     0     7     0     0
SMALL
NO_CHARGES


@<TRIPOS>ATOM
      1 NZ        -23.1455   51.9910  -71.9742 N.2       4 LYS4        0.0000 
      2 OD1       -23.4997   53.2169  -72.7627 O.3       3 ASP3        0.0000 
      3 OD1       -23.8539   54.4428  -73.5511 O.3       3 ASP3        0.0000 
      4 O         -24.2081   55.6687  -74.3396 O.2       2 ALA2        0.0000 
      5 NZ        -24.5624   56.8946  -75.1281 N.2       4 LYS4        0.0000 
      6 OD1       -24.5093   51.4260  -72.2399 O.3       3 ASP3        0.0000 
      7 OD1       -24.8636   52.6519  -73.0284 O.3       3 ASP3        0.0000 
      8 CA        -25.5720   55.1037  -74.6053 C.3       6 GLY6        0.0000 
      9 CA        -21.6248   56.9568  -64.9365 C.3       6 GLY6        0.0000 
     10 CZ        -21.9790   58.1827  -65.7250 C.ar      5 PHE5        0.0000 
     11 CA        -22.9887   56.3918  -65.2023 C.3       6 GLY6        0.0000 
     12 CZ        -23.3429   57.6177  -65.9908 C.ar      5 PHE5        0.0000 
     13 CA        -24.3525   55.8268  -65.4681 C.3       6 GLY6        0.0000 
     14 CA        -24.7068   57.0527  -66.2565 C.3       6 GLY6        0.0000 
     15 CA        -20.1010   58.0935  -66.7073 C.3       6 GLY6        0.0000 
     16 O         -21.1106   56.3026  -66.1846 O.2       2 ALA2        0.0000 
     17 CA        -21.4648   57.5285  -66.9731 C.3       6 GLY6        0.0000 
     18 CA        -21.8191   58.7544  -67.7616 C.3       6 GLY6        0.0000 
     19 OG        -22.4745   55.7376  -66.4504 O.2       1 SER1        0.0000 
     20 DU        -22.8287   56.9635  -67.2388 H         7 CUB7        0.0000 
     21 CZ        -23.1829   58.1894  -68.0273 C.ar      5 PHE5        0.0000 
     22 N         -23.8384   55.1726  -66.7161 N.2       2 ALA2        0.0000 
     23 OG        -24.1926   56.3985  -67.5046 O.2       1 SER1        0.0000 
     24 CA        -19.5681   54.3402  -69.9288 C.3       6 GLY6        0.0000 
     25 OG        -19.9223   55.5661  -70.7173 O.2       1 SER1        0.0000 
     26 NZ        -20.9319   53.7752  -70.1946 N.2       4 LYS4        0.0000 
     27 O         -21.2861   55.0011  -70.9831 O.2       2 ALA2        0.0000 
     28 NZ        -22.2958   53.2101  -70.4604 N.2       4 LYS4        0.0000 
     29 NZ        -22.6500   54.4360  -71.2488 N.2       4 LYS4        0.0000 
     30 O         -23.0042   55.6620  -72.0373 O.2       2 ALA2        0.0000 
     31 N         -23.3054   51.4192  -69.9376 N.2       2 ALA2        0.0000 
     32 NZ        -23.6597   52.6451  -70.7261 N.2       4 LYS4        0.0000 
     33 NZ        -24.0139   53.8710  -71.5146 N.2       4 LYS4        0.0000 
     34 OD1       -24.3681   55.0969  -72.3030 O.3       3 ASP3        0.0000 
     35 O         -24.7223   56.3228  -73.0915 O.2       2 ALA2        0.0000 
     36 O         -25.0235   52.0801  -70.9919 O.2       2 ALA2        0.0000 
     37 OD1       -25.3777   53.3060  -71.7803 O.3       3 ASP3        0.0000 
     38 N         -18.7184   55.5593  -68.4150 N.2       2 ALA2        0.0000 
     39 CA        -20.0822   54.9943  -68.6808 C.3       6 GLY6        0.0000 
     40 OG        -20.4365   56.2202  -69.4692 O.2       1 SER1        0.0000 
     41 CA        -21.0919   53.2034  -68.1581 C.3       6 GLY6        0.0000 
     42 CA        -21.4461   54.4293  -68.9465 C.3       6 GLY6        0.0000 
     43 DU        -21.8003   55.6552  -69.7350 H         7 CUB7        0.0000 
     44 O         -22.1546   56.8811  -70.5235 O.2       2 ALA2        0.0000 
     45 N         -22.8100   53.8643  -69.2123 N.2       2 ALA2        0.0000 
     46 DU        -23.1642   55.0902  -70.0007 H         7 CUB7        0.0000 
     47 OG        -23.5184   56.3161  -70.7892 O.2       1 SER1        0.0000 
     48 CA        -24.1738   53.2993  -69.4780 C.3       6 GLY6        0.0000 
     49 NZ        -24.5281   54.5252  -70.2665 N.2       4 LYS4        0.0000 
     50 OG        -24.8823   55.7511  -71.0550 O.2       1 SER1        0.0000 
     51 NZ        -25.5377   52.7343  -69.7438 N.2       4 LYS4        0.0000 
     52 N         -19.2326   56.2135  -67.1669 N.2       2 ALA2        0.0000 
     53 N         -19.5868   57.4394  -67.9554 N.2       2 ALA2        0.0000 
     54 OG        -20.2422   54.4226  -66.6442 O.2       1 SER1        0.0000 
     55 CA        -20.5964   55.6485  -67.4327 C.3       6 GLY6        0.0000 
     56 CA        -20.9507   56.8744  -68.2212 C.3       6 GLY6        0.0000 
     57 N         -21.9603   55.0835  -67.6985 N.2       2 ALA2        0.0000 
     58 DU        -22.3145   56.3094  -68.4869 H         7 CUB7        0.0000 
     59 CA        -22.6687   57.5353  -69.2754 C.3       6 GLY6        0.0000 
     60 N         -23.3242   54.5184  -67.9642 N.2       2 ALA2        0.0000 
     61 OG        -23.6784   55.7444  -68.7527 O.2       1 SER1        0.0000 
     62 NZ        -25.0423   55.1793  -69.0184 N.2       4 LYS4        0.0000 
     63 OD1       -23.6939   55.0145  -75.5877 O.3       3 ASP3        0.0000 
@<TRIPOS>BOND
@<TRIPOS>SUBSTRUCTURE
     1 SER1       19 GROUP   
     2 ALA2        4 GROUP   
     3 ASP3        2 GROUP   
     4 LYS4        1 GROUP   
     5 PHE5       10 GROUP   
     6 GLY6        8 GROUP   
     7 CUB7       20 GROUP   
@<TRIPOS>SET

