#    Name: 2onh_F3P_2_INTS_M
#    Modification time : Tue Mar 25 23:02:40 2014

@<TRIPOS>MOLECULE
2onh_F3P_2_INTS_M
   51     0    12     0     0
SMALL
NO_CHARGES


@<TRIPOS>ATOM
      1 CA        -24.0675   59.0585  -67.8110 C.3       4 GLC5        0.0000 
      2 CA        -23.1620   57.6790  -68.9440 C.3      12 GLL5        0.0000 
      3 CA        -24.9730   60.4380  -66.6780 C.3       8 GLP5        0.0000 
      4 CA        -21.2430   58.0550  -69.8995 C.3       4 GLC5        0.0000 
      5 CA        -21.2330   55.9020  -69.8780 C.3      12 GLL5        0.0000 
      6 CA        -21.2530   60.2080  -69.9210 C.3       8 GLP5        0.0000 
      7 CA        -19.5185   54.3220  -68.2795 C.3       4 GLC5        0.0000 
      8 CA        -20.6170   55.8940  -68.4750 C.3      12 GLL5        0.0000 
      9 CA        -18.4200   52.7500  -68.0840 C.3       8 GLP5        0.0000 
     10 CA        -21.2060   58.6275  -68.7970 C.3       4 GLC5        0.0000 
     11 CA        -21.1590   57.0470  -67.6730 C.3      12 GLL5        0.0000 
     12 CA        -22.7685   59.7725  -65.9355 C.3       4 GLC5        0.0000 
     13 CA        -21.7030   58.4880  -65.6920 C.3      12 GLL5        0.0000 
     14 CA        -23.8340   61.0570  -66.1790 C.3       8 GLP5        0.0000 
     15 CA        -21.5440   57.6915  -63.7460 C.3       4 GLC5        0.0000 
     16 CA        -21.3850   56.8950  -61.8000 C.3       8 GLP5        0.0000 
     17 CA        -19.1130   54.6850  -65.2225 C.3       4 GLC5        0.0000 
     18 CA        -20.4090   56.2840  -65.4510 C.3      12 GLL5        0.0000 
     19 CA        -17.8170   53.0860  -64.9940 C.3       8 GLP5        0.0000 
     20 CA        -25.3430   54.0890  -67.5190 C.3       4 GLC5        0.0000 
     21 CA        -24.6100   55.8640  -68.1360 C.3      12 GLL5        0.0000 
     22 CA        -26.0760   52.3140  -66.9020 C.3       8 GLP5        0.0000 
     23 CA        -25.8145   56.1050  -66.3975 C.3       4 GLC5        0.0000 
     24 CA        -27.0190   56.3460  -64.6590 C.3       8 GLP5        0.0000 
     25 N         -22.3475   56.4665  -72.5960 N.am      1 SEC2        0.0000 
     26 N         -23.1840   55.7780  -71.2510 N.am      9 SEL2        0.0000 
     27 N         -21.5110   57.1550  -73.9410 N.am      5 SEP2        0.0000 
     28 NZ        -22.7710   56.1740  -73.7760 N.4       2 LYC4        0.0000 
     29 NZ        -24.0310   55.1930  -73.6110 N.4      10 LYL4        0.0000 
     30 NZ        -20.4140   56.5420  -74.3820 N.4       6 LYP4        0.0000 
     31 N         -22.7710   56.1740  -73.7760 N.am      1 SEC2        0.0000 
     32 N         -24.0310   55.1930  -73.6110 N.am      9 SEL2        0.0000 
     33 Zn        -26.9075   53.2295  -72.9030 Zn        3 ZIC7        0.0000 
     34 Zn        -26.1540   52.6150  -72.4990 Zn       11 ZIL7        0.0000 
     35 Zn        -27.6610   53.8440  -73.3070 Zn        7 ZIP7        0.0000 
     36 Zn        -23.5745   52.1220  -74.5550 Zn        3 ZIC7        0.0000 
     37 Zn        -24.1760   51.7900  -73.9610 Zn       11 ZIL7        0.0000 
     38 Zn        -22.9730   52.4540  -75.1490 Zn        7 ZIP7        0.0000 
     39 N         -26.0865   50.7150  -71.0340 N.am      1 SEC2        0.0000 
     40 N         -24.4750   50.8790  -71.5810 N.am      9 SEL2        0.0000 
     41 N         -27.6980   50.5510  -70.4870 N.am      5 SEP2        0.0000 
     42 CA        -22.8813   58.6220  -69.8125 C.3       4 GLC5        0.0000 
     43 CA        -22.3920   60.2300  -70.6920 C.3       8 GLP5        0.0000 
     44 CA        -21.1833   56.0532  -64.2302 C.3       4 GLC5        0.0000 
     45 CA        -21.0720   57.2330  -66.2980 C.3      12 GLL5        0.0000 
     46 CA        -21.6260   55.3480  -62.5860 C.3       8 GLP5        0.0000 
     47 CA        -19.1696   57.8156  -65.3755 C.3       4 GLC5        0.0000 
     48 CA        -17.4410   58.5590  -65.0280 C.3       8 GLP5        0.0000 
     49 CA        -25.6371   57.5155  -69.0447 C.3       4 GLC5        0.0000 
     50 CA        -23.5790   56.3490  -68.9220 C.3      12 GLL5        0.0000 
     51 CA        -27.2840   58.5920  -69.5550 C.3       8 GLP5        0.0000 
@<TRIPOS>BOND
@<TRIPOS>SUBSTRUCTURE
     1 SEC2       25 GROUP        1 X    SEC  0     ROOT SEC X 2
     2 LYC4       28 GROUP        1 X    LYC  0     **** LYC X 4
     3 ZIC7       33 GROUP        1 X    ZIC  0     **** ZIC X 5
     4 GLC5        1 GROUP        1 X    GLC  0     **** GLC X 6
     5 SEP2       27 GROUP        1 Y    SEP  0     ROOT SEP Y 9
     6 LYP4       30 GROUP        1 Y    LYP  0     **** LYP Y 11
     7 ZIP7       35 GROUP        1 Y    ZIP  0     **** ZIP Y 12
     8 GLP5        3 GROUP        1 Y    GLP  0     **** GLP Y 13
     9 SEL2       26 GROUP        1 Z    SEL  0     ROOT SEL Z 16
    10 LYL4       29 GROUP        1 Z    LYL  0     **** LYL Z 18
    11 ZIL7       34 GROUP        1 Z    ZIL  0     **** ZIL Z 19
    12 GLL5        2 GROUP        1 Z    GLL  0     **** GLL Z 20
@<TRIPOS>SET

