#    Name: 2onh_F3P_2_ligand
#    Modification time : Tue Mar 25 23:02:40 2014

@<TRIPOS>MOLECULE
2onh_F3P_2_ligand
   40    39     1     0     0
SMALL
NO_CHARGES


@<TRIPOS>ATOM
      1 C1        -23.1620   57.6790  -68.9440 C.3       1 F3P1600     0.0000 
      2 C2        -23.5790   56.3490  -68.9220 C.3       1 F3P1600     0.0000 
      3 C3        -22.7240   55.4560  -69.9270 C.3       1 F3P1600     0.0000 
      4 C4        -21.2330   55.9020  -69.8780 C.3       1 F3P1600     0.0000 
      5 C5        -20.6170   55.8940  -68.4750 C.3       1 F3P1600     0.0000 
      6 C6        -21.1590   57.0470  -67.6730 C.3       1 F3P1600     0.0000 
      7 C7        -21.0720   57.2330  -66.2980 C.3       1 F3P1600     0.0000 
      8 C8        -21.7030   58.4880  -65.6920 C.3       1 F3P1600     0.0000 
      9 C9        -20.4090   56.2840  -65.4510 C.3       1 F3P1600     0.0000 
     10 C10       -22.8480   54.0840  -69.5690 C.3       1 F3P1600     0.0000 
     11 F         -24.6100   55.8640  -68.1360 F         1 F3P1600     0.0000 
     12 O1        -23.1840   55.7780  -71.2510 O.3       1 F3P1600     0.0000 
     13 PA        -24.1320   54.8500  -72.1730 P.3       1 F3P1600     0.0000 
     14 O1A       -25.6470   55.0310  -71.6190 O.co2     1 F3P1600     0.0000 
     15 O2A       -24.0310   55.1930  -73.6110 O.co2     1 F3P1600     0.0000 
     16 O3A       -23.7310   53.3100  -71.9220 O.3       1 F3P1600     0.0000 
     17 PB        -24.6380   52.0780  -72.4330 P.3       1 F3P1600     0.0000 
     18 O2B       -26.1540   52.6150  -72.4990 O.co2     1 F3P1600     0.0000 
     19 O3B       -24.1760   51.7900  -73.9610 O.co2     1 F3P1600     0.0000 
     20 O1B       -24.4750   50.8790  -71.5810 O.co2     1 F3P1600     0.0000 
     21 H         -22.5869   56.0574  -67.9119 H         1 F3P1600     0.0000 
     22 H         -21.1623   56.9162  -70.2993 H         1 F3P1600     0.0000 
     23 H         -20.6518   55.2355  -70.5330 H         1 F3P1600     0.0000 
     24 H         -19.5375   55.9790  -68.5642 H         1 F3P1600     0.0000 
     25 H         -20.8636   54.9547  -67.9878 H         1 F3P1600     0.0000 
     26 H         -22.2893   57.1477  -68.0080 H         1 F3P1600     0.0000 
     27 H         -20.7595   58.0159  -68.2223 H         1 F3P1600     0.0000 
     28 H         -22.3292   56.5444  -66.1067 H         1 F3P1600     0.0000 
     29 H         -22.2021   57.7717  -68.6793 H         1 F3P1600     0.0000 
     30 H         -23.2553   58.0825  -69.8542 H         1 F3P1600     0.0000 
     31 H         -23.6953   58.2459  -68.3161 H         1 F3P1600     0.0000 
     32 H         -21.5821   58.5225  -64.6999 H         1 F3P1600     0.0000 
     33 H         -21.3002   59.3236  -66.0656 H         1 F3P1600     0.0000 
     34 H         -22.6862   58.5319  -65.8692 H         1 F3P1600     0.0000 
     35 H         -19.4462   56.1746  -65.6982 H         1 F3P1600     0.0000 
     36 H         -20.4353   56.5614  -64.4906 H         1 F3P1600     0.0000 
     37 H         -20.8305   55.3789  -65.5063 H         1 F3P1600     0.0000 
     38 H         -22.3206   53.4920  -70.1784 H         1 F3P1600     0.0000 
     39 H         -22.5226   53.9119  -68.6392 H         1 F3P1600     0.0000 
     40 H         -23.7979   53.7741  -69.6091 H         1 F3P1600     0.0000 
@<TRIPOS>BOND
     1    2    1 1    
     2   29    1 1    
     3   30    1 1    
     4   31    1 1    
     5    3    2 1    
     6   11    2 1    
     7   21    2 1    
     8    4    3 1    
     9   10    3 1    
    10   12    3 1    
    11    5    4 1    
    12   22    4 1    
    13   23    4 1    
    14    6    5 1    
    15   24    5 1    
    16   25    5 1    
    17    7    6 1    
    18   26    6 1    
    19   27    6 1    
    20    8    7 1    
    21    9    7 1    
    22   28    7 1    
    23   32    8 1    
    24   33    8 1    
    25   34    8 1    
    26   35    9 1    
    27   36    9 1    
    28   37    9 1    
    29   38   10 1    
    30   39   10 1    
    31   40   10 1    
    32   13   12 1    
    33   14   13 ar   
    34   15   13 ar   
    35   16   13 1    
    36   17   16 1    
    37   18   17 ar   
    38   19   17 ar   
    39   20   17 ar   
@<TRIPOS>SUBSTRUCTURE
     1 F3P1600     1 GROUP   
@<TRIPOS>SET

