#    Name: 3pzc_GAP_1_INTS_M
#    Modification time : Tue Mar 25 08:45:07 2014

@<TRIPOS>MOLECULE
3pzc_GAP_1_INTS_M
   67     0    15     0     0
SMALL
NO_CHARGES


@<TRIPOS>ATOM
      1 Zn         90.6930   29.3370   11.8635 Zn        4 ZIC7        0.0000 
      2 Zn         90.7060   29.5060   10.7600 Zn       14 ZIL7        0.0000 
      3 Zn         90.6800   29.1680   12.9670 Zn        9 ZIP7        0.0000 
      4 CA         92.3290   28.8315    9.4505 C.3       5 GLC5        0.0000 
      5 CA         91.1850   30.5380    9.7980 C.3      15 GLL5        0.0000 
      6 CA         93.4730   27.1250    9.1030 C.3      10 GLP5        0.0000 
      7 CA         93.0310   30.7300    9.8490 C.3       5 GLC5        0.0000 
      8 CA         94.8770   30.9220    9.9000 C.3      10 GLP5        0.0000 
      9 CA         91.6290   32.2550   10.6660 C.3       5 GLC5        0.0000 
     10 CA         92.0730   33.9720   11.5340 C.3      10 GLP5        0.0000 
     11 NZ         88.3075   32.9440    7.0230 N.4       3 LYC4        0.0000 
     12 NZ         89.6740   33.0200    7.2430 N.4      13 LYL4        0.0000 
     13 NZ         86.9410   32.8680    6.8030 N.4       8 LYP4        0.0000 
     14 N          88.3075   32.9440    7.0230 N.am      2 SEC2        0.0000 
     15 N          89.6740   33.0200    7.2430 N.am     12 SEL2        0.0000 
     16 N          86.9410   32.8680    6.8030 N.am      7 SEP2        0.0000 
     17 N          89.3650   33.8110    8.2425 N.am      2 SEC2        0.0000 
     18 N          89.0560   34.6020    9.2420 N.am      7 SEP2        0.0000 
     19 NZ         91.6590   30.7450    5.3560 N.4       3 LYC4        0.0000 
     20 NZ         90.3520   31.8320    5.0090 N.4      13 LYL4        0.0000 
     21 NZ         93.2120   29.7340    4.4050 N.4       8 LYP4        0.0000 
     22 NZ         88.6465   32.3500    5.9060 N.4       3 LYC4        0.0000 
     23 N          91.4395   31.2045    4.3275 N.am      2 SEC2        0.0000 
     24 N          90.3520   31.8320    5.0090 N.am     12 SEL2        0.0000 
     25 N          92.5270   30.5770    3.6460 N.am      7 SEP2        0.0000 
     26 N          91.6590   30.7450    5.3560 N.am      2 SEC2        0.0000 
     27 N          92.9660   29.6580    5.7030 N.am      7 SEP2        0.0000 
     28 N          92.0045   30.2500    6.4780 N.am      2 SEC2        0.0000 
     29 N          91.0430   30.8420    7.2530 N.am     12 SEL2        0.0000 
     30 CA         94.9335   36.1390    7.9065 C.3       5 GLC5        0.0000 
     31 CA         93.2470   34.8500    7.3760 C.3      15 GLL5        0.0000 
     32 CA         96.6200   37.4280    8.4370 C.3      10 GLP5        0.0000 
     33 CA         93.4915   38.5730    6.1800 C.3       5 GLC5        0.0000 
     34 CA         93.8690   36.4290    5.7410 C.3      15 GLL5        0.0000 
     35 CA         93.1140   40.7170    6.6190 C.3      10 GLP5        0.0000 
     36 O          93.3525   38.3960    5.4370 O.2       1 ALC1        0.0000 
     37 O          94.1460   37.6210    6.4790 O.2      11 ALL1        0.0000 
     38 O          92.5590   39.1710    4.3950 O.2       6 ALP1        0.0000 
     39 CA         96.1615   33.7855    5.6280 C.3       5 GLC5        0.0000 
     40 CA         94.9910   35.4040    5.8920 C.3      15 GLL5        0.0000 
     41 CA         97.3320   32.1670    5.3640 C.3      10 GLP5        0.0000 
     42 CA         97.3565   35.2350   -0.3220 C.3       5 GLC5        0.0000 
     43 CA         96.7450   34.0820    1.4330 C.3      15 GLL5        0.0000 
     44 CA         97.9680   36.3880   -2.0770 C.3      10 GLP5        0.0000 
     45 O          95.6665   32.1145   -0.1515 O.2       1 ALC1        0.0000 
     46 O          96.5840   33.2720    0.3640 O.2      11 ALL1        0.0000 
     47 O          94.7490   30.9570   -0.6670 O.2       6 ALP1        0.0000 
     48 O          97.8820   32.7725   -0.1460 O.2       1 ALC1        0.0000 
     49 O          99.1800   32.2730   -0.6560 O.2       6 ALP1        0.0000 
     50 N          98.6550   34.9450    0.2585 N.am      2 SEC2        0.0000 
     51 N          97.7630   34.9650    1.4910 N.am     12 SEL2        0.0000 
     52 N          99.5470   34.9250   -0.9740 N.am      7 SEP2        0.0000 
     53 CA         99.7065   35.1000    1.4895 C.3       5 GLC5        0.0000 
     54 CA         97.9480   35.7690    2.5530 C.3      15 GLL5        0.0000 
     55 CA        101.4650   34.4310    0.4260 C.3      10 GLP5        0.0000 
     56 CA         99.3435   34.6670    3.4970 C.3       5 GLC5        0.0000 
     57 CA        100.7390   33.5650    4.4410 C.3      10 GLP5        0.0000 
     58 CA         96.7045   37.2470    2.8425 C.3       5 GLC5        0.0000 
     59 CA         95.4610   38.7250    3.1320 C.3      10 GLP5        0.0000 
     60 CA         95.7715   36.8285    3.4160 C.3       5 GLC5        0.0000 
     61 CA         96.0820   34.9320    3.7000 C.3      15 GLL5        0.0000 
     62 CA         93.9845   32.6320    7.8335 C.3       5 GLC5        0.0000 
     63 CA         95.1550   31.0220    8.1340 C.3      10 GLP5        0.0000 
     64 CA         92.4435   34.1070    9.5335 C.3       5 GLC5        0.0000 
     65 CA         92.3810   33.6340    7.6900 C.3      15 GLL5        0.0000 
     66 CA         95.5250   36.6722    7.1267 C.3       5 GLC5        0.0000 
     67 CA         94.9455   37.3208    4.4742 C.3       5 GLC5        0.0000 
@<TRIPOS>BOND
@<TRIPOS>SUBSTRUCTURE
     1 ALC1       36 GROUP        1 X    ALC  0     ROOT ALC X 1
     2 SEC2       14 GROUP        1 X    SEC  0     **** SEC X 2
     3 LYC4       11 GROUP        1 X    LYC  0     **** LYC X 4
     4 ZIC7        1 GROUP        1 X    ZIC  0     **** ZIC X 5
     5 GLC5        4 GROUP        1 X    GLC  0     **** GLC X 6
     6 ALP1       38 GROUP        1 Y    ALP  0     ROOT ALP Y 8
     7 SEP2       16 GROUP        1 Y    SEP  0     **** SEP Y 9
     8 LYP4       13 GROUP        1 Y    LYP  0     **** LYP Y 11
     9 ZIP7        3 GROUP        1 Y    ZIP  0     **** ZIP Y 12
    10 GLP5        6 GROUP        1 Y    GLP  0     **** GLP Y 13
    11 ALL1       37 GROUP        1 Z    ALL  0     ROOT ALL Z 15
    12 SEL2       15 GROUP        1 Z    SEL  0     **** SEL Z 16
    13 LYL4       12 GROUP        1 Z    LYL  0     **** LYL Z 18
    14 ZIL7        2 GROUP        1 Z    ZIL  0     **** ZIL Z 19
    15 GLL5        5 GROUP        1 Z    GLL  0     **** GLL Z 20
@<TRIPOS>SET

