#    Name: 3pzc_GAP_1_ligand
#    Modification time : Tue Mar 25 08:45:07 2014

@<TRIPOS>MOLECULE
3pzc_GAP_1_ligand
   43    45     1     0     0
SMALL
NO_CHARGES


@<TRIPOS>ATOM
      1 N          90.7060   29.5060   10.7600 N.3       1 GAP1001     0.0000 
      2 CA         91.1850   30.5380    9.7980 C.3       1 GAP1001     0.0000 
      3 C          90.4100   30.4530    8.5040 C.2       1 GAP1001     0.0000 
      4 O          89.2600   30.0260    8.4920 O.2       1 GAP1001     0.0000 
      5 PA         90.6480   32.1790    6.4470 P.3       1 GAP1001     0.0000 
      6 O1A        89.6740   33.0200    7.2430 O.co2     1 GAP1001     0.0000 
      7 O2A        90.3520   31.8320    5.0090 O.co2     1 GAP1001     0.0000 
      8 O3A        91.0430   30.8420    7.2530 O.3       1 GAP1001     0.0000 
      9 C5'        92.3810   33.6340    7.6900 C.3       1 GAP1001     0.0000 
     10 O5'        92.0360   32.9870    6.4680 O.3       1 GAP1001     0.0000 
     11 C4'        93.2470   34.8500    7.3760 C.3       1 GAP1001     0.0000 
     12 O4'        94.5440   34.4710    6.8790 O.3       1 GAP1001     0.0000 
     13 C3'        92.6440   35.7620    6.3210 C.3       1 GAP1001     0.0000 
     14 O3'        91.7960   36.7420    6.9240 O.3       1 GAP1001     0.0000 
     15 C2'        93.8690   36.4290    5.7410 C.3       1 GAP1001     0.0000 
     16 O2'        94.1460   37.6210    6.4790 O.3       1 GAP1001     0.0000 
     17 C1'        94.9910   35.4040    5.8920 C.3       1 GAP1001     0.0000 
     18 N9         95.1300   34.6970    4.5980 N.pl3     1 GAP1001     0.0000 
     19 C8         94.3140   33.7290    4.1330 C.2       1 GAP1001     0.0000 
     20 N7         94.7240   33.3070    2.9130 N.2       1 GAP1001     0.0000 
     21 C5         95.8160   34.0200    2.5800 C.ar      1 GAP1001     0.0000 
     22 C6         96.7450   34.0820    1.4330 C.ar      1 GAP1001     0.0000 
     23 N6         96.5840   33.2720    0.3640 N.pl3     1 GAP1001     0.0000 
     24 N1         97.7630   34.9650    1.4910 N.ar      1 GAP1001     0.0000 
     25 C2         97.9480   35.7690    2.5530 C.ar      1 GAP1001     0.0000 
     26 N3         97.1410   35.7730    3.6290 N.ar      1 GAP1001     0.0000 
     27 C4         96.0820   34.9320    3.7000 C.ar      1 GAP1001     0.0000 
     28 H          92.2476   30.3883    9.5891 H         1 GAP1001     0.0000 
     29 H          91.0570   31.5354   10.2268 H         1 GAP1001     0.0000 
     30 H          92.9520   32.9779    8.3519 H         1 GAP1001     0.0000 
     31 H          91.4974   33.9826    8.2307 H         1 GAP1001     0.0000 
     32 H          93.3660   35.4394    8.2863 H         1 GAP1001     0.0000 
     33 H          92.1862   35.1804    5.5843 H         1 GAP1001     0.0000 
     34 H          93.7035   36.6040    4.7088 H         1 GAP1001     0.0000 
     35 H          95.8716   35.8923    6.1609 H         1 GAP1001     0.0000 
     36 H          93.5338   33.3783    4.6082 H         1 GAP1001     0.0000 
     37 H          97.4222   32.9774   -0.0950 H         1 GAP1001     0.0000 
     38 H          95.6409   33.0389    0.1266 H         1 GAP1001     0.0000 
     39 H          98.7784   36.4389    2.5415 H         1 GAP1001     0.0000 
     40 H          90.8211   28.5804   10.3995 H         1 GAP1001     0.0000 
     41 H          89.7355   29.6190   10.9732 H         1 GAP1001     0.0000 
     42 H          92.3828   37.5390    7.0672 H         1 GAP1001     0.0000 
     43 H          93.6940   38.3524    5.9683 H         1 GAP1001     0.0000 
@<TRIPOS>BOND
     1    2    1 1    
     2   40    1 1    
     3   41    1 1    
     4    3    2 1    
     5   28    2 1    
     6   29    2 1    
     7    4    3 2    
     8    8    3 1    
     9    6    5 ar   
    10    7    5 ar   
    11    8    5 1    
    12   10    5 1    
    13   10    9 1    
    14   11    9 1    
    15   30    9 1    
    16   31    9 1    
    17   12   11 1    
    18   13   11 1    
    19   32   11 1    
    20   17   12 1    
    21   14   13 1    
    22   15   13 1    
    23   33   13 1    
    24   42   14 1    
    25   16   15 1    
    26   17   15 1    
    27   34   15 1    
    28   43   16 1    
    29   18   17 1    
    30   35   17 1    
    31   19   18 1    
    32   27   18 1    
    33   20   19 2    
    34   36   19 1    
    35   21   20 1    
    36   22   21 ar   
    37   27   21 ar   
    38   23   22 1    
    39   24   22 ar   
    40   37   23 1    
    41   38   23 1    
    42   25   24 ar   
    43   26   25 ar   
    44   39   25 1    
    45   27   26 ar   
@<TRIPOS>SUBSTRUCTURE
     1 GAP1001     1 GROUP   
@<TRIPOS>SET

