#    Name: 1j0b_5PA_5_INTS_M
#    Modification time : Tue Mar 25 08:21:34 2014

@<TRIPOS>MOLECULE
1j0b_5PA_5_INTS_M
   75     0     9     0     0
SMALL
NO_CHARGES


@<TRIPOS>ATOM
      1 CA        103.6910  110.4180   26.1520 C.3       3 GLC5        0.0000 
      2 CA        102.8940  110.2470   27.6620 C.3       9 GLL5        0.0000 
      3 CA        104.4880  110.5890   24.6420 C.3       6 GLP5        0.0000 
      4 NZ        102.2620  112.8310   30.6800 N.4       2 LYC4        0.0000 
      5 NZ        103.1540  114.0690   30.2180 N.4       8 LYL4        0.0000 
      6 NZ        101.3700  111.5930   31.1420 N.4       5 LYP4        0.0000 
      7 N         102.2620  112.8310   30.6800 N.am      1 SEC2        0.0000 
      8 N         103.1540  114.0690   30.2180 N.am      7 SEL2        0.0000 
      9 N         101.3700  111.5930   31.1420 N.am      4 SEP2        0.0000 
     10 N         103.3405  114.9895   29.1800 N.am      1 SEC2        0.0000 
     11 N         103.5270  115.9100   28.1420 N.am      4 SEP2        0.0000 
     12 N         102.5645  114.9880   30.5700 N.am      1 SEC2        0.0000 
     13 N         101.9750  115.9070   30.9220 N.am      4 SEP2        0.0000 
     14 NZ        103.0660  112.1720   31.4005 N.4       2 LYC4        0.0000 
     15 NZ        104.7620  112.7510   31.6590 N.4       8 LYL4        0.0000 
     16 NZ        103.9295  112.0680   32.9710 N.4       2 LYC4        0.0000 
     17 NZ        103.0970  111.3850   34.2830 N.4       5 LYP4        0.0000 
     18 N         103.9295  112.0680   32.9710 N.am      1 SEC2        0.0000 
     19 N         104.7620  112.7510   31.6590 N.am      7 SEL2        0.0000 
     20 N         103.0970  111.3850   34.2830 N.am      4 SEP2        0.0000 
     21 N         105.2150  113.5955   32.8895 N.am      1 SEC2        0.0000 
     22 N         105.6680  114.4400   34.1200 N.am      4 SEP2        0.0000 
     23 N         105.3255  112.1840   32.5870 N.am      1 SEC2        0.0000 
     24 N         105.8890  111.6170   33.5150 N.am      4 SEP2        0.0000 
     25 N         105.9885  114.5755   28.5530 N.am      1 SEC2        0.0000 
     26 N         105.5630  114.0450   29.6210 N.am      7 SEL2        0.0000 
     27 N         106.4140  115.1060   27.4850 N.am      4 SEP2        0.0000 
     28 N         105.2050  115.4980   29.8535 N.am      1 SEC2        0.0000 
     29 N         104.8470  116.9510   30.0860 N.am      4 SEP2        0.0000 
     30 N         102.7610  111.7715   30.2560 N.am      1 SEC2        0.0000 
     31 N         104.1520  111.9500   29.3700 N.am      7 SEL2        0.0000 
     32 CA        105.4830  110.6045   26.9200 C.3       3 GLC5        0.0000 
     33 CA        105.2670  111.2530   29.0250 C.3       9 GLL5        0.0000 
     34 CA        105.6990  109.9560   24.8150 C.3       6 GLP5        0.0000 
     35 N         107.2020  107.5430   28.7065 N.am      1 SEC2        0.0000 
     36 N         106.3220  107.9920   27.9830 N.am      7 SEL2        0.0000 
     37 N         108.0820  107.0940   29.4300 N.am      4 SEP2        0.0000 
     38 CA        108.2905  109.8925   27.7600 C.3       3 GLC5        0.0000 
     39 CA        106.3480  109.2720   28.3150 C.3       9 GLL5        0.0000 
     40 CA        110.2330  110.5130   27.2050 C.3       6 GLP5        0.0000 
     41 CA        106.7735  108.6080   26.4560 C.3       3 GLC5        0.0000 
     42 CA        107.1990  107.9440   24.5970 C.3       6 GLP5        0.0000 
     43 CA        106.9380  108.0635   29.5210 C.3       3 GLC5        0.0000 
     44 CA        107.5280  106.8550   30.7270 C.3       6 GLP5        0.0000 
     45 CA        105.8545  104.2025   28.1305 C.3       3 GLC5        0.0000 
     46 CA        105.2000  105.9050   27.2240 C.3       9 GLL5        0.0000 
     47 CA        106.5090  102.5000   29.0370 C.3       6 GLP5        0.0000 
     48 CA        105.0065  104.3310   26.4405 C.3       3 GLC5        0.0000 
     49 CA        104.8130  102.7570   25.6570 C.3       6 GLP5        0.0000 
     50 N         102.4780  106.3965   26.5395 N.am      1 SEC2        0.0000 
     51 N         102.8300  107.4510   27.3110 N.am      7 SEL2        0.0000 
     52 N         102.1260  105.3420   25.7680 N.am      4 SEP2        0.0000 
     53 N          99.1130  107.2725   25.8035 N.am      1 SEC2        0.0000 
     54 N          99.6910  108.5260   26.0830 N.am      7 SEL2        0.0000 
     55 N          98.5350  106.0190   25.5240 N.am      4 SEP2        0.0000 
     56 N          98.8820  107.6550   27.0745 N.am      1 SEC2        0.0000 
     57 N          98.0730  106.7840   28.0660 N.am      4 SEP2        0.0000 
     58 N          97.7195  109.5955   25.6350 N.am      1 SEC2        0.0000 
     59 N          98.7470  110.4670   25.5750 N.am      7 SEL2        0.0000 
     60 N          96.6920  108.7240   25.6950 N.am      4 SEP2        0.0000 
     61 CA        102.3278  109.9888   29.3592 C.3       3 GLC5        0.0000 
     62 CA        101.2180  110.1340   30.8950 C.3       6 GLP5        0.0000 
     63 CA        106.3588  106.7470   29.0835 C.3       3 GLC5        0.0000 
     64 CA        105.1790  107.3730   27.6560 C.3       9 GLL5        0.0000 
     65 CA        105.8926  107.6538   26.0710 C.3       3 GLC5        0.0000 
     66 CA         99.0593  109.9202   28.3537 C.3       3 GLC5        0.0000 
     67 CA        100.0770  111.3240   28.1230 C.3       9 GLL5        0.0000 
     68 CA         97.7450  108.9340   29.1530 C.3       6 GLP5        0.0000 
     69 CA        102.0747  110.5775   25.5187 C.3       3 GLC5        0.0000 
     70 CA        100.6700  110.4890   26.9860 C.3       9 GLL5        0.0000 
     71 CA        103.4420  109.9010   24.0720 C.3       6 GLP5        0.0000 
     72 CA         99.5065  112.3782   28.8910 C.3       3 GLC5        0.0000 
     73 CA        100.7450  112.0190   26.9450 C.3       9 GLL5        0.0000 
     74 CA         98.6020  113.0850   30.2480 C.3       6 GLP5        0.0000 
     75 CA        100.8886  110.7984   29.0724 C.3       3 GLC5        0.0000 
@<TRIPOS>BOND
@<TRIPOS>SUBSTRUCTURE
     1 SEC2        7 GROUP        1 X    SEC  0     ROOT SEC X 2
     2 LYC4        4 GROUP        1 X    LYC  0     **** LYC X 4
     3 GLC5        1 GROUP        1 X    GLC  0     **** GLC X 6
     4 SEP2        9 GROUP        1 Y    SEP  0     ROOT SEP Y 9
     5 LYP4        6 GROUP        1 Y    LYP  0     **** LYP Y 11
     6 GLP5        3 GROUP        1 Y    GLP  0     **** GLP Y 13
     7 SEL2        8 GROUP        1 Z    SEL  0     ROOT SEL Z 16
     8 LYL4        5 GROUP        1 Z    LYL  0     **** LYL Z 18
     9 GLL5        2 GROUP        1 Z    GLL  0     **** GLL Z 20
@<TRIPOS>SET

