#    Name: 1j0b_5PA_5_ligand
#    Modification time : Tue Mar 25 08:21:34 2014

@<TRIPOS>MOLECULE
1j0b_5PA_5_ligand
   35    36     1     0     0
SMALL
NO_CHARGES


@<TRIPOS>ATOM
      1 C4        103.9810  109.4400   27.9850 C.ar      1 5PA1051     0.0000 
      2 C4A       102.8940  110.2470   27.6620 C.3       1 5PA1051     0.0000 
      3 P         104.5210  113.2280   30.2790 P.3       1 5PA1051     0.0000 
      4 O1P       103.1540  114.0690   30.2180 O.co2     1 5PA1051     0.0000 
      5 O2P       104.7620  112.7510   31.6590 O.co2     1 5PA1051     0.0000 
      6 O3P       105.5630  114.0450   29.6210 O.co2     1 5PA1051     0.0000 
      7 O4P       104.1520  111.9500   29.3700 O.3       1 5PA1051     0.0000 
      8 C5A       105.2670  111.2530   29.0250 C.3       1 5PA1051     0.0000 
      9 C5        105.1870  110.0340   28.3550 C.ar      1 5PA1051     0.0000 
     10 N1        106.3220  107.9920   27.9830 N.ar      1 5PA1051     0.0000 
     11 C6        106.3480  109.2720   28.3150 C.ar      1 5PA1051     0.0000 
     12 C2        105.1790  107.3730   27.6560 C.ar      1 5PA1051     0.0000 
     13 C2A       105.2000  105.9050   27.2240 C.3       1 5PA1051     0.0000 
     14 C3        103.9830  108.0880   27.6500 C.ar      1 5PA1051     0.0000 
     15 O3        102.8300  107.4510   27.3110 O.3       1 5PA1051     0.0000 
     16 N         101.7220  109.7420   27.3170 N.4       1 5PA1051     0.0000 
     17 C8        100.6700  110.4890   26.9860 C.3       1 5PA1051     0.0000 
     18 C7         99.6200  109.7720   26.1390 C.2       1 5PA1051     0.0000 
     19 O7         99.6910  108.5260   26.0830 O.co2     1 5PA1051     0.0000 
     20 O8         98.7470  110.4670   25.5750 O.co2     1 5PA1051     0.0000 
     21 C9        100.0770  111.3240   28.1230 C.3       1 5PA1051     0.0000 
     22 C10       100.7450  112.0190   26.9450 C.3       1 5PA1051     0.0000 
     23 H         103.2575  111.0097   26.8437 H         1 5PA1051     0.0000 
     24 H         102.7555  111.0138   28.5431 H         1 5PA1051     0.0000 
     25 H         105.9338  111.0994   29.9733 H         1 5PA1051     0.0000 
     26 H         105.9847  111.9500   28.4196 H         1 5PA1051     0.0000 
     27 H         107.2511  109.7494   28.5585 H         1 5PA1051     0.0000 
     28 H         100.6957  111.3095   28.8383 H         1 5PA1051     0.0000 
     29 H          99.1416  111.3629   27.9885 H         1 5PA1051     0.0000 
     30 H         100.0633  112.3195   26.3631 H         1 5PA1051     0.0000 
     31 H         101.6173  112.2661   27.2128 H         1 5PA1051     0.0000 
     32 H         105.7595  105.7663   26.4069 H         1 5PA1051     0.0000 
     33 H         105.5728  105.3129   27.9385 H         1 5PA1051     0.0000 
     34 H         104.2830  105.5671   27.0121 H         1 5PA1051     0.0000 
     35 H         102.1780  107.6972   28.0281 H         1 5PA1051     0.0000 
@<TRIPOS>BOND
     1    2    1 1    
     2    9    1 ar   
     3   14    1 ar   
     4   16    2 1    
     5   23    2 1    
     6   24    2 1    
     7    4    3 ar   
     8    5    3 ar   
     9    6    3 ar   
    10    7    3 1    
    11    8    7 1    
    12    9    8 1    
    13   25    8 1    
    14   26    8 1    
    15   11    9 ar   
    16   11   10 ar   
    17   12   10 ar   
    18   27   11 1    
    19   13   12 1    
    20   14   12 ar   
    21   32   13 1    
    22   33   13 1    
    23   34   13 1    
    24   15   14 1    
    25   35   15 1    
    26   17   16 1    
    27   18   17 1    
    28   21   17 1    
    29   22   17 1    
    30   19   18 ar   
    31   20   18 ar   
    32   22   21 1    
    33   28   21 1    
    34   29   21 1    
    35   30   22 1    
    36   31   22 1    
@<TRIPOS>SUBSTRUCTURE
     1 5PA1051     1 GROUP   
@<TRIPOS>SET

