#    Name: 3djk_G55_1_INTS_M
#    Modification time : Mon Mar 24 23:31:18 2014

@<TRIPOS>MOLECULE
3djk_G55_1_INTS_M
   98     0     9     0     0
SMALL
NO_CHARGES


@<TRIPOS>ATOM
      1 CA         21.0005   29.9080   14.1015 C.3       3 GLC5        0.0000 
      2 CA         20.8690   27.8900   15.0590 C.3       9 GLL5        0.0000 
      3 CA         21.1320   31.9260   13.1440 C.3       6 GLP5        0.0000 
      4 CA         21.4075   27.0260   13.0875 C.3       3 GLC5        0.0000 
      5 CA         21.9460   26.1620   11.1160 C.3       6 GLP5        0.0000 
      6 N          20.6815   30.4895   14.9745 N.am      2 SEC2        0.0000 
      7 N          21.4930   29.0410   14.7630 N.am      8 SEL2        0.0000 
      8 N          19.8700   31.9380   15.1860 N.am      5 SEP2        0.0000 
      9 CA         22.2240   30.4430   16.4340 C.3       3 GLC5        0.0000 
     10 CA         22.8770   29.1030   15.0880 C.3       9 GLL5        0.0000 
     11 CA         21.5710   31.7830   17.7800 C.3       6 GLP5        0.0000 
     12 CA         22.0045   30.5145   14.1160 C.3       3 GLC5        0.0000 
     13 CA         23.7415   28.2305   13.5560 C.3       3 GLC5        0.0000 
     14 CA         24.6060   27.3580   12.0240 C.3       6 GLP5        0.0000 
     15 CA         22.8060   26.3345   13.9530 C.3       3 GLC5        0.0000 
     16 CA         21.4610   26.7260   15.5410 C.3       9 GLL5        0.0000 
     17 CA         24.1510   25.9430   12.3650 C.3       6 GLP5        0.0000 
     18 CA         17.0080   26.1160   13.7520 C.3       3 GLC5        0.0000 
     19 CA         18.7550   26.7060   14.9390 C.3       9 GLL5        0.0000 
     20 CA         15.2610   25.5260   12.5650 C.3       6 GLP5        0.0000 
     21 CA         20.0585   21.8750   18.5165 C.3       3 GLC5        0.0000 
     22 CA         18.4700   22.6220   19.7760 C.3       9 GLL5        0.0000 
     23 CA         21.6470   21.1280   17.2570 C.3       6 GLP5        0.0000 
     24 CA         20.3975   22.2145   20.5065 C.3       3 GLC5        0.0000 
     25 CA         22.3250   21.8070   21.2370 C.3       6 GLP5        0.0000 
     26 CA         16.9940   21.8410   21.2130 C.3       3 GLC5        0.0000 
     27 CA         15.5180   21.0600   22.6500 C.3       6 GLP5        0.0000 
     28 CA         18.7970   25.9785   22.2045 C.3       3 GLC5        0.0000 
     29 CA         19.4190   24.6750   20.8820 C.3       9 GLL5        0.0000 
     30 CA         18.1750   27.2820   23.5270 C.3       6 GLP5        0.0000 
     31 CA         20.8720   23.2410   21.0595 C.3       3 GLC5        0.0000 
     32 CA         20.0200   24.5650   22.7155 C.3       3 GLC5        0.0000 
     33 CA         20.6210   24.4550   24.5490 C.3       6 GLP5        0.0000 
     34 CA         16.5040   27.2120   16.9370 C.3       3 GLC5        0.0000 
     35 CA         16.4370   25.1960   17.5830 C.3       9 GLL5        0.0000 
     36 CA         16.5710   29.2280   16.2910 C.3       6 GLP5        0.0000 
     37 N          14.3645   24.9390   19.8070 N.am      2 SEC2        0.0000 
     38 N          14.1730   25.1000   18.4290 N.am      8 SEL2        0.0000 
     39 N          14.5560   24.7780   21.1850 N.am      5 SEP2        0.0000 
     40 O          13.6720   26.4330   18.5065 O.2       1 ALC1        0.0000 
     41 O          14.1730   25.1000   18.4290 O.2       7 ALL1        0.0000 
     42 O          13.1710   27.7660   18.5840 O.2       4 ALP1        0.0000 
     43 O          13.9880   25.9670   17.5625 O.2       1 ALC1        0.0000 
     44 O          13.8030   26.8340   16.6960 O.2       4 ALP1        0.0000 
     45 O          12.5575   22.7435   17.8460 O.2       1 ALC1        0.0000 
     46 O          14.0550   22.1930   17.9210 O.2       7 ALL1        0.0000 
     47 O          11.0600   23.2940   17.7710 O.2       4 ALP1        0.0000 
     48 CA         15.5565   18.6135   20.1285 C.3       3 GLC5        0.0000 
     49 CA         13.7670   18.9940   19.3780 C.3       9 GLL5        0.0000 
     50 CA         17.3460   18.2330   20.8790 C.3       6 GLP5        0.0000 
     51 CA         11.2785   17.7855   21.8500 C.3       3 GLC5        0.0000 
     52 CA         12.7940   18.5910   20.4600 C.3       9 GLL5        0.0000 
     53 CA          9.7630   16.9800   23.2400 C.3       6 GLP5        0.0000 
     54 CA         13.6965   17.9280   22.1265 C.3       3 GLC5        0.0000 
     55 CA         14.5990   17.2650   23.7930 C.3       6 GLP5        0.0000 
     56 CA         13.9390   16.6835   20.6895 C.3       3 GLC5        0.0000 
     57 CA         15.0840   14.7760   20.9190 C.3       6 GLP5        0.0000 
     58 N          10.2715   18.9245   21.2630 N.am      2 SEC2        0.0000 
     59 N          11.4400   18.6570   20.0870 N.am      8 SEL2        0.0000 
     60 N           9.1030   19.1920   22.4390 N.am      5 SEP2        0.0000 
     61 CA          9.0845   18.3600   19.6555 C.3       3 GLC5        0.0000 
     62 CA         10.8480   17.5600   19.4500 C.3       9 GLL5        0.0000 
     63 CA          7.3210   19.1600   19.8610 C.3       6 GLP5        0.0000 
     64 CA         10.3055   17.2700   21.3450 C.3       3 GLC5        0.0000 
     65 CA         11.5945   15.5330   19.7715 C.3       3 GLC5        0.0000 
     66 CA         12.3410   13.5060   20.0930 C.3       6 GLP5        0.0000 
     67 CA         13.5700   15.9725   18.6260 C.3       3 GLC5        0.0000 
     68 CA         13.6570   18.1480   18.1200 C.3       9 GLL5        0.0000 
     69 CA         13.4830   13.7970   19.1320 C.3       6 GLP5        0.0000 
     70 CA         15.0910   18.0120   16.6800 C.3       3 GLC5        0.0000 
     71 CA         16.5250   17.8760   15.2400 C.3       6 GLP5        0.0000 
     72 CA         11.3130   23.4970   14.8745 C.3       3 GLC5        0.0000 
     73 CA         12.6170   21.7860   15.0450 C.3       9 GLL5        0.0000 
     74 CA         10.0090   25.2080   14.7040 C.3       6 GLP5        0.0000 
     75 CA         19.1953   24.9270   13.6055 C.3       3 GLC5        0.0000 
     76 CA         19.3400   23.6870   11.9720 C.3       6 GLP5        0.0000 
     77 CA         17.8530   28.2440   15.5452 C.3       3 GLC5        0.0000 
     78 CA         18.9810   27.6730   12.8712 C.3       3 GLC5        0.0000 
     79 CA         18.8270   28.0860   10.9430 C.3       6 GLP5        0.0000 
     80 CA         17.9550   23.8498   22.2195 C.3       3 GLC5        0.0000 
     81 CA         18.3610   24.1240   19.9320 C.3       9 GLL5        0.0000 
     82 CA         17.0200   23.3000   24.0320 C.3       6 GLP5        0.0000 
     83 CA         12.5983   20.5598   20.7435 C.3       3 GLC5        0.0000 
     84 CA         11.9160   22.3270   21.5680 C.3       6 GLP5        0.0000 
     85 CA         14.3993   19.9262   21.2845 C.3       3 GLC5        0.0000 
     86 CA         12.3630   22.1298   13.1242 C.3       3 GLC5        0.0000 
     87 CA         12.2120   23.0580   11.5500 C.3       6 GLP5        0.0000 
     88 CA         14.4705   19.8293   11.8287 C.3       3 GLC5        0.0000 
     89 CA         13.4040   20.0470   13.5560 C.3       9 GLL5        0.0000 
     90 CA         14.9230   19.2860   10.1450 C.3       6 GLP5        0.0000 
     91 CA         13.1150   21.7153   12.5312 C.3       3 GLC5        0.0000 
     92 CA         14.6320   20.6980   13.4690 C.3       9 GLL5        0.0000 
     93 CA         16.5710   20.6595   13.3360 C.3       3 GLC5        0.0000 
     94 CA         18.3930   20.0390   12.8240 C.3       6 GLP5        0.0000 
     95 CA         13.2897   22.5945   13.0930 C.3       3 GLC5        0.0000 
     96 CA         14.8660   21.8620   14.2270 C.3       9 GLL5        0.0000 
     97 CA         14.8501   23.9735   13.7145 C.3       3 GLC5        0.0000 
     98 CA         15.4835   19.4966   14.5549 C.3       3 GLC5        0.0000 
@<TRIPOS>BOND
@<TRIPOS>SUBSTRUCTURE
     1 ALC1       40 GROUP        1 X    ALC  0     ROOT ALC X 1
     2 SEC2        6 GROUP        1 X    SEC  0     **** SEC X 2
     3 GLC5        1 GROUP        1 X    GLC  0     **** GLC X 6
     4 ALP1       42 GROUP        1 Y    ALP  0     ROOT ALP Y 8
     5 SEP2        8 GROUP        1 Y    SEP  0     **** SEP Y 9
     6 GLP5        3 GROUP        1 Y    GLP  0     **** GLP Y 13
     7 ALL1       41 GROUP        1 Z    ALL  0     ROOT ALL Z 15
     8 SEL2        7 GROUP        1 Z    SEL  0     **** SEL Z 16
     9 GLL5        2 GROUP        1 Z    GLL  0     **** GLL Z 20
@<TRIPOS>SET

