#    Name: 3djk_G55_1_ligand
#    Modification time : Mon Mar 24 23:31:18 2014

@<TRIPOS>MOLECULE
3djk_G55_1_ligand
   76    78     1     0     0
SMALL
NO_CHARGES


@<TRIPOS>ATOM
      1 C2         20.8690   27.8900   15.0590 C.ar      1 G55401      0.0000 
      2 O39        21.4930   29.0410   14.7630 O.3       1 G55401      0.0000 
      3 C40        22.8770   29.1030   15.0880 C.3       1 G55401      0.0000 
      4 C3         21.4610   26.7260   15.5410 C.ar      1 G55401      0.0000 
      5 C4         20.7360   25.5970   15.8110 C.ar      1 G55401      0.0000 
      6 C5         19.3460   25.6280   15.5390 C.ar      1 G55401      0.0000 
      7 C6         18.7550   26.7060   14.9390 C.ar      1 G55401      0.0000 
      8 C7         19.5150   27.8140   14.6600 C.ar      1 G55401      0.0000 
      9 S8         18.3810   24.2220   16.0380 S.o2      1 G55401      0.0000 
     10 O9         17.3000   24.1190   15.0750 O.2       1 G55401      0.0000 
     11 O10        19.2460   23.1130   16.2290 O.2       1 G55401      0.0000 
     12 N11        17.7320   24.5400   17.5050 N.pl3     1 G55401      0.0000 
     13 C12        18.6610   24.8190   18.5720 C.3       1 G55401      0.0000 
     14 C13        18.3610   24.1240   19.9320 C.3       1 G55401      0.0000 
     15 C14        18.4700   22.6220   19.7760 C.3       1 G55401      0.0000 
     16 C15        19.4190   24.6750   20.8820 C.3       1 G55401      0.0000 
     17 C16        16.4370   25.1960   17.5830 C.3       1 G55401      0.0000 
     18 C17        15.3440   24.2910   18.1310 C.3       1 G55401      0.0000 
     19 O18        14.1730   25.1000   18.4290 O.3       1 G55401      0.0000 
     20 C19        14.9280   23.1250   17.1930 C.3       1 G55401      0.0000 
     21 N20        14.0550   22.1930   17.9210 N.am      1 G55401      0.0000 
     22 C21        14.4400   21.0110   18.3640 C.2       1 G55401      0.0000 
     23 O22        15.5330   20.5830   18.2690 O.2       1 G55401      0.0000 
     24 O23        13.4510   20.3390   19.0020 O.3       1 G55401      0.0000 
     25 C24        13.7670   18.9940   19.3780 C.3       1 G55401      0.0000 
     26 C25        12.7940   18.5910   20.4600 C.3       1 G55401      0.0000 
     27 O26        11.4400   18.6570   20.0870 O.3       1 G55401      0.0000 
     28 C27        10.8480   17.5600   19.4500 C.3       1 G55401      0.0000 
     29 O28        11.6590   16.9190   18.5120 O.3       1 G55401      0.0000 
     30 C29        12.2610   17.8570   17.6120 C.3       1 G55401      0.0000 
     31 C30        13.6570   18.1480   18.1200 C.3       1 G55401      0.0000 
     32 C32        14.1560   23.5600   15.9570 C.3       1 G55401      0.0000 
     33 C33        12.6170   21.7860   15.0450 C.ar      1 G55401      0.0000 
     34 C34        12.4110   20.6170   14.3520 C.ar      1 G55401      0.0000 
     35 C35        13.4040   20.0470   13.5560 C.ar      1 G55401      0.0000 
     36 C36        14.6320   20.6980   13.4690 C.ar      1 G55401      0.0000 
     37 C37        14.8660   21.8620   14.2270 C.ar      1 G55401      0.0000 
     38 C38        13.8690   22.4000   15.0450 C.ar      1 G55401      0.0000 
     39 H          22.4961   26.7241   15.6990 H         1 G55401      0.0000 
     40 H          21.1562   24.7593   16.1911 H         1 G55401      0.0000 
     41 H          17.7546   26.6882   14.6994 H         1 G55401      0.0000 
     42 H          19.1066   28.6170   14.1497 H         1 G55401      0.0000 
     43 H          18.7182   25.9161   18.7793 H         1 G55401      0.0000 
     44 H          19.7016   24.5269   18.2863 H         1 G55401      0.0000 
     45 H          17.4041   24.4183   20.2507 H         1 G55401      0.0000 
     46 H          16.1179   25.5507   16.5837 H         1 G55401      0.0000 
     47 H          16.4924   26.0943   18.2282 H         1 G55401      0.0000 
     48 H          15.7065   23.8439   19.0647 H         1 G55401      0.0000 
     49 H          15.8190   22.6004   16.8791 H         1 G55401      0.0000 
     50 H          13.0689   22.5474   18.0684 H         1 G55401      0.0000 
     51 H          14.7669   18.9377   19.7538 H         1 G55401      0.0000 
     52 H          13.0034   19.2370   21.3528 H         1 G55401      0.0000 
     53 H          13.0759   17.5574   20.7925 H         1 G55401      0.0000 
     54 H           9.8769   17.8832   18.9599 H         1 G55401      0.0000 
     55 H          10.4971   16.8122   20.2280 H         1 G55401      0.0000 
     56 H          11.7067   18.7929   17.5767 H         1 G55401      0.0000 
     57 H          12.3398   17.4536   16.6043 H         1 G55401      0.0000 
     58 H          14.1838   17.1784   18.2975 H         1 G55401      0.0000 
     59 H          14.2388   18.6459   17.3059 H         1 G55401      0.0000 
     60 H          14.7408   24.3152   15.4197 H         1 G55401      0.0000 
     61 H          13.2140   24.0238   16.2708 H         1 G55401      0.0000 
     62 H          11.8418   22.2212   15.5741 H         1 G55401      0.0000 
     63 H          11.4873   20.1353   14.4179 H         1 G55401      0.0000 
     64 H          13.2355   19.1814   13.0541 H         1 G55401      0.0000 
     65 H          15.3692   20.3363   12.8563 H         1 G55401      0.0000 
     66 H          15.7881   22.3202   14.1741 H         1 G55401      0.0000 
     67 H          23.4032   28.4017   14.6070 H         1 G55401      0.0000 
     68 H          23.2763   29.9871   14.8452 H         1 G55401      0.0000 
     69 H          23.0352   28.9687   16.0662 H         1 G55401      0.0000 
     70 H          19.3839   22.3448   19.4796 H         1 G55401      0.0000 
     71 H          18.2831   22.1449   20.6347 H         1 G55401      0.0000 
     72 H          17.8232   22.2710   19.0989 H         1 G55401      0.0000 
     73 H          20.3450   24.4614   20.5707 H         1 G55401      0.0000 
     74 H          19.3603   25.6697   20.9666 H         1 G55401      0.0000 
     75 H          19.3247   24.2965   21.8028 H         1 G55401      0.0000 
     76 H          14.3614   25.9903   18.0144 H         1 G55401      0.0000 
@<TRIPOS>BOND
     1    2    1 1    
     2    4    1 ar   
     3    8    1 ar   
     4    3    2 1    
     5   67    3 1    
     6   68    3 1    
     7   69    3 1    
     8    5    4 ar   
     9   39    4 1    
    10    6    5 ar   
    11   40    5 1    
    12    7    6 ar   
    13    9    6 1    
    14    8    7 ar   
    15   41    7 1    
    16   42    8 1    
    17   10    9 2    
    18   11    9 2    
    19   12    9 1    
    20   13   12 1    
    21   17   12 1    
    22   14   13 1    
    23   43   13 1    
    24   44   13 1    
    25   15   14 1    
    26   16   14 1    
    27   45   14 1    
    28   70   15 1    
    29   71   15 1    
    30   72   15 1    
    31   73   16 1    
    32   74   16 1    
    33   75   16 1    
    34   18   17 1    
    35   46   17 1    
    36   47   17 1    
    37   19   18 1    
    38   20   18 1    
    39   48   18 1    
    40   76   19 1    
    41   21   20 1    
    42   32   20 1    
    43   49   20 1    
    44   22   21 am   
    45   50   21 1    
    46   23   22 2    
    47   24   22 1    
    48   25   24 1    
    49   26   25 1    
    50   31   25 1    
    51   51   25 1    
    52   27   26 1    
    53   52   26 1    
    54   53   26 1    
    55   28   27 1    
    56   29   28 1    
    57   54   28 1    
    58   55   28 1    
    59   30   29 1    
    60   31   30 1    
    61   56   30 1    
    62   57   30 1    
    63   58   31 1    
    64   59   31 1    
    65   38   32 1    
    66   60   32 1    
    67   61   32 1    
    68   34   33 ar   
    69   38   33 ar   
    70   62   33 1    
    71   35   34 ar   
    72   63   34 1    
    73   36   35 ar   
    74   64   35 1    
    75   37   36 ar   
    76   65   36 1    
    77   38   37 ar   
    78   66   37 1    
@<TRIPOS>SUBSTRUCTURE
     1 G55401      1 GROUP   
@<TRIPOS>SET

