#    Name: 2fky_N2T_2_INTS_M
#    Modification time : Tue Mar 25 12:51:47 2014

@<TRIPOS>MOLECULE
2fky_N2T_2_INTS_M
   67     0     3     0     0
SMALL
NO_CHARGES


@<TRIPOS>ATOM
      1 CA         35.1165   13.0030   52.8240 C.3       1 GLC5        0.0000 
      2 CA         36.0290   14.6190   52.7550 C.3       3 GLL5        0.0000 
      3 CA         34.2040   11.3870   52.8930 C.3       2 GLP5        0.0000 
      4 CA         43.3195   12.3275   48.1350 C.3       1 GLC5        0.0000 
      5 CA         41.7200   12.8900   47.1900 C.3       3 GLL5        0.0000 
      6 CA         44.9190   11.7650   49.0800 C.3       2 GLP5        0.0000 
      7 CA         41.5220   10.9645   46.4805 C.3       1 GLC5        0.0000 
      8 CA         41.3240    9.0390   45.7710 C.3       2 GLP5        0.0000 
      9 CA         42.8385   11.9320   43.9460 C.3       1 GLC5        0.0000 
     10 CA         41.7310   12.5160   45.7830 C.3       3 GLL5        0.0000 
     11 CA         43.9460   11.3480   42.1090 C.3       2 GLP5        0.0000 
     12 CA         36.9415   12.2740   49.5450 C.3       1 GLC5        0.0000 
     13 CA         37.1110   13.4170   51.0590 C.3       3 GLL5        0.0000 
     14 CA         36.7720   11.1310   48.0310 C.3       2 GLP5        0.0000 
     15 CA         35.9995   14.9410   50.2990 C.3       1 GLC5        0.0000 
     16 CA         34.8880   16.4650   49.5390 C.3       2 GLP5        0.0000 
     17 CA         38.8145   18.9175   54.3750 C.3       1 GLC5        0.0000 
     18 CA         37.2290   17.6880   54.2740 C.3       3 GLL5        0.0000 
     19 CA         40.4000   20.1470   54.4760 C.3       2 GLP5        0.0000 
     20 CA         38.1435   17.6530   56.1360 C.3       1 GLC5        0.0000 
     21 CA         39.0580   17.6180   57.9980 C.3       2 GLP5        0.0000 
     22 CA         41.7500   18.6020   46.9410 C.3       1 GLC5        0.0000 
     23 CA         41.8350   18.4590   48.7490 C.3       3 GLL5        0.0000 
     24 CA         41.6650   18.7450   45.1330 C.3       2 GLP5        0.0000 
     25 CA         41.1905   20.1205   48.1265 C.3       1 GLC5        0.0000 
     26 CA         40.5460   21.7820   47.5040 C.3       2 GLP5        0.0000 
     27 CA         42.8100   18.9130   52.2050 C.3       1 GLC5        0.0000 
     28 CA         44.3360   18.0610   51.1170 C.3       3 GLL5        0.0000 
     29 CA         41.2840   19.7650   53.2930 C.3       2 GLP5        0.0000 
     30 CA         36.9670   19.0665   54.0833 C.3       1 GLC5        0.0000 
     31 CA         36.7040   20.9700   54.2760 C.3       2 GLP5        0.0000 
     32 CA         37.5932   16.8430   50.5592 C.3       1 GLC5        0.0000 
     33 CA         38.3150   16.4400   52.6230 C.3       3 GLL5        0.0000 
     34 CA         36.9050   17.8120   48.9390 C.3       2 GLP5        0.0000 
     35 CA         35.4592   13.2035   50.7578 C.3       1 GLC5        0.0000 
     36 CA         37.1180   14.4390   51.8480 C.3       3 GLL5        0.0000 
     37 CA         33.8040   12.4790   50.0620 C.3       2 GLP5        0.0000 
     38 CA         35.6121   15.8100   51.2456 C.3       1 GLC5        0.0000 
     39 CA         39.4243   12.9093   51.5510 C.3       1 GLC5        0.0000 
     40 CA         39.3510   15.1370   50.7660 C.3       3 GLL5        0.0000 
     41 CA         39.2640   11.2910   52.6750 C.3       2 GLP5        0.0000 
     42 CA         38.3347   16.7703   49.7365 C.3       1 GLC5        0.0000 
     43 CA         42.7465   14.1375   46.3302 C.3       1 GLC5        0.0000 
     44 CA         40.7720   13.9000   47.6210 C.3       3 GLL5        0.0000 
     45 CA         44.2470   14.8800   45.2550 C.3       2 GLP5        0.0000 
     46 CA         40.8648   11.1662   44.9577 C.3       1 GLC5        0.0000 
     47 CA         40.4580    9.4940   44.5960 C.3       2 GLP5        0.0000 
     48 CA         39.5807   12.1002   46.7141 C.3       1 GLC5        0.0000 
     49 CA         37.6730   11.2450   46.8340 C.3       2 GLP5        0.0000 
     50 CA         40.4763   14.7432   43.5853 C.3       1 GLC5        0.0000 
     51 CA         40.8120   13.1610   44.8560 C.3       3 GLL5        0.0000 
     52 CA         40.6390   15.8510   42.0960 C.3       2 GLP5        0.0000 
     53 CA         42.3951   14.1771   45.2806 C.3       1 GLC5        0.0000 
     54 CA         39.8150   14.1100   45.2930 C.3       3 GLL5        0.0000 
     55 CA         38.0810   15.0125   46.8293 C.3       1 GLC5        0.0000 
     56 CA         36.3570   15.7260   47.6610 C.3       2 GLP5        0.0000 
     57 CA         38.5016   13.1374   45.9201 C.3       1 GLC5        0.0000 
     58 CA         39.7950   14.4880   46.7020 C.3       3 GLL5        0.0000 
     59 CA         36.9490   12.2130   45.9520 C.3       2 GLP5        0.0000 
     60 CA         37.5532   12.8798   52.6436 C.3       1 GLC5        0.0000 
     61 CA         38.1230   11.6780   53.6210 C.3       2 GLP5        0.0000 
     62 CA         35.4785   17.3179   55.0048 C.3       1 GLC5        0.0000 
     63 CA         37.2310   16.6380   53.5070 C.3       3 GLL5        0.0000 
     64 CA         34.0100   17.6870   56.0950 C.3       2 GLP5        0.0000 
     65 CA         45.6317   16.7415   47.5555 C.3       1 GLC5        0.0000 
     66 CA         45.2290   17.6240   48.8770 C.3       3 GLL5        0.0000 
     67 CA         45.4000   15.4700   46.0740 C.3       2 GLP5        0.0000 
@<TRIPOS>BOND
@<TRIPOS>SUBSTRUCTURE
     1 GLC5        1 GROUP        1 X    GLC  0     ROOT GLC X 6
     2 GLP5        3 GROUP        1 Y    GLP  0     ROOT GLP Y 13
     3 GLL5        2 GROUP        1 Z    GLL  0     ROOT GLL Z 20
@<TRIPOS>SET

