#    Name: 2fky_N2T_2_ligand
#    Modification time : Tue Mar 25 12:51:47 2014

@<TRIPOS>MOLECULE
2fky_N2T_2_ligand
   53    56     1     0     0
SMALL
NO_CHARGES


@<TRIPOS>ATOM
      1 C1         37.2310   16.6380   53.5070 C.ar      1 N2T605      0.0000 
      2 C2         38.3150   16.4400   52.6230 C.ar      1 N2T605      0.0000 
      3 C3         38.2480   15.3080   51.7360 C.ar      1 N2T605      0.0000 
      4 C4         37.1180   14.4390   51.8480 C.ar      1 N2T605      0.0000 
      5 C5         36.0290   14.6190   52.7550 C.ar      1 N2T605      0.0000 
      6 C6         36.0990   15.7810   53.6030 C.ar      1 N2T605      0.0000 
      7 C10        39.3510   15.1370   50.7660 C.2       1 N2T605      0.0000 
      8 C11        40.1780   16.3200   50.3020 C.3       1 N2T605      0.0000 
      9 N12        41.2250   15.6960   49.4590 N.am      1 N2T605      0.0000 
     10 C13        40.7670   14.3770   49.0050 C.3       1 N2T605      0.0000 
     11 C14        39.8180   13.9180   50.0880 C.2       1 N2T605      0.0000 
     12 C17        40.7720   13.9000   47.6210 C.ar      1 N2T605      0.0000 
     13 C19        41.7200   12.8900   47.1900 C.ar      1 N2T605      0.0000 
     14 C20        41.7310   12.5160   45.7830 C.ar      1 N2T605      0.0000 
     15 C21        40.8120   13.1610   44.8560 C.ar      1 N2T605      0.0000 
     16 C22        39.8150   14.1100   45.2930 C.ar      1 N2T605      0.0000 
     17 C23        39.7950   14.4880   46.7020 C.ar      1 N2T605      0.0000 
     18 C8         42.5320   16.0660   49.3630 C.2       1 N2T605      0.0000 
     19 N1         42.7800   17.4450   49.3030 N.am      1 N2T605      0.0000 
     20 C35        44.0090   18.1360   49.6270 C.3       1 N2T605      0.0000 
     21 F40        37.1110   13.4170   51.0590 F         1 N2T605      0.0000 
     22 F41        37.2290   17.6880   54.2740 F         1 N2T605      0.0000 
     23 O2         43.3990   15.1760   49.3340 O.2       1 N2T605      0.0000 
     24 C15        45.2290   17.6240   48.8770 C.3       1 N2T605      0.0000 
     25 C26        41.8350   18.4590   48.7490 C.3       1 N2T605      0.0000 
     26 C12        44.3360   18.0610   51.1170 C.3       1 N2T605      0.0000 
     27 C9         46.4980   18.4020   49.1970 C.3       1 N2T605      0.0000 
     28 C16        45.5790   18.8930   51.4940 C.3       1 N2T605      0.0000 
     29 N2         46.7130   18.3990   50.6810 N.4       1 N2T605      0.0000 
     30 H          39.1019   17.0533   52.6043 H         1 N2T605      0.0000 
     31 H          35.2729   13.9893   52.8019 H         1 N2T605      0.0000 
     32 H          35.3538   15.9774   54.2518 H         1 N2T605      0.0000 
     33 H          40.6103   16.8034   51.1471 H         1 N2T605      0.0000 
     34 H          39.5673   16.9747   49.7249 H         1 N2T605      0.0000 
     35 H          41.7992   13.7166   49.4784 H         1 N2T605      0.0000 
     36 H          39.5991   13.0683   50.2631 H         1 N2T605      0.0000 
     37 H          42.3448   12.4643   47.8346 H         1 N2T605      0.0000 
     38 H          42.3708   11.8150   45.4527 H         1 N2T605      0.0000 
     39 H          40.8789   12.9301   43.8593 H         1 N2T605      0.0000 
     40 H          39.1572   14.4990   44.6564 H         1 N2T605      0.0000 
     41 H          39.1192   15.1444   47.0406 H         1 N2T605      0.0000 
     42 H          43.9194   19.2117   49.3893 H         1 N2T605      0.0000 
     43 H          45.0366   17.6810   47.7954 H         1 N2T605      0.0000 
     44 H          45.3858   16.5640   49.1260 H         1 N2T605      0.0000 
     45 H          44.5135   17.0175   51.3969 H         1 N2T605      0.0000 
     46 H          43.4804   18.4261   51.6945 H         1 N2T605      0.0000 
     47 H          46.3899   19.4206   48.8391 H         1 N2T605      0.0000 
     48 H          47.3388   17.9307   48.6986 H         1 N2T605      0.0000 
     49 H          45.7723   18.7595   52.5476 H         1 N2T605      0.0000 
     50 H          45.3731   19.9307   51.2792 H         1 N2T605      0.0000 
     51 H          42.2085   19.3849   48.8059 H         1 N2T605      0.0000 
     52 H          41.6266   18.2856   47.7864 H         1 N2T605      0.0000 
     53 H          40.9645   18.4634   49.2412 H         1 N2T605      0.0000 
@<TRIPOS>BOND
     1    2    1 ar   
     2    6    1 ar   
     3   22    1 1    
     4    3    2 ar   
     5   30    2 1    
     6    4    3 ar   
     7    7    3 1    
     8    5    4 ar   
     9   21    4 1    
    10    6    5 ar   
    11   31    5 1    
    12   32    6 1    
    13    8    7 1    
    14   11    7 2    
    15    9    8 1    
    16   33    8 1    
    17   34    8 1    
    18   10    9 1    
    19   18    9 am   
    20   11   10 1    
    21   12   10 1    
    22   35   10 1    
    23   36   11 1    
    24   13   12 ar   
    25   17   12 ar   
    26   14   13 ar   
    27   37   13 1    
    28   15   14 ar   
    29   38   14 1    
    30   16   15 ar   
    31   39   15 1    
    32   17   16 ar   
    33   40   16 1    
    34   41   17 1    
    35   19   18 am   
    36   23   18 2    
    37   20   19 1    
    38   25   19 1    
    39   24   20 1    
    40   26   20 1    
    41   42   20 1    
    42   27   24 1    
    43   43   24 1    
    44   44   24 1    
    45   51   25 1    
    46   52   25 1    
    47   53   25 1    
    48   28   26 1    
    49   45   26 1    
    50   46   26 1    
    51   29   27 1    
    52   47   27 1    
    53   48   27 1    
    54   29   28 1    
    55   49   28 1    
    56   50   28 1    
@<TRIPOS>SUBSTRUCTURE
     1 N2T605      1 GROUP   
@<TRIPOS>SET

