#    Name: 3kw2_ADN_2_INTS_M
#    Modification time : Mon Mar 24 20:38:33 2014

@<TRIPOS>MOLECULE
3kw2_ADN_2_INTS_M
   49     0     9     0     0
SMALL
NO_CHARGES


@<TRIPOS>ATOM
      1 CA          9.5440   52.2785   84.8680 C.3       3 GLC5        0.0000 
      2 CA          8.4250   51.9640   86.7220 C.3       9 GLL5        0.0000 
      3 CA         10.6630   52.5930   83.0140 C.3       6 GLP5        0.0000 
      4 CA          6.8605   54.0005   84.8570 C.3       3 GLC5        0.0000 
      5 CA          7.1980   52.7410   86.2830 C.3       9 GLL5        0.0000 
      6 CA          6.5230   55.2600   83.4310 C.3       6 GLP5        0.0000 
      7 O           5.5065   53.8175   89.2445 O.2       1 ALC1        0.0000 
      8 O           6.1600   53.8560   88.2270 O.2       7 ALL1        0.0000 
      9 O           4.8530   53.7790   90.2620 O.2       4 ALP1        0.0000 
     10 CA          3.1990   52.7780   87.6455 C.3       3 GLC5        0.0000 
     11 CA          4.8240   52.9110   86.4400 C.3       9 GLL5        0.0000 
     12 CA          1.5740   52.6450   88.8510 C.3       6 GLP5        0.0000 
     13 N           5.3335   55.4405   86.2625 N.am      2 SEC2        0.0000 
     14 N           4.4890   54.2710   86.2000 N.am      8 SEL2        0.0000 
     15 N           6.1780   56.6100   86.3250 N.am      5 SEP2        0.0000 
     16 O           3.3455   54.4765   86.7235 O.2       1 ALC1        0.0000 
     17 O           4.4890   54.2710   86.2000 O.2       7 ALL1        0.0000 
     18 O           2.2020   54.6820   87.2470 O.2       4 ALP1        0.0000 
     19 CA          5.8735   51.8645   83.4045 C.3       3 GLC5        0.0000 
     20 CA          5.2230   52.1350   85.1740 C.3       9 GLL5        0.0000 
     21 CA          6.5240   51.5940   81.6350 C.3       6 GLP5        0.0000 
     22 CA         -0.0305   48.7815   84.9195 C.3       3 GLC5        0.0000 
     23 CA          2.1610   48.3200   85.0750 C.3       9 GLL5        0.0000 
     24 CA         -2.2220   49.2430   84.7640 C.3       6 GLP5        0.0000 
     25 N           0.2165   48.9580   84.1395 N.am      2 SEC2        0.0000 
     26 N           1.0950   49.0740   85.3340 N.am      8 SEL2        0.0000 
     27 N          -0.6620   48.8420   82.9450 N.am      5 SEP2        0.0000 
     28 CA          1.2140   52.1305   84.9795 C.3       3 GLC5        0.0000 
     29 CA          1.2270   50.3920   85.5090 C.3       9 GLL5        0.0000 
     30 CA          1.2010   53.8690   84.4500 C.3       6 GLP5        0.0000 
     31 CA          1.4005   51.5185   87.1800 C.3       3 GLC5        0.0000 
     32 CA          2.2340   49.3650   87.0845 C.3       3 GLC5        0.0000 
     33 CA          3.2410   48.3380   88.6600 C.3       6 GLP5        0.0000 
     34 CA         -0.4975   49.8175   85.1365 C.3       3 GLC5        0.0000 
     35 CA          1.1990   50.6595   83.5450 C.3       3 GLC5        0.0000 
     36 CA          1.1710   50.9270   81.5810 C.3       6 GLP5        0.0000 
     37 CA          2.3105   52.1015   84.8230 C.3       3 GLC5        0.0000 
     38 CA          3.4200   50.3340   85.1960 C.3       9 GLL5        0.0000 
     39 CA          3.0025   50.8795   83.3020 C.3       3 GLC5        0.0000 
     40 CA          2.5850   51.4250   81.4080 C.3       6 GLP5        0.0000 
     41 CA          6.8520   54.8147   87.1150 C.3       3 GLC5        0.0000 
     42 CA          6.0640   52.7660   87.3130 C.3       9 GLL5        0.0000 
     43 CA          7.0730   56.8760   87.4320 C.3       6 GLP5        0.0000 
     44 CA          3.1122   53.1960   85.1285 C.3       3 GLC5        0.0000 
     45 CA          5.7732   53.8915   84.6190 C.3       3 GLC5        0.0000 
     46 CA          1.9728   49.0225   83.2050 C.3       3 GLC5        0.0000 
     47 CA          3.4280   48.9560   84.9850 C.3       9 GLL5        0.0000 
     48 CA          1.1510   49.4070   81.3800 C.3       6 GLP5        0.0000 
     49 CA          3.1741   48.9120   86.8865 C.3       3 GLC5        0.0000 
@<TRIPOS>BOND
@<TRIPOS>SUBSTRUCTURE
     1 ALC1        7 GROUP        1 X    ALC  0     ROOT ALC X 1
     2 SEC2       13 GROUP        1 X    SEC  0     **** SEC X 2
     3 GLC5        1 GROUP        1 X    GLC  0     **** GLC X 6
     4 ALP1        9 GROUP        1 Y    ALP  0     ROOT ALP Y 8
     5 SEP2       15 GROUP        1 Y    SEP  0     **** SEP Y 9
     6 GLP5        3 GROUP        1 Y    GLP  0     **** GLP Y 13
     7 ALL1        8 GROUP        1 Z    ALL  0     ROOT ALL Z 15
     8 SEL2       14 GROUP        1 Z    SEL  0     **** SEL Z 16
     9 GLL5        2 GROUP        1 Z    GLL  0     **** GLL Z 20
@<TRIPOS>SET

