#    Name: 3kw2_ADN_2_ligand
#    Modification time : Mon Mar 24 20:38:33 2014

@<TRIPOS>MOLECULE
3kw2_ADN_2_ligand
   31    33     1     0     0
SMALL
NO_CHARGES


@<TRIPOS>ATOM
      1 O5'         8.0330   50.6480   87.1040 O.3       1 ADN300      0.0000 
      2 C5'         8.4250   51.9640   86.7220 C.3       1 ADN300      0.0000 
      3 C4'         7.1980   52.7410   86.2830 C.3       1 ADN300      0.0000 
      4 O4'         6.6400   52.1090   85.0900 O.3       1 ADN300      0.0000 
      5 C3'         6.0640   52.7660   87.3130 C.3       1 ADN300      0.0000 
      6 O3'         6.1600   53.8560   88.2270 O.3       1 ADN300      0.0000 
      7 C2'         4.8240   52.9110   86.4400 C.3       1 ADN300      0.0000 
      8 O2'         4.4890   54.2710   86.2000 O.3       1 ADN300      0.0000 
      9 C1'         5.2230   52.1350   85.1740 C.3       1 ADN300      0.0000 
     10 N9          4.7310   50.7520   85.0830 N.pl3     1 ADN300      0.0000 
     11 C8          5.4550   49.6130   84.7990 C.2       1 ADN300      0.0000 
     12 N7          4.7350   48.4990   84.7390 N.2       1 ADN300      0.0000 
     13 C5          3.4280   48.9560   84.9850 C.ar      1 ADN300      0.0000 
     14 C6          2.1610   48.3200   85.0750 C.ar      1 ADN300      0.0000 
     15 N6          1.9340   47.0160   84.9320 N.pl3     1 ADN300      0.0000 
     16 N1          1.0950   49.0740   85.3340 N.ar      1 ADN300      0.0000 
     17 C2          1.2270   50.3920   85.5090 C.ar      1 ADN300      0.0000 
     18 N3          2.3450   51.1040   85.4590 N.ar      1 ADN300      0.0000 
     19 C4          3.4200   50.3340   85.1960 C.ar      1 ADN300      0.0000 
     20 H           9.1338   51.9500   85.8874 H         1 ADN300      0.0000 
     21 H           8.8901   52.5058   87.5522 H         1 ADN300      0.0000 
     22 H           7.4718   53.7551   86.0519 H         1 ADN300      0.0000 
     23 H           6.0205   51.8112   87.7795 H         1 ADN300      0.0000 
     24 H           4.0374   52.3491   86.9167 H         1 ADN300      0.0000 
     25 H           4.8345   52.7083   84.3125 H         1 ADN300      0.0000 
     26 H           6.4488   49.6507   84.6532 H         1 ADN300      0.0000 
     27 H           0.3015   50.9462   85.7181 H         1 ADN300      0.0000 
     28 H           8.3235   50.0618   86.3477 H         1 ADN300      0.0000 
     29 H           5.2768   53.8794   88.6954 H         1 ADN300      0.0000 
     30 H           3.9297   54.5418   86.9835 H         1 ADN300      0.0000 
     31 H           0.9967   46.9527   84.5893 H         1 ADN300      0.0000 
@<TRIPOS>BOND
     1    2    1 1    
     2   28    1 1    
     3    3    2 1    
     4   20    2 1    
     5   21    2 1    
     6    4    3 1    
     7    5    3 1    
     8   22    3 1    
     9    9    4 1    
    10    6    5 1    
    11    7    5 1    
    12   23    5 1    
    13   29    6 1    
    14    8    7 1    
    15    9    7 1    
    16   24    7 1    
    17   30    8 1    
    18   10    9 1    
    19   25    9 1    
    20   11   10 1    
    21   19   10 1    
    22   12   11 2    
    23   26   11 1    
    24   13   12 1    
    25   14   13 ar   
    26   19   13 ar   
    27   15   14 1    
    28   16   14 ar   
    29   31   15 1    
    30   17   16 ar   
    31   18   17 ar   
    32   27   17 1    
    33   19   18 ar   
@<TRIPOS>SUBSTRUCTURE
     1 ADN300      1 GROUP   
@<TRIPOS>SET

