#    Name: 1srg_MHB_2_INTS_M
#    Modification time : Tue Mar 25 02:41:54 2014

@<TRIPOS>MOLECULE
1srg_MHB_2_INTS_M
   48     0     6     0     0
SMALL
NO_CHARGES


@<TRIPOS>ATOM
      1 CA         30.6655   10.7330   -6.3415 C.3       2 GLC5        0.0000 
      2 CA         32.3580   11.2070   -5.1810 C.3       6 GLL5        0.0000 
      3 CA         28.9730   10.2590   -7.5020 C.3       4 GLP5        0.0000 
      4 CA         32.2180   17.8040  -10.3650 C.3       2 GLC5        0.0000 
      5 CA         30.8620   16.2980   -9.6430 C.3       6 GLL5        0.0000 
      6 CA         33.5740   19.3100  -11.0870 C.3       4 GLP5        0.0000 
      7 CA         29.7615   12.1345   -8.1385 C.3       2 GLC5        0.0000 
      8 CA         30.5500   14.0100   -8.7750 C.3       6 GLL5        0.0000 
      9 CA         32.8775   19.4930   -7.8470 C.3       2 GLC5        0.0000 
     10 CA         32.8480   17.7280   -8.9480 C.3       6 GLL5        0.0000 
     11 CA         32.9070   21.2580   -6.7460 C.3       4 GLP5        0.0000 
     12 CA         32.0210   17.8615   -7.2700 C.3       2 GLC5        0.0000 
     13 CA         31.1940   17.9950   -5.5920 C.3       4 GLP5        0.0000 
     14 N          37.1110   14.2975   -5.3110 N.am      1 SEC2        0.0000 
     15 N          35.4960   14.1610   -5.7470 N.am      5 SEL2        0.0000 
     16 N          38.7260   14.4340   -4.8750 N.am      3 SEP2        0.0000 
     17 N          37.7400   12.1065   -3.2965 N.am      1 SEC2        0.0000 
     18 N          36.8220   13.0410   -4.2150 N.am      5 SEL2        0.0000 
     19 N          38.6580   11.1720   -2.3780 N.am      3 SEP2        0.0000 
     20 N          37.7740   13.7375   -4.5450 N.am      1 SEC2        0.0000 
     21 N          36.6885   13.4165   -2.8600 N.am      1 SEC2        0.0000 
     22 N          36.5550   13.7920   -1.5050 N.am      3 SEP2        0.0000 
     23 CA         35.0735   12.1045   -6.9213 C.3       2 GLC5        0.0000 
     24 CA         34.5890   12.1050   -4.8280 C.3       6 GLL5        0.0000 
     25 CA         36.1770   12.0650   -8.7070 C.3       4 GLP5        0.0000 
     26 CA         36.3192   10.8355   -5.3987 C.3       2 GLC5        0.0000 
     27 CA         37.9110   10.0760   -6.4330 C.3       4 GLP5        0.0000 
     28 CA         31.2040   11.0490   -3.2083 C.3       2 GLC5        0.0000 
     29 CA         32.6300   10.1870   -4.2640 C.3       6 GLL5        0.0000 
     30 CA         29.9140   11.4010   -1.6940 C.3       4 GLP5        0.0000 
     31 CA         32.6950   14.4395   -9.9835 C.3       2 GLC5        0.0000 
     32 CA         31.7400   14.1650   -8.0990 C.3       6 GLL5        0.0000 
     33 CA         33.2810   14.1210  -11.8450 C.3       4 GLP5        0.0000 
     34 CA         32.3697   15.2405  -10.5642 C.3       2 GLC5        0.0000 
     35 CA         32.0550   16.4220   -8.9240 C.3       6 GLL5        0.0000 
     36 CA         33.6407   17.7755   -9.7135 C.3       2 GLC5        0.0000 
     37 CA         34.8300   18.4760  -10.4910 C.3       4 GLP5        0.0000 
     38 CA         30.9575   16.4290  -11.5125 C.3       2 GLC5        0.0000 
     39 CA         31.4730   17.1070  -13.3740 C.3       4 GLP5        0.0000 
     40 CA         29.3175   16.9645   -8.3030 C.3       2 GLC5        0.0000 
     41 CA         28.1930   18.1780   -6.9550 C.3       4 GLP5        0.0000 
     42 CA         28.7570   16.6925  -10.2155 C.3       2 GLC5        0.0000 
     43 CA         27.0720   17.6340  -10.7800 C.3       4 GLP5        0.0000 
     44 CA         31.7835   14.3640  -10.5310 C.3       2 GLC5        0.0000 
     45 CA         30.0220   15.2040   -9.6590 C.3       6 GLL5        0.0000 
     46 CA         34.1801   16.9451   -7.6511 C.3       2 GLC5        0.0000 
     47 CA         32.4780   15.3510   -8.1450 C.3       6 GLL5        0.0000 
     48 CA         35.8030   17.0830   -6.5610 C.3       4 GLP5        0.0000 
@<TRIPOS>BOND
@<TRIPOS>SUBSTRUCTURE
     1 SEC2       14 GROUP        1 X    SEC  0     ROOT SEC X 2
     2 GLC5        1 GROUP        1 X    GLC  0     **** GLC X 6
     3 SEP2       16 GROUP        1 Y    SEP  0     ROOT SEP Y 9
     4 GLP5        3 GROUP        1 Y    GLP  0     **** GLP Y 13
     5 SEL2       15 GROUP        1 Z    SEL  0     ROOT SEL Z 16
     6 GLL5        2 GROUP        1 Z    GLL  0     **** GLL Z 20
@<TRIPOS>SET

