#    Name: 1srg_MHB_2_ligand
#    Modification time : Tue Mar 25 02:41:54 2014

@<TRIPOS>MOLECULE
1srg_MHB_2_ligand
   30    31     1     0     0
SMALL
NO_CHARGES


@<TRIPOS>ATOM
      1 C1         33.3510   12.1830   -5.4430 C.ar      1 MHB300      0.0000 
      2 C2         34.5890   12.1050   -4.8280 C.ar      1 MHB300      0.0000 
      3 C3         34.8660   11.0850   -3.9010 C.ar      1 MHB300      0.0000 
      4 C4         33.8790   10.1440   -3.6300 C.ar      1 MHB300      0.0000 
      5 C5         32.6300   10.1870   -4.2640 C.ar      1 MHB300      0.0000 
      6 C6         32.3580   11.2070   -5.1810 C.ar      1 MHB300      0.0000 
      7 C1'        31.7400   14.1650   -8.0990 C.ar      1 MHB300      0.0000 
      8 C2'        32.4780   15.3510   -8.1450 C.ar      1 MHB300      0.0000 
      9 C3'        32.0550   16.4220   -8.9240 C.ar      1 MHB300      0.0000 
     10 C4'        30.8620   16.2980   -9.6430 C.ar      1 MHB300      0.0000 
     11 C5'        30.0220   15.2040   -9.6590 C.ar      1 MHB300      0.0000 
     12 C6'        30.5500   14.0100   -8.7750 C.ar      1 MHB300      0.0000 
     13 C          35.6590   13.1820   -5.0410 C.2       1 MHB300      0.0000 
     14 CM3        32.8480   17.7280   -8.9480 C.3       1 MHB300      0.0000 
     15 N1         33.0450   13.2660   -6.3890 N.2       1 MHB300      0.0000 
     16 N1'        32.1540   13.0140   -7.2740 N.2       1 MHB300      0.0000 
     17 O          35.4960   14.1610   -5.7470 O.co2     1 MHB300      0.0000 
     18 OXT        36.8220   13.0410   -4.2150 O.co2     1 MHB300      0.0000 
     19 O4'        30.4180   17.4680  -10.4760 O.3       1 MHB300      0.0000 
     20 H          35.7718   11.0425   -3.4419 H         1 MHB300      0.0000 
     21 H          34.0671    9.3898   -2.9425 H         1 MHB300      0.0000 
     22 H          31.9244    9.4778   -4.0569 H         1 MHB300      0.0000 
     23 H          31.4614   11.2549   -5.6581 H         1 MHB300      0.0000 
     24 H          33.3470   15.4295   -7.5929 H         1 MHB300      0.0000 
     25 H          29.1967   15.0837  -10.1181 H         1 MHB300      0.0000 
     26 H          29.9722   13.2021   -8.7644 H         1 MHB300      0.0000 
     27 H          33.7837   17.5884   -9.2719 H         1 MHB300      0.0000 
     28 H          32.4276   18.4067   -9.5501 H         1 MHB300      0.0000 
     29 H          32.9108   18.1411   -8.0395 H         1 MHB300      0.0000 
     30 H          30.2649   18.2083   -9.8214 H         1 MHB300      0.0000 
@<TRIPOS>BOND
     1    2    1 ar   
     2    6    1 ar   
     3   15    1 1    
     4    3    2 ar   
     5   13    2 1    
     6    4    3 ar   
     7   20    3 1    
     8    5    4 ar   
     9   21    4 1    
    10    6    5 ar   
    11   22    5 1    
    12   23    6 1    
    13    8    7 ar   
    14   12    7 ar   
    15   16    7 1    
    16    9    8 ar   
    17   24    8 1    
    18   10    9 ar   
    19   14    9 1    
    20   11   10 ar   
    21   19   10 1    
    22   12   11 ar   
    23   25   11 1    
    24   26   12 1    
    25   17   13 ar   
    26   18   13 ar   
    27   27   14 1    
    28   28   14 1    
    29   29   14 1    
    30   16   15 2    
    31   30   19 1    
@<TRIPOS>SUBSTRUCTURE
     1 MHB300      1 GROUP   
@<TRIPOS>SET

