#    Name: 3nfa_CBJ_1_INTS_M
#    Modification time : Tue Mar 25 01:28:52 2014

@<TRIPOS>MOLECULE
3nfa_CBJ_1_INTS_M
   48     0     6     0     0
SMALL
NO_CHARGES


@<TRIPOS>ATOM
      1 CA         15.1395  -27.7910  -12.7525 C.3       2 GLC5        0.0000 
      2 CA         14.0440  -27.3860  -11.2070 C.3       6 GLL5        0.0000 
      3 CA         16.2350  -28.1960  -14.2980 C.3       4 GLP5        0.0000 
      4 CA         16.2260  -28.6850   -7.7920 C.3       2 GLC5        0.0000 
      5 CA         16.3710  -28.2350   -9.9220 C.3       6 GLL5        0.0000 
      6 CA         16.0810  -29.1350   -5.6620 C.3       4 GLP5        0.0000 
      7 CA         16.3030  -28.2155  -12.1100 C.3       2 GLC5        0.0000 
      8 CA         18.1950  -27.4005  -10.4655 C.3       2 GLC5        0.0000 
      9 CA         20.0190  -26.5660  -11.0090 C.3       4 GLP5        0.0000 
     10 CA         13.1305  -29.0855   -9.5630 C.3       2 GLC5        0.0000 
     11 CA         13.7270  -27.6960   -8.8790 C.3       6 GLL5        0.0000 
     12 CA         12.5340  -30.4750  -10.2470 C.3       4 GLP5        0.0000 
     13 CA         11.9555  -28.9045   -8.8670 C.3       2 GLC5        0.0000 
     14 CA         12.3970  -27.3280   -8.9390 C.3       6 GLL5        0.0000 
     15 CA         11.5140  -30.4810   -8.7950 C.3       4 GLP5        0.0000 
     16 CA         10.5235  -28.7685   -9.2810 C.3       2 GLC5        0.0000 
     17 CA          9.5330  -27.0560   -9.7670 C.3       6 GLL5        0.0000 
     18 CA          6.9965  -21.9100   -6.5570 C.3       2 GLC5        0.0000 
     19 CA          6.4320  -22.1430   -8.4260 C.3       6 GLL5        0.0000 
     20 CA          7.5610  -21.6770   -4.6880 C.3       4 GLP5        0.0000 
     21 CA          8.0190  -23.2340   -7.4630 C.3       2 GLC5        0.0000 
     22 CA          9.6060  -24.3250   -6.5000 C.3       4 GLP5        0.0000 
     23 NZ         11.1555  -22.4415  -12.4265 N.4       1 LYC4        0.0000 
     24 NZ         10.3160  -23.7380  -11.1810 N.4       5 LYL4        0.0000 
     25 NZ         11.9950  -21.1450  -13.6720 N.4       3 LYP4        0.0000 
     26 CA         13.9973  -29.2300  -10.1005 C.3       2 GLC5        0.0000 
     27 CA         14.5500  -27.7350   -9.9860 C.3       6 GLL5        0.0000 
     28 CA         16.3102  -29.5630   -9.6165 C.3       2 GLC5        0.0000 
     29 CA         17.1600  -31.1410   -9.2790 C.3       4 GLP5        0.0000 
     30 CA         15.7897  -26.6745   -8.8005 C.3       2 GLC5        0.0000 
     31 CA         16.1190  -25.3640   -7.6470 C.3       4 GLP5        0.0000 
     32 CA         12.9835  -28.0145   -7.1770 C.3       2 GLC5        0.0000 
     33 CA         12.9050  -28.5170   -5.4450 C.3       4 GLP5        0.0000 
     34 CA         14.0855  -26.4085   -7.8270 C.3       2 GLC5        0.0000 
     35 CA         15.1090  -25.3050   -6.7450 C.3       4 GLP5        0.0000 
     36 CA         12.5896  -28.7794  -10.4691 C.3       2 GLC5        0.0000 
     37 CA         11.9010  -26.9700  -10.1650 C.3       6 GLL5        0.0000 
     38 CA          8.3986  -27.4005   -7.7061 C.3       2 GLC5        0.0000 
     39 CA          7.2060  -26.3750   -9.2470 C.3       6 GLL5        0.0000 
     40 CA          8.6890  -28.3420   -5.9510 C.3       4 GLP5        0.0000 
     41 CA          8.1715  -25.1015   -7.8373 C.3       2 GLC5        0.0000 
     42 CA          7.2471  -27.5295  -11.0131 C.3       2 GLC5        0.0000 
     43 CA          8.4880  -26.0300   -9.5840 C.3       6 GLL5        0.0000 
     44 CA          6.3860  -28.6000  -12.5650 C.3       4 GLP5        0.0000 
     45 CA          8.4312  -24.1062   -7.9753 C.3       2 GLC5        0.0000 
     46 CA          6.6150  -24.0600   -9.2920 C.3       6 GLL5        0.0000 
     47 CA          9.2591  -24.9757   -8.1076 C.3       2 GLC5        0.0000 
     48 CA          8.8140  -24.7100   -9.7550 C.3       6 GLL5        0.0000 
@<TRIPOS>BOND
@<TRIPOS>SUBSTRUCTURE
     1 LYC4       23 GROUP        1 X    LYC  0     ROOT LYC X 4
     2 GLC5        1 GROUP        1 X    GLC  0     **** GLC X 6
     3 LYP4       25 GROUP        1 Y    LYP  0     ROOT LYP Y 11
     4 GLP5        3 GROUP        1 Y    GLP  0     **** GLP Y 13
     5 LYL4       24 GROUP        1 Z    LYL  0     ROOT LYL Z 18
     6 GLL5        2 GROUP        1 Z    GLL  0     **** GLL Z 20
@<TRIPOS>SET

