#    Name: 3nfa_CBJ_1_ligand
#    Modification time : Tue Mar 25 01:28:52 2014

@<TRIPOS>MOLECULE
3nfa_CBJ_1_ligand
   37    40     1     0     0
SMALL
NO_CHARGES


@<TRIPOS>ATOM
      1 O1          9.6850  -26.7310  -12.7630 O.2       1 CBJ213      0.0000 
      2 C2         10.5770  -26.6090  -11.9400 C.2       1 CBJ213      0.0000 
      3 C3         11.9910  -26.6190  -12.3770 C.2       1 CBJ213      0.0000 
      4 O4         12.4220  -26.3890  -13.4870 O.2       1 CBJ213      0.0000 
      5 C5         12.7350  -27.0090  -11.2280 C.ar      1 CBJ213      0.0000 
      6 C6         14.0440  -27.3860  -11.2070 C.ar      1 CBJ213      0.0000 
      7 C7         14.5500  -27.7350   -9.9860 C.ar      1 CBJ213      0.0000 
      8 BR8        16.3710  -28.2350   -9.9220 Br        1 CBJ213      0.0000 
      9 C9         13.7270  -27.6960   -8.8790 C.ar      1 CBJ213      0.0000 
     10 C10        12.3970  -27.3280   -8.9390 C.ar      1 CBJ213      0.0000 
     11 C11        11.9010  -26.9700  -10.1650 C.ar      1 CBJ213      0.0000 
     12 N12        10.6200  -26.5580  -10.5500 N.am      1 CBJ213      0.0000 
     13 C13         9.5330  -27.0560   -9.7670 C.3       1 CBJ213      0.0000 
     14 C14         8.4880  -26.0300   -9.5840 C.ar      1 CBJ213      0.0000 
     15 C15         7.2060  -26.3750   -9.2470 C.ar      1 CBJ213      0.0000 
     16 C16         6.2680  -25.3810   -9.1020 C.ar      1 CBJ213      0.0000 
     17 C17         6.6150  -24.0600   -9.2920 C.ar      1 CBJ213      0.0000 
     18 O18         5.6930  -23.0780   -9.1520 O.3       1 CBJ213      0.0000 
     19 C19         6.4320  -22.1430   -8.4260 C.3       1 CBJ213      0.0000 
     20 C20         7.4120  -21.4950   -9.3390 C.3       1 CBJ213      0.0000 
     21 O21         8.3430  -22.4300   -9.8140 O.3       1 CBJ213      0.0000 
     22 C22         7.8980  -23.7150   -9.6090 C.ar      1 CBJ213      0.0000 
     23 C23         8.8140  -24.7100   -9.7550 C.ar      1 CBJ213      0.0000 
     24 C24        10.1720  -24.3480  -10.1050 C.2       1 CBJ213      0.0000 
     25 O25        10.3160  -23.7380  -11.1810 O.co2     1 CBJ213      0.0000 
     26 O26        11.0730  -24.6740   -9.3140 O.co2     1 CBJ213      0.0000 
     27 H          14.6098  -27.4072  -12.0439 H         1 CBJ213      0.0000 
     28 H          14.1321  -27.9595   -7.9426 H         1 CBJ213      0.0000 
     29 H          11.8165  -27.3247   -8.1076 H         1 CBJ213      0.0000 
     30 H           9.8871  -27.3877   -8.7710 H         1 CBJ213      0.0000 
     31 H           9.0802  -27.9464  -10.2464 H         1 CBJ213      0.0000 
     32 H           6.9481  -27.3584   -9.1047 H         1 CBJ213      0.0000 
     33 H           5.2934  -25.6236   -8.8483 H         1 CBJ213      0.0000 
     34 H           6.9870  -22.6083   -7.5978 H         1 CBJ213      0.0000 
     35 H           5.7937  -21.3590   -7.9920 H         1 CBJ213      0.0000 
     36 H           7.9059  -20.6712   -8.7874 H         1 CBJ213      0.0000 
     37 H           6.8509  -21.0204  -10.1677 H         1 CBJ213      0.0000 
@<TRIPOS>BOND
     1    2    1 2    
     2    3    2 1    
     3   12    2 am   
     4    4    3 2    
     5    5    3 1    
     6    6    5 ar   
     7   11    5 ar   
     8    7    6 ar   
     9   27    6 1    
    10    8    7 1    
    11    9    7 ar   
    12   10    9 ar   
    13   28    9 1    
    14   11   10 ar   
    15   29   10 1    
    16   12   11 1    
    17   13   12 1    
    18   14   13 1    
    19   30   13 1    
    20   31   13 1    
    21   15   14 ar   
    22   23   14 ar   
    23   16   15 ar   
    24   32   15 1    
    25   17   16 ar   
    26   33   16 1    
    27   18   17 1    
    28   22   17 ar   
    29   19   18 1    
    30   20   19 1    
    31   34   19 1    
    32   35   19 1    
    33   21   20 1    
    34   36   20 1    
    35   37   20 1    
    36   22   21 1    
    37   23   22 ar   
    38   24   23 1    
    39   25   24 ar   
    40   26   24 ar   
@<TRIPOS>SUBSTRUCTURE
     1 CBJ213      1 GROUP   
@<TRIPOS>SET

