#    Name: 3OKV_1_CAVITY_N1_ALL.mol2
#    Modification time : Tue Mar 11 20:31:18 2014

@<TRIPOS>MOLECULE
3OKV_1_CAVITY_N1_ALL.mol2
  105     0     6     0     0
SMALL
NO_CHARGES


@<TRIPOS>ATOM
      1 N           0.9978    4.3660   11.6972 N.2       2 ALA2        0.0000 
      2 N           0.0994    5.5654   11.6319 N.2       2 ALA2        0.0000 
      3 CZ          0.4890    3.9122   10.3611 C.ar      4 PHE5        0.0000 
      4 CA          0.8787    2.2590    9.0903 C.3       5 GLY6        0.0000 
      5 DU         -0.0197    3.4584    9.0250 H         6 CUB7        0.0000 
      6 DU         -0.9181    4.6578    8.9596 H         6 CUB7        0.0000 
      7 N          -0.5284    3.0046    7.6888 N.2       2 ALA2        0.0000 
      8 CA         -0.8698    6.8944   14.9175 C.3       5 GLY6        0.0000 
      9 N          -0.4801    5.2411   13.6466 N.2       2 ALA2        0.0000 
     10 CA         -1.3785    6.4406   13.5813 C.3       5 GLY6        0.0000 
     11 N          -0.0904    3.5879   12.3758 N.2       2 ALA2        0.0000 
     12 N          -0.9888    4.7873   12.3105 N.2       2 ALA2        0.0000 
     13 DU         -1.8872    5.9868   12.2452 H         6 CUB7        0.0000 
     14 DU         -2.7856    7.1862   12.1799 H         6 CUB7        0.0000 
     15 CZ          0.2993    1.9347   11.1050 C.ar      4 PHE5        0.0000 
     16 OG         -0.5991    3.1341   11.0397 O.2       1 SER1        0.0000 
     17 DU         -1.4975    4.3335   10.9744 H         6 CUB7        0.0000 
     18 CA         -0.2095    1.4809    9.7689 C.3       5 GLY6        0.0000 
     19 DU         -1.1078    2.6803    9.7035 H         6 CUB7        0.0000 
     20 DU         -2.0062    3.8797    9.6382 H         6 CUB7        0.0000 
     21 DU         -2.9046    5.0792    9.5729 H         6 CUB7        0.0000 
     22 CA         -0.7182    1.0271    8.4327 C.3       5 GLY6        0.0000 
     23 N          -1.6166    2.2265    8.3674 N.2       2 ALA2        0.0000 
     24 CA         -2.5149    3.4259    8.3021 C.3       5 GLY6        0.0000 
     25 N          -3.4133    4.6254    8.2368 N.2       2 ALA2        0.0000 
     26 OG         -1.5683    4.4630   14.3252 O.2       1 SER1        0.0000 
     27 CA         -2.4666    5.6625   14.2599 C.3       5 GLY6        0.0000 
     28 CZ         -3.3650    6.8619   14.1946 C.ar      4 PHE5        0.0000 
     29 OG         -2.0770    4.0092   12.9891 O.2       1 SER1        0.0000 
     30 DU         -2.9754    5.2087   12.9238 H         6 CUB7        0.0000 
     31 DU         -3.8737    6.4081   12.8584 H         6 CUB7        0.0000 
     32 CZ         -4.7721    7.6075   12.7931 C.ar      4 PHE5        0.0000 
     33 OG         -0.7889    1.1566   11.7836 O.2       1 SER1        0.0000 
     34 OG         -1.6873    2.3560   11.7182 O.2       1 SER1        0.0000 
     35 DU         -2.5857    3.5554   11.6529 H         6 CUB7        0.0000 
     36 DU         -3.4841    4.7549   11.5876 H         6 CUB7        0.0000 
     37 DU         -4.3825    5.9543   11.5223 H         6 CUB7        0.0000 
     38 CZ         -5.2809    7.1537   11.4570 C.ar      4 PHE5        0.0000 
     39 CA         -1.2976    0.7028   10.4474 C.3       5 GLY6        0.0000 
     40 O          -2.1960    1.9022   10.3821 O.2       2 ALA2        0.0000 
     41 O          -3.0944    3.1016   10.3168 O.2       2 ALA2        0.0000 
     42 N          -3.9928    4.3011   10.2515 N.2       2 ALA2        0.0000 
     43 O          -4.8912    5.5005   10.1862 O.2       2 ALA2        0.0000 
     44 O          -5.7896    6.6999   10.1208 O.2       2 ALA2        0.0000 
     45 O          -2.7047    1.4484    9.0460 O.2       2 ALA2        0.0000 
     46 O          -3.6031    2.6478    8.9806 O.2       2 ALA2        0.0000 
     47 CA         -3.9445    6.5376   16.2093 C.3       5 GLY6        0.0000 
     48 OG         -2.6564    3.6849   15.0038 O.2       1 SER1        0.0000 
     49 CA         -3.5548    4.8844   14.9385 C.3       5 GLY6        0.0000 
     50 CZ         -4.4532    6.0838   14.8731 C.ar      4 PHE5        0.0000 
     51 OG         -3.1651    3.2311   13.6676 O.2       1 SER1        0.0000 
     52 DU         -4.0635    4.4306   13.6023 H         6 CUB7        0.0000 
     53 CZ         -4.9619    5.6300   13.5370 C.ar      4 PHE5        0.0000 
     54 CZ         -5.8603    6.8294   13.4717 C.ar      4 PHE5        0.0000 
     55 CA         -1.8771    0.3785   12.4621 C.3       5 GLY6        0.0000 
     56 OG         -2.7755    1.5779   12.3968 O.2       1 SER1        0.0000 
     57 DU         -3.6738    2.7773   12.3315 H         6 CUB7        0.0000 
     58 DU         -4.5722    3.9768   12.2662 H         6 CUB7        0.0000 
     59 O          -5.4706    5.1762   12.2009 O.2       2 ALA2        0.0000 
     60 O          -6.3690    6.3756   12.1355 O.2       2 ALA2        0.0000 
     61 CZ         -7.2674    7.5751   12.0702 C.ar      4 PHE5        0.0000 
     62 CA         -1.4874   -1.2747   11.1913 C.3       5 GLY6        0.0000 
     63 CA         -2.3858   -0.0753   11.1260 C.3       5 GLY6        0.0000 
     64 O          -3.2842    1.1241   11.0607 O.2       2 ALA2        0.0000 
     65 O          -4.1826    2.3235   10.9954 O.2       2 ALA2        0.0000 
     66 O          -5.0810    3.5230   10.9300 O.2       2 ALA2        0.0000 
     67 OG         -2.8945   -0.5291    9.7899 O.2       1 SER1        0.0000 
     68 O          -3.7929    0.6703    9.7245 O.2       2 ALA2        0.0000 
     69 OG         -2.8462    1.7074   15.7477 O.2       1 SER1        0.0000 
     70 OG         -3.7446    2.9068   15.6824 O.2       1 SER1        0.0000 
     71 CA         -4.6430    4.1063   15.6170 C.3       5 GLY6        0.0000 
     72 CA         -5.5414    5.3057   15.5517 C.3       5 GLY6        0.0000 
     73 CZ         -6.4398    6.5051   15.4864 C.ar      4 PHE5        0.0000 
     74 OG         -3.3549    1.2536   14.4115 O.2       1 SER1        0.0000 
     75 OG         -4.2533    2.4530   14.3462 O.2       1 SER1        0.0000 
     76 DU         -5.1517    3.6525   14.2809 H         6 CUB7        0.0000 
     77 DU         -6.0501    4.8519   14.2156 H         6 CUB7        0.0000 
     78 CZ         -6.9485    6.0513   14.1503 C.ar      4 PHE5        0.0000 
     79 CA         -3.8636    0.7998   13.0754 C.3       5 GLY6        0.0000 
     80 N          -4.7620    1.9992   13.0101 N.2       2 ALA2        0.0000 
     81 O          -5.6604    3.1987   12.9448 O.2       2 ALA2        0.0000 
     82 O          -6.5588    4.3981   12.8794 O.2       2 ALA2        0.0000 
     83 O          -7.4572    5.5975   12.8141 O.2       2 ALA2        0.0000 
     84 OG         -2.5756   -2.0528   11.8699 O.2       1 SER1        0.0000 
     85 OG         -3.4739   -0.8534   11.8046 O.2       1 SER1        0.0000 
     86 OG         -4.3723    0.3460   11.7392 O.2       1 SER1        0.0000 
     87 O          -5.2707    1.5454   11.6739 O.2       2 ALA2        0.0000 
     88 O          -6.1691    2.7449   11.6086 O.2       2 ALA2        0.0000 
     89 CA         -4.3240    2.5825   17.6971 C.3       5 GLY6        0.0000 
     90 O          -3.9344    0.9293   16.4262 O.2       2 ALA2        0.0000 
     91 CA         -4.8327    2.1287   16.3609 C.3       5 GLY6        0.0000 
     92 CA         -5.7311    3.3282   16.2956 C.3       5 GLY6        0.0000 
     93 CA         -6.6295    4.5276   16.2303 C.3       5 GLY6        0.0000 
     94 OD1        -4.4431    0.4755   15.0901 O.3       3 ASP3        0.0000 
     95 N          -5.3415    1.6749   15.0248 N.2       2 ALA2        0.0000 
     96 N          -6.2399    2.8744   14.9595 N.2       2 ALA2        0.0000 
     97 CA         -7.1382    4.0738   14.8941 C.3       5 GLY6        0.0000 
     98 N          -4.9518    0.0217   13.7540 N.2       2 ALA2        0.0000 
     99 CA         -7.6470    3.6200   13.5580 C.3       5 GLY6        0.0000 
    100 CA         -5.4122    1.8044   18.3756 C.3       5 GLY6        0.0000 
    101 CA         -6.3106    3.0039   18.3103 C.3       5 GLY6        0.0000 
    102 OG         -5.0225    0.1512   17.1048 O.2       1 SER1        0.0000 
    103 OD1        -5.9209    1.3506   17.0395 O.3       3 ASP3        0.0000 
    104 CA         -6.8193    2.5501   16.9742 C.3       5 GLY6        0.0000 
    105 CA         -7.7177    3.7495   16.9089 C.3       5 GLY6        0.0000 
@<TRIPOS>BOND
@<TRIPOS>SUBSTRUCTURE
     1 SER1       16 GROUP   
     2 ALA2        1 GROUP   
     3 ASP3       94 GROUP   
     4 PHE5        3 GROUP   
     5 GLY6        4 GROUP   
     6 CUB7        5 GROUP   
@<TRIPOS>SET

