#    Name: 3okv_VZ4_1_INTS_M
#    Modification time : Tue Mar 25 04:49:19 2014

@<TRIPOS>MOLECULE
3okv_VZ4_1_INTS_M
   37     0    12     0     0
SMALL
NO_CHARGES


@<TRIPOS>ATOM
      1 CA         -5.7390    7.5205   14.8080 C.3       4 GLC5        0.0000 
      2 CA         -5.2380    5.8260   15.0670 C.3      12 GLL5        0.0000 
      3 CA         -6.2400    9.2150   14.5490 C.3       8 GLP5        0.0000 
      4 CA         -6.1540    6.7155   16.8585 C.3       4 GLC5        0.0000 
      5 CA         -7.0700    7.6050   18.6500 C.3       8 GLP5        0.0000 
      6 O          -4.4680   -1.0995   17.0865 O.2       1 ALC1        0.0000 
      7 O          -5.4230   -0.3350   16.4610 O.2       9 ALL1        0.0000 
      8 O          -3.5130   -1.8640   17.7120 O.2       5 ALP1        0.0000 
      9 Zn         -6.0835   -0.8260   15.9375 Zn        3 ZIC7        0.0000 
     10 Zn         -5.4230   -0.3350   16.4610 Zn       11 ZIL7        0.0000 
     11 Zn         -6.7440   -1.3170   15.4140 Zn        7 ZIP7        0.0000 
     12 N          -4.0380    0.8990   18.7880 N.am      2 SEC2        0.0000 
     13 N          -5.4680    1.2950   18.3910 N.am     10 SEL2        0.0000 
     14 N          -2.6080    0.5030   19.1850 N.am      6 SEP2        0.0000 
     15 CA         -7.9735    4.0725   15.0500 C.3       4 GLC5        0.0000 
     16 CA         -5.9500    4.4720   15.1510 C.3      12 GLL5        0.0000 
     17 CA         -9.9970    3.6730   14.9490 C.3       8 GLP5        0.0000 
     18 CA          1.0290    1.6255   10.4060 C.3       4 GLC5        0.0000 
     19 CA         -0.5010    2.3540    9.1530 C.3      12 GLL5        0.0000 
     20 CA          2.5590    0.8970   11.6590 C.3       8 GLP5        0.0000 
     21 CA         -1.5095   -0.6180    9.7050 C.3       4 GLC5        0.0000 
     22 CA         -2.5880    0.7560   10.8010 C.3      12 GLL5        0.0000 
     23 CA         -0.4310   -1.9920    8.6090 C.3       8 GLP5        0.0000 
     24 CA         -4.8390    5.2090   16.8640 C.3       4 GLC5        0.0000 
     25 CA         -4.0840    5.2690   18.6190 C.3       8 GLP5        0.0000 
     26 CA         -2.4768    0.2922   14.0100 C.3       4 GLC5        0.0000 
     27 CA         -4.0990    1.2730   14.2150 C.3      12 GLL5        0.0000 
     28 CA         -0.9570   -0.7820   14.4860 C.3       8 GLP5        0.0000 
     29 CA          0.5962    1.2210    8.3313 C.3       4 GLC5        0.0000 
     30 CA         -0.1020    3.1340    7.8800 C.3      12 GLL5        0.0000 
     31 CA          1.4940   -0.3020    8.1460 C.3       8 GLP5        0.0000 
     32 CA         -1.9152   -0.1228   12.9800 C.3       4 GLC5        0.0000 
     33 CA         -2.9678    3.1870    7.3468 C.3       4 GLC5        0.0000 
     34 CA         -2.0030    4.1600    9.0970 C.3      12 GLL5        0.0000 
     35 CA         -3.2040    1.9840    5.6420 C.3       8 GLP5        0.0000 
     36 CA         -2.1761    2.3438    7.2699 C.3       4 GLC5        0.0000 
     37 CA         -1.9950    2.6630    9.2790 C.3      12 GLL5        0.0000 
@<TRIPOS>BOND
@<TRIPOS>SUBSTRUCTURE
     1 ALC1        6 GROUP        1 X    ALC  0     ROOT ALC X 1
     2 SEC2       12 GROUP        1 X    SEC  0     **** SEC X 2
     3 ZIC7        9 GROUP        1 X    ZIC  0     **** ZIC X 5
     4 GLC5        1 GROUP        1 X    GLC  0     **** GLC X 6
     5 ALP1        8 GROUP        1 Y    ALP  0     ROOT ALP Y 8
     6 SEP2       14 GROUP        1 Y    SEP  0     **** SEP Y 9
     7 ZIP7       11 GROUP        1 Y    ZIP  0     **** ZIP Y 12
     8 GLP5        3 GROUP        1 Y    GLP  0     **** GLP Y 13
     9 ALL1        7 GROUP        1 Z    ALL  0     ROOT ALL Z 15
    10 SEL2       13 GROUP        1 Z    SEL  0     **** SEL Z 16
    11 ZIL7       10 GROUP        1 Z    ZIL  0     **** ZIL Z 19
    12 GLL5        2 GROUP        1 Z    GLL  0     **** GLL Z 20
@<TRIPOS>SET

