#    Name: 3okv_VZ4_1_ligand
#    Modification time : Tue Mar 25 04:49:19 2014

@<TRIPOS>MOLECULE
3okv_VZ4_1_ligand
   52    55     1     0     0
SMALL
NO_CHARGES


@<TRIPOS>ATOM
      1 CAA        -5.2380    5.8260   15.0670 C.3       1 VZ4263      0.0000 
      2 CAB        -1.2650    4.9030   10.2280 C.3       1 VZ4263      0.0000 
      3 NAC        -5.4230   -0.3350   16.4610 N.pl3     1 VZ4263      0.0000 
      4 OAD        -1.2530    5.0900    6.9310 O.2       1 VZ4263      0.0000 
      5 OAE        -5.4680    1.2950   18.3910 O.2       1 VZ4263      0.0000 
      6 OAF        -7.1130    1.6020   16.6270 O.2       1 VZ4263      0.0000 
      7 CAG        -4.0990    1.2730   14.2150 C.ar      1 VZ4263      0.0000 
      8 CAH        -5.0260    3.5870   12.9930 C.ar      1 VZ4263      0.0000 
      9 CAI        -5.9500    4.4720   15.1510 C.3       1 VZ4263      0.0000 
     10 CAJ        -0.1020    3.1340    7.8800 C.3       1 VZ4263      0.0000 
     11 CAK        -3.1590    0.3170   12.1470 C.3       1 VZ4263      0.0000 
     12 CAL        -0.5010    2.3540    9.1530 C.3       1 VZ4263      0.0000 
     13 CAM        -2.5880    0.7560   10.8010 C.3       1 VZ4263      0.0000 
     14 CAN        -4.1630    4.2820   10.3470 C.3       1 VZ4263      0.0000 
     15 CAO        -3.4600    4.6200    9.0060 C.3       1 VZ4263      0.0000 
     16 OAP        -4.8710    2.0370   16.3160 O.3       1 VZ4263      0.0000 
     17 CAQ        -1.1430    4.2610    7.8320 C.2       1 VZ4263      0.0000 
     18 CAR        -5.2030    3.4020   14.3680 C.ar      1 VZ4263      0.0000 
     19 CAS        -3.8940    1.4600   12.8530 C.ar      1 VZ4263      0.0000 
     20 CAT        -4.7770    2.2170   14.9520 C.ar      1 VZ4263      0.0000 
     21 CAU        -4.3650    2.6170   12.2390 C.ar      1 VZ4263      0.0000 
     22 CAV        -4.0750    2.7930   10.7490 C.3       1 VZ4263      0.0000 
     23 CAW        -2.6330    2.2690   10.6100 C.3       1 VZ4263      0.0000 
     24 CAX        -1.9950    2.6630    9.2790 C.3       1 VZ4263      0.0000 
     25 CAY        -2.0030    4.1600    9.0970 C.3       1 VZ4263      0.0000 
     26 SAZ        -5.7530    1.1560   16.9260 S.o2      1 VZ4263      0.0000 
     27 H          -4.6976   -0.8030   16.9658 H         1 VZ4263      0.0000 
     28 H          -3.7382    0.4189   14.6708 H         1 VZ4263      0.0000 
     29 H          -5.3826    4.4359   12.5407 H         1 VZ4263      0.0000 
     30 H          -6.9599    4.5760   14.7504 H         1 VZ4263      0.0000 
     31 H          -6.0211    4.1721   16.1980 H         1 VZ4263      0.0000 
     32 H          -0.2081    2.5105    7.0373 H         1 VZ4263      0.0000 
     33 H           0.8622    3.5403    8.0037 H         1 VZ4263      0.0000 
     34 H          -2.3452   -0.0328   12.7867 H         1 VZ4263      0.0000 
     35 H          -3.8542   -0.5113   11.9905 H         1 VZ4263      0.0000 
     36 H           0.0198    2.7440    9.9814 H         1 VZ4263      0.0000 
     37 H          -0.3575    1.3229    8.9924 H         1 VZ4263      0.0000 
     38 H          -3.1576    0.2755    9.9962 H         1 VZ4263      0.0000 
     39 H          -1.5483    0.4153   10.7246 H         1 VZ4263      0.0000 
     40 H          -5.2213    4.5677   10.2702 H         1 VZ4263      0.0000 
     41 H          -3.7134    4.8923   11.1425 H         1 VZ4263      0.0000 
     42 H          -3.4971    5.6834    8.8503 H         1 VZ4263      0.0000 
     43 H          -3.9579    4.0972    8.2090 H         1 VZ4263      0.0000 
     44 H          -4.7199    2.2005   10.1871 H         1 VZ4263      0.0000 
     45 H          -2.0380    2.7208   11.4160 H         1 VZ4263      0.0000 
     46 H          -2.5042    2.2249    8.4547 H         1 VZ4263      0.0000 
     47 H          -4.3084    5.7801   15.4328 H         1 VZ4263      0.0000 
     48 H          -5.1661    6.1499   14.1236 H         1 VZ4263      0.0000 
     49 H          -5.7217    6.5326   15.5835 H         1 VZ4263      0.0000 
     50 H          -0.3111    4.6123   10.3027 H         1 VZ4263      0.0000 
     51 H          -1.2593    5.8921   10.0807 H         1 VZ4263      0.0000 
     52 H          -1.6911    4.7417   11.1182 H         1 VZ4263      0.0000 
@<TRIPOS>BOND
     1    9    1 1    
     2   47    1 1    
     3   48    1 1    
     4   49    1 1    
     5   25    2 1    
     6   50    2 1    
     7   51    2 1    
     8   52    2 1    
     9   26    3 1    
    10   27    3 1    
    11   17    4 2    
    12   26    5 2    
    13   26    6 2    
    14   19    7 ar   
    15   20    7 ar   
    16   28    7 1    
    17   18    8 ar   
    18   21    8 ar   
    19   29    8 1    
    20   18    9 1    
    21   30    9 1    
    22   31    9 1    
    23   12   10 1    
    24   17   10 1    
    25   32   10 1    
    26   33   10 1    
    27   13   11 1    
    28   19   11 1    
    29   34   11 1    
    30   35   11 1    
    31   24   12 1    
    32   36   12 1    
    33   37   12 1    
    34   23   13 1    
    35   38   13 1    
    36   39   13 1    
    37   15   14 1    
    38   22   14 1    
    39   40   14 1    
    40   41   14 1    
    41   25   15 1    
    42   42   15 1    
    43   43   15 1    
    44   20   16 1    
    45   26   16 1    
    46   25   17 1    
    47   20   18 ar   
    48   21   19 ar   
    49   22   21 1    
    50   23   22 1    
    51   44   22 1    
    52   24   23 1    
    53   45   23 1    
    54   25   24 1    
    55   46   24 1    
@<TRIPOS>SUBSTRUCTURE
     1 VZ4263      1 GROUP   
@<TRIPOS>SET

