#    Name: 1tnd_GSP_2_INTS_M
#    Modification time : Tue Mar 25 05:33:07 2014

@<TRIPOS>MOLECULE
1tnd_GSP_2_INTS_M
   92     0    15     0     0
SMALL
NO_CHARGES


@<TRIPOS>ATOM
      1 N          -2.4010   57.9200   11.2095 N.am      2 SEC2        0.0000 
      2 N          -3.2050   58.9390   12.0980 N.am     12 SEL2        0.0000 
      3 N          -1.5970   56.9010   10.3210 N.am      7 SEP2        0.0000 
      4 N          -3.3720   59.7100   10.6990 N.am      2 SEC2        0.0000 
      5 N          -3.5390   60.4810    9.3000 N.am      7 SEP2        0.0000 
      6 CA         -0.0590   58.4625   11.1790 C.3       5 GLC5        0.0000 
      7 CA         -0.7790   60.1270   11.1780 C.3      15 GLL5        0.0000 
      8 CA          0.6610   56.7980   11.1800 C.3      10 GLP5        0.0000 
      9 CA         -1.7610   58.3775   10.3120 C.3       5 GLC5        0.0000 
     10 CA         -2.7430   56.6280    9.4460 C.3      10 GLP5        0.0000 
     11 CA         -0.0520   62.0405   11.0485 C.3       5 GLC5        0.0000 
     12 CA          0.6750   63.9540   10.9190 C.3      10 GLP5        0.0000 
     13 CA          1.0720   59.8495   10.7265 C.3       5 GLC5        0.0000 
     14 CA          2.9230   59.5720   10.2750 C.3      10 GLP5        0.0000 
     15 Zn         -3.4385   61.0790   13.5245 Zn        4 ZIC7        0.0000 
     16 Zn         -2.3940   61.0920   13.1790 Zn       14 ZIL7        0.0000 
     17 Zn         -4.4830   61.0660   13.8700 Zn        9 ZIP7        0.0000 
     18 N          -2.1570   62.5690   12.9955 N.am      2 SEC2        0.0000 
     19 N          -2.3940   61.0920   13.1790 N.am     12 SEL2        0.0000 
     20 N          -1.9200   64.0460   12.8120 N.am      7 SEP2        0.0000 
     21 N          -1.6275   57.8420   14.4165 N.am      2 SEC2        0.0000 
     22 N          -1.3760   58.8120   13.6700 N.am     12 SEL2        0.0000 
     23 N          -1.8790   56.8720   15.1630 N.am      7 SEP2        0.0000 
     24 NZ         -3.0275   56.8760   14.2140 N.4       3 LYC4        0.0000 
     25 NZ         -4.1760   56.8800   13.2650 N.4      13 LYL4        0.0000 
     26 NZ         -1.8790   56.8720   15.1630 N.4       8 LYP4        0.0000 
     27 N          -5.0865   55.8870   12.6520 N.am      2 SEC2        0.0000 
     28 N          -4.1760   56.8800   13.2650 N.am     12 SEL2        0.0000 
     29 N          -5.9970   54.8940   12.0390 N.am      7 SEP2        0.0000 
     30 N          -5.4310   56.5145   13.8305 N.am      2 SEC2        0.0000 
     31 N          -6.6860   56.1490   14.3960 N.am      7 SEP2        0.0000 
     32 N          -3.0275   56.8760   14.2140 N.am      2 SEC2        0.0000 
     33 Zn         -4.9660   60.0535   13.6345 Zn        4 ZIC7        0.0000 
     34 Zn         -5.4490   59.0410   13.3990 Zn       14 ZIL7        0.0000 
     35 N          -6.4935   58.9670   14.2475 N.am      2 SEC2        0.0000 
     36 N          -5.4490   59.0410   13.3990 N.am     12 SEL2        0.0000 
     37 N          -7.5380   58.8930   15.0960 N.am      7 SEP2        0.0000 
     38 N          -8.8155   58.5495   12.7040 N.am      2 SEC2        0.0000 
     39 N          -7.6910   58.3710   11.6440 N.am     12 SEL2        0.0000 
     40 N          -9.9400   58.7280   13.7640 N.am      7 SEP2        0.0000 
     41 N          -9.0505   58.1850   11.3005 N.am      2 SEC2        0.0000 
     42 N         -10.4100   57.9990   10.9570 N.am      7 SEP2        0.0000 
     43 NZ         -4.8075   60.1795    9.7795 N.4       3 LYC4        0.0000 
     44 NZ         -6.0760   59.8780   10.2590 N.4      13 LYL4        0.0000 
     45 NZ         -2.8380   61.0390    8.2920 N.4       8 LYP4        0.0000 
     46 N          -4.8075   60.1795    9.7795 N.am      2 SEC2        0.0000 
     47 N          -6.0760   59.8780   10.2590 N.am     12 SEL2        0.0000 
     48 N          -5.6135   56.3825   11.6845 N.am      2 SEC2        0.0000 
     49 N          -5.2300   57.8710   11.3300 N.am     12 SEL2        0.0000 
     50 CA         -4.4480   57.2625    8.7715 C.3       5 GLC5        0.0000 
     51 CA         -6.1530   57.8970    8.0970 C.3      15 GLL5        0.0000 
     52 CA         -7.2755   56.9165    5.3020 C.3       5 GLC5        0.0000 
     53 CA         -7.2730   57.8160    6.9650 C.3      15 GLL5        0.0000 
     54 CA         -7.2780   56.0170    3.6390 C.3      10 GLP5        0.0000 
     55 CA         -7.7105   60.4780    6.4755 C.3       5 GLC5        0.0000 
     56 CA         -8.5400   58.7160    7.1750 C.3      15 GLL5        0.0000 
     57 CA         -6.8810   62.2400    5.7760 C.3      10 GLP5        0.0000 
     58 O          -9.9625   60.1440    5.4640 O.2       1 ALC1        0.0000 
     59 O          -8.7680   59.3580    5.9730 O.2      11 ALL1        0.0000 
     60 O         -11.1570   60.9300    4.9550 O.2       6 ALP1        0.0000 
     61 CA        -11.4480   58.9885    6.7165 C.3       5 GLC5        0.0000 
     62 CA         -9.7100   57.8660    7.5010 C.3      15 GLL5        0.0000 
     63 CA        -13.1860   60.1110    5.9320 C.3      10 GLP5        0.0000 
     64 O         -11.9945   58.9585    7.8425 O.2       1 ALC1        0.0000 
     65 O         -10.9790   58.4790    7.1710 O.2      11 ALL1        0.0000 
     66 O         -13.0100   59.4380    8.5140 O.2       6 ALP1        0.0000 
     67 CA         -8.2710   56.2810    5.2485 C.3       5 GLC5        0.0000 
     68 CA         -9.2640   56.5450    6.8580 C.3      15 GLL5        0.0000 
     69 N          -9.7270   52.7850   10.1680 N.am      2 SEC2        0.0000 
     70 N         -10.2260   54.0280    9.3370 N.am     12 SEL2        0.0000 
     71 N          -9.2280   51.5420   10.9990 N.am      7 SEP2        0.0000 
     72 CA         -9.5015   52.1365    8.0670 C.3       5 GLC5        0.0000 
     73 CA        -10.7520   53.5070    8.1770 C.3      15 GLL5        0.0000 
     74 CA         -8.2510   50.7660    7.9570 C.3      10 GLP5        0.0000 
     75 CA        -11.2345   53.5305   10.0610 C.3       5 GLC5        0.0000 
     76 CA        -11.7170   53.5540   11.9450 C.3      10 GLP5        0.0000 
     77 N         -12.4410   51.5595   10.0090 N.am      2 SEC2        0.0000 
     78 N         -11.8290   51.4500    8.8310 N.am     12 SEL2        0.0000 
     79 N         -13.0530   51.6690   11.1870 N.am      7 SEP2        0.0000 
     80 O         -12.3000   50.7465    6.2325 O.2       1 ALC1        0.0000 
     81 O         -11.8300   52.1350    6.6020 O.2      11 ALL1        0.0000 
     82 O         -12.7700   49.3580    5.8630 O.2       6 ALP1        0.0000 
     83 O         -12.8410   51.5845    4.3030 O.2       1 ALC1        0.0000 
     84 O         -11.8720   52.7410    4.3400 O.2      11 ALL1        0.0000 
     85 O         -13.8100   50.4280    4.2660 O.2       6 ALP1        0.0000 
     86 CA         -8.5340   53.4880    7.4820 C.3       5 GLC5        0.0000 
     87 CA        -10.4540   54.3420    7.1060 C.3      15 GLL5        0.0000 
     88 CA         -6.6140   52.6340    7.8580 C.3      10 GLP5        0.0000 
     89 CA         -5.8320   59.7097    7.3410 C.3       5 GLC5        0.0000 
     90 CA         -4.9510   61.5630    7.1510 C.3      10 GLP5        0.0000 
     91 CA        -12.1210   54.7683    7.6988 C.3       5 GLC5        0.0000 
     92 CA        -13.6390   55.6120    7.7560 C.3      10 GLP5        0.0000 
@<TRIPOS>BOND
@<TRIPOS>SUBSTRUCTURE
     1 ALC1       58 GROUP        1 X    ALC  0     ROOT ALC X 1
     2 SEC2        1 GROUP        1 X    SEC  0     **** SEC X 2
     3 LYC4       24 GROUP        1 X    LYC  0     **** LYC X 4
     4 ZIC7       15 GROUP        1 X    ZIC  0     **** ZIC X 5
     5 GLC5        6 GROUP        1 X    GLC  0     **** GLC X 6
     6 ALP1       60 GROUP        1 Y    ALP  0     ROOT ALP Y 8
     7 SEP2        3 GROUP        1 Y    SEP  0     **** SEP Y 9
     8 LYP4       26 GROUP        1 Y    LYP  0     **** LYP Y 11
     9 ZIP7       17 GROUP        1 Y    ZIP  0     **** ZIP Y 12
    10 GLP5        8 GROUP        1 Y    GLP  0     **** GLP Y 13
    11 ALL1       59 GROUP        1 Z    ALL  0     ROOT ALL Z 15
    12 SEL2        2 GROUP        1 Z    SEL  0     **** SEL Z 16
    13 LYL4       25 GROUP        1 Z    LYL  0     **** LYL Z 18
    14 ZIL7       16 GROUP        1 Z    ZIL  0     **** ZIL Z 19
    15 GLL5        7 GROUP        1 Z    GLL  0     **** GLL Z 20
@<TRIPOS>SET

