#    Name: 1tnd_GSP_2_ligand
#    Modification time : Tue Mar 25 05:33:07 2014

@<TRIPOS>MOLECULE
1tnd_GSP_2_ligand
   45    47     1     0     0
SMALL
NO_CHARGES


@<TRIPOS>ATOM
      1 PG         -1.8770   59.7830   12.6630 P.3       1 GSP351      0.0000 
      2 O3B        -3.2050   58.9390   12.0980 O.3       1 GSP351      0.0000 
      3 S1G        -0.7790   60.1270   11.1780 S.2       1 GSP351      0.0000 
      4 O2G        -2.3940   61.0920   13.1790 O.3       1 GSP351      0.0000 
      5 O3G        -1.3760   58.8120   13.6700 O.3       1 GSP351      0.0000 
      6 PB         -4.4690   58.2060   12.7130 P.3       1 GSP351      0.0000 
      7 O1B        -4.1760   56.8800   13.2650 O.co2     1 GSP351      0.0000 
      8 O2B        -5.4490   59.0410   13.3990 O.co2     1 GSP351      0.0000 
      9 PA         -6.5920   58.5610   10.6850 P.3       1 GSP351      0.0000 
     10 O1A        -7.6910   58.3710   11.6440 O.co2     1 GSP351      0.0000 
     11 O2A        -6.0760   59.8780   10.2590 O.co2     1 GSP351      0.0000 
     12 O3A        -5.2300   57.8710   11.3300 O.3       1 GSP351      0.0000 
     13 O5'        -6.7080   57.5500    9.3540 O.3       1 GSP351      0.0000 
     14 C5'        -6.1530   57.8970    8.0970 C.3       1 GSP351      0.0000 
     15 C4'        -7.2730   57.8160    6.9650 C.3       1 GSP351      0.0000 
     16 O4'        -7.8010   56.4900    6.7570 O.3       1 GSP351      0.0000 
     17 C3'        -8.5400   58.7160    7.1750 C.3       1 GSP351      0.0000 
     18 O3'        -8.7680   59.3580    5.9730 O.3       1 GSP351      0.0000 
     19 C2'        -9.7100   57.8660    7.5010 C.3       1 GSP351      0.0000 
     20 O2'       -10.9790   58.4790    7.1710 O.3       1 GSP351      0.0000 
     21 C1'        -9.2640   56.5450    6.8580 C.3       1 GSP351      0.0000 
     22 N9         -9.7410   55.3860    7.6130 N.pl3     1 GSP351      0.0000 
     23 C8         -9.6600   55.1180    8.9100 C.2       1 GSP351      0.0000 
     24 N7        -10.2260   54.0280    9.3370 N.2       1 GSP351      0.0000 
     25 C5        -10.7520   53.5070    8.1770 C.2       1 GSP351      0.0000 
     26 C6        -11.4950   52.2850    7.9760 C.2       1 GSP351      0.0000 
     27 O6        -11.8290   51.4500    8.8310 O.2       1 GSP351      0.0000 
     28 N1        -11.8300   52.1350    6.6020 N.am      1 GSP351      0.0000 
     29 C2        -11.4880   53.0280    5.5820 C.2       1 GSP351      0.0000 
     30 N2        -11.8720   52.7410    4.3400 N.pl3     1 GSP351      0.0000 
     31 N3        -10.7830   54.1710    5.7810 N.2       1 GSP351      0.0000 
     32 C4        -10.4540   54.3420    7.1060 C.2       1 GSP351      0.0000 
     33 H          -5.3559   57.2203    7.7796 H         1 GSP351      0.0000 
     34 H          -5.7687   58.9195    8.0664 H         1 GSP351      0.0000 
     35 H          -6.8127   58.1644    6.0207 H         1 GSP351      0.0000 
     36 H          -8.3248   59.3816    7.9722 H         1 GSP351      0.0000 
     37 H          -9.6229   57.6880    8.6068 H         1 GSP351      0.0000 
     38 H          -9.6869   56.5157    5.8490 H         1 GSP351      0.0000 
     39 H          -9.1595   55.7639    9.5508 H         1 GSP351      0.0000 
     40 H         -12.3858   51.2705    6.3385 H         1 GSP351      0.0000 
     41 H         -11.5867   53.3860    3.6311 H         1 GSP351      0.0000 
     42 H         -12.4111   51.9063    4.2279 H         1 GSP351      0.0000 
     43 H          -1.7715   57.9336   13.4015 H         1 GSP351      0.0000 
     44 H          -9.7455   59.2399    5.7980 H         1 GSP351      0.0000 
     45 H         -11.4217   58.6476    8.0517 H         1 GSP351      0.0000 
@<TRIPOS>BOND
     1    2    1 1    
     2    3    1 2    
     3    4    1 1    
     4    5    1 1    
     5    6    2 1    
     6   43    5 1    
     7    7    6 ar   
     8    8    6 ar   
     9   12    6 1    
    10   10    9 ar   
    11   11    9 ar   
    12   12    9 1    
    13   13    9 1    
    14   14   13 1    
    15   15   14 1    
    16   33   14 1    
    17   34   14 1    
    18   16   15 1    
    19   17   15 1    
    20   35   15 1    
    21   21   16 1    
    22   18   17 1    
    23   19   17 1    
    24   36   17 1    
    25   44   18 1    
    26   20   19 1    
    27   21   19 1    
    28   37   19 1    
    29   45   20 1    
    30   22   21 1    
    31   38   21 1    
    32   23   22 1    
    33   32   22 1    
    34   24   23 2    
    35   39   23 1    
    36   25   24 1    
    37   26   25 1    
    38   32   25 2    
    39   27   26 2    
    40   28   26 am   
    41   29   28 1    
    42   40   28 1    
    43   30   29 1    
    44   31   29 2    
    45   41   30 1    
    46   42   30 1    
    47   32   31 1    
@<TRIPOS>SUBSTRUCTURE
     1 GSP351      1 GROUP   
@<TRIPOS>SET

