#    Name: 1ae8_AZL_1_INTS_M
#    Modification time : Mon Mar 24 18:17:47 2014

@<TRIPOS>MOLECULE
1ae8_AZL_1_INTS_M
   71     0    12     0     0
SMALL
NO_CHARGES


@<TRIPOS>ATOM
      1 CA         14.0910  -18.2505   24.9375 C.3       4 GLC5        0.0000 
      2 CA         14.6030  -19.4080   23.0990 C.3      12 GLL5        0.0000 
      3 CA         13.5790  -17.0930   26.7760 C.3       8 GLP5        0.0000 
      4 O          15.5155  -16.0885   24.4850 O.2       1 ALC1        0.0000 
      5 O          16.7740  -17.0260   24.1380 O.2       9 ALL1        0.0000 
      6 O          14.2570  -15.1510   24.8320 O.2       5 ALP1        0.0000 
      7 N          15.9745  -13.4120   24.6325 N.am      2 SEC2        0.0000 
      8 N          16.8600  -14.1800   23.6670 N.am     10 SEL2        0.0000 
      9 N          15.0890  -12.6440   25.5980 N.am      6 SEP2        0.0000 
     10 CA         18.0580  -14.5100   26.7880 C.3       4 GLC5        0.0000 
     11 CA         18.5910  -16.0950   25.4230 C.3      12 GLL5        0.0000 
     12 CA         17.5250  -12.9250   28.1530 C.3       8 GLP5        0.0000 
     13 CA         18.2015  -12.3765   23.5340 C.3       4 GLC5        0.0000 
     14 CA         18.5360  -13.2170   21.8590 C.3      12 GLL5        0.0000 
     15 CA         17.8670  -11.5360   25.2090 C.3       8 GLP5        0.0000 
     16 CA         19.6920  -11.4860   19.7880 C.3       4 GLC5        0.0000 
     17 CA         19.6880  -13.0940   20.8630 C.3      12 GLL5        0.0000 
     18 CA         19.6960   -9.8780   18.7130 C.3       8 GLP5        0.0000 
     19 CA         22.2970  -14.7415   20.5550 C.3       4 GLC5        0.0000 
     20 CA         20.5500  -14.3460   21.0150 C.3      12 GLL5        0.0000 
     21 CA         24.0440  -15.1370   20.0950 C.3       8 GLP5        0.0000 
     22 OD1         9.4810  -11.6840   25.0335 O.co2     3 ASC3        0.0000 
     23 OD1        10.5710  -12.9710   24.0840 O.co2    11 ASL3        0.0000 
     24 OD1         8.3910  -10.3970   25.9830 O.co2     7 ASP3        0.0000 
     25 OD1         9.4160  -12.7865   25.0435 O.co2     3 ASC3        0.0000 
     26 OD1         8.2610  -12.6020   26.0030 O.co2     7 ASP3        0.0000 
     27 O          10.7730  -11.7935   24.7680 O.2       1 ALC1        0.0000 
     28 O          10.5710  -12.9710   24.0840 O.2       9 ALL1        0.0000 
     29 O          10.9750  -10.6160   25.4520 O.2       5 ALP1        0.0000 
     30 O           9.4160  -12.7865   25.0435 O.2       1 ALC1        0.0000 
     31 O           8.2610  -12.6020   26.0030 O.2       5 ALP1        0.0000 
     32 O          10.5760  -14.2540   24.3305 O.2       1 ALC1        0.0000 
     33 O          10.5810  -15.5370   24.5770 O.2       5 ALP1        0.0000 
     34 CA         10.1560  -10.2680   22.7250 C.3       4 GLC5        0.0000 
     35 CA         10.9960  -12.1610   22.9970 C.3      12 GLL5        0.0000 
     36 CA          9.3160   -8.3750   22.4530 C.3       8 GLP5        0.0000 
     37 CA          9.8675  -13.6975   22.2485 C.3       4 GLC5        0.0000 
     38 CA          8.7390  -15.2340   21.5000 C.3       8 GLP5        0.0000 
     39 CA         13.1995  -12.9395   24.4420 C.3       4 GLC5        0.0000 
     40 CA         12.3300  -12.5690   22.5120 C.3      12 GLL5        0.0000 
     41 CA         14.0690  -13.3100   26.3720 C.3       8 GLP5        0.0000 
     42 CA         12.8845   -9.3375   21.8585 C.3       4 GLC5        0.0000 
     43 CA         12.9680  -11.5610   21.5890 C.3      12 GLL5        0.0000 
     44 CA         12.8010   -7.1140   22.1280 C.3       8 GLP5        0.0000 
     45 CA         15.4775  -11.1685   23.3720 C.3       4 GLC5        0.0000 
     46 CA         14.4500  -11.4660   21.8700 C.3      12 GLL5        0.0000 
     47 CA         16.5050  -10.8710   24.8740 C.3       8 GLP5        0.0000 
     48 O          17.5755  -10.5910   20.1600 O.2       1 ALC1        0.0000 
     49 O          16.6470  -11.7660   21.0510 O.2       9 ALL1        0.0000 
     50 O          18.5040   -9.4160   19.2690 O.2       5 ALP1        0.0000 
     51 O          17.1415  -10.6410   21.9240 O.2       1 ALC1        0.0000 
     52 O          17.6360   -9.5160   22.7970 O.2       5 ALP1        0.0000 
     53 CA         12.5237  -18.9917   23.8552 C.3       4 GLC5        0.0000 
     54 CA         10.7910  -17.9250   24.3830 C.3       8 GLP5        0.0000 
     55 CA         19.6028  -15.8652   27.3320 C.3       4 GLC5        0.0000 
     56 CA         19.9130  -15.8950   29.2460 C.3       8 GLP5        0.0000 
     57 CA         20.4075  -14.9913   27.6255 C.3       4 GLC5        0.0000 
     58 CA         20.2530  -14.3360   25.9810 C.3      12 GLL5        0.0000 
     59 CA         19.3845  -12.8117   25.6070 C.3       4 GLC5        0.0000 
     60 CA         23.4808  -13.2873   26.9590 C.3       4 GLC5        0.0000 
     61 CA         21.5510  -13.8390   26.0290 C.3      12 GLL5        0.0000 
     62 CA         24.8830  -12.3650   28.1540 C.3       8 GLP5        0.0000 
     63 CA         22.3533  -12.5732   24.8730 C.3       4 GLC5        0.0000 
     64 CA         22.6060  -14.5800   25.4990 C.3      12 GLL5        0.0000 
     65 CA         22.6280  -10.9370   23.9820 C.3       8 GLP5        0.0000 
     66 CA         20.5775  -12.2884   22.1920 C.3       4 GLC5        0.0000 
     67 CA         21.3240  -10.8260   23.1960 C.3       8 GLP5        0.0000 
     68 CA         19.6460  -15.4027   19.6195 C.3       4 GLC5        0.0000 
     69 CA         19.3310  -16.3010   17.7950 C.3       8 GLP5        0.0000 
     70 CA         10.6422  -12.0085   21.1414 C.3       4 GLC5        0.0000 
     71 CA          8.9690  -12.0540   20.1110 C.3       8 GLP5        0.0000 
@<TRIPOS>BOND
@<TRIPOS>SUBSTRUCTURE
     1 ALC1        4 GROUP        1 X    ALC  0     ROOT ALC X 1
     2 SEC2        7 GROUP        1 X    SEC  0     **** SEC X 2
     3 ASC3       22 GROUP        1 X    ASC  0     **** ASC X 3
     4 GLC5        1 GROUP        1 X    GLC  0     **** GLC X 6
     5 ALP1        6 GROUP        1 Y    ALP  0     ROOT ALP Y 8
     6 SEP2        9 GROUP        1 Y    SEP  0     **** SEP Y 9
     7 ASP3       24 GROUP        1 Y    ASP  0     **** ASP Y 10
     8 GLP5        3 GROUP        1 Y    GLP  0     **** GLP Y 13
     9 ALL1        5 GROUP        1 Z    ALL  0     ROOT ALL Z 15
    10 SEL2        8 GROUP        1 Z    SEL  0     **** SEL Z 16
    11 ASL3       23 GROUP        1 Z    ASL  0     **** ASL Z 17
    12 GLL5        2 GROUP        1 Z    GLL  0     **** GLL Z 20
@<TRIPOS>SET

