#    Name: 1ae8_AZL_1_ligand
#    Modification time : Mon Mar 24 18:17:47 2014

@<TRIPOS>MOLECULE
1ae8_AZL_1_ligand
   64    65     1     0     0
SMALL
NO_CHARGES


@<TRIPOS>ATOM
      1 C23        16.7700  -18.3540   23.8280 C.2       1 AZL600      0.0000 
      2 O23        17.8330  -18.7340   23.3830 O.2       1 AZL600      0.0000 
      3 O24        15.6670  -19.0840   23.9780 O.3       1 AZL600      0.0000 
      4 C24        14.6030  -19.4080   23.0990 C.3       1 AZL600      0.0000 
      5 C25        13.9100  -20.7090   23.5560 C.3       1 AZL600      0.0000 
      6 N9         16.7740  -17.0260   24.1380 N.am      1 AZL600      0.0000 
      7 C15        18.0060  -16.2790   24.0200 C.3       1 AZL600      0.0000 
      8 C14        17.7750  -14.9220   23.3340 C.2       1 AZL600      0.0000 
      9 O14        16.8600  -14.1800   23.6670 O.2       1 AZL600      0.0000 
     10 C16        18.5910  -16.0950   25.4230 C.3       1 AZL600      0.0000 
     11 C17        19.9940  -15.5760   25.4130 C.ar      1 AZL600      0.0000 
     12 C18        21.0540  -16.3160   24.8770 C.ar      1 AZL600      0.0000 
     13 C22        20.2530  -14.3360   25.9810 C.ar      1 AZL600      0.0000 
     14 C19        22.3590  -15.8240   24.9160 C.ar      1 AZL600      0.0000 
     15 C21        21.5510  -13.8390   26.0290 C.ar      1 AZL600      0.0000 
     16 C20        22.6060  -14.5800   25.4990 C.ar      1 AZL600      0.0000 
     17 N8         18.6650  -14.5390   22.4630 N.am      1 AZL600      0.0000 
     18 C9         18.5360  -13.2170   21.8590 C.3       1 AZL600      0.0000 
     19 C8         17.1720  -13.0360   21.1350 C.2       1 AZL600      0.0000 
     20 O8         16.7160  -13.9590   20.5140 O.2       1 AZL600      0.0000 
     21 C10        19.6880  -13.0940   20.8630 C.3       1 AZL600      0.0000 
     22 C11        20.5500  -14.3460   21.0150 C.3       1 AZL600      0.0000 
     23 C12        19.8030  -15.2890   21.9490 C.3       1 AZL600      0.0000 
     24 N1         10.5710  -12.9710   24.0840 N.4       1 AZL600      0.0000 
     25 C2         10.9960  -12.1610   22.9970 C.3       1 AZL600      0.0000 
     26 C3         12.3300  -12.5690   22.5120 C.3       1 AZL600      0.0000 
     27 C4         12.9680  -11.5610   21.5890 C.3       1 AZL600      0.0000 
     28 C5         14.4500  -11.4660   21.8700 C.3       1 AZL600      0.0000 
     29 N6         15.3350  -11.5250   20.7240 N.pl3     1 AZL600      0.0000 
     30 N7         16.6470  -11.7660   21.0510 N.am      1 AZL600      0.0000 
     31 H          14.9495  -19.5698   22.0696 H         1 AZL600      0.0000 
     32 H          13.8344  -18.6242   23.0708 H         1 AZL600      0.0000 
     33 H          15.9400  -16.5331   24.4517 H         1 AZL600      0.0000 
     34 H          18.7296  -16.8360   23.4338 H         1 AZL600      0.0000 
     35 H          18.5553  -17.0651   25.9450 H         1 AZL600      0.0000 
     36 H          17.9409  -15.4034   25.9833 H         1 AZL600      0.0000 
     37 H          20.8665  -17.2352   24.4487 H         1 AZL600      0.0000 
     38 H          19.4772  -13.7780   26.3709 H         1 AZL600      0.0000 
     39 H          23.1283  -16.3699   24.5209 H         1 AZL600      0.0000 
     40 H          21.7347  -12.9212   26.4570 H         1 AZL600      0.0000 
     41 H          23.5633  -14.2122   25.5370 H         1 AZL600      0.0000 
     42 H          18.6454  -12.4487   22.5944 H         1 AZL600      0.0000 
     43 H          20.2727  -12.2241   21.0947 H         1 AZL600      0.0000 
     44 H          19.2968  -13.0453   19.8645 H         1 AZL600      0.0000 
     45 H          21.4952  -14.0804   21.4486 H         1 AZL600      0.0000 
     46 H          20.6782  -14.8119   20.0567 H         1 AZL600      0.0000 
     47 H          19.4828  -16.1513   21.3848 H         1 AZL600      0.0000 
     48 H          20.4692  -15.5863   22.7442 H         1 AZL600      0.0000 
     49 H          11.0365  -11.0927   23.2910 H         1 AZL600      0.0000 
     50 H          10.2782  -12.2206   22.1540 H         1 AZL600      0.0000 
     51 H          12.2567  -13.5383   21.9803 H         1 AZL600      0.0000 
     52 H          13.0073  -12.7388   23.3722 H         1 AZL600      0.0000 
     53 H          12.5073  -10.5854   21.7404 H         1 AZL600      0.0000 
     54 H          12.8143  -11.8657   20.5544 H         1 AZL600      0.0000 
     55 H          14.7112  -12.2796   22.6020 H         1 AZL600      0.0000 
     56 H          14.6277  -10.5164   22.4467 H         1 AZL600      0.0000 
     57 H          14.9920  -11.3997   19.8167 H         1 AZL600      0.0000 
     58 H          17.2784  -10.9468   21.2457 H         1 AZL600      0.0000 
     59 H          14.5426  -21.4834   23.5648 H         1 AZL600      0.0000 
     60 H          13.5357  -20.6258   24.4796 H         1 AZL600      0.0000 
     61 H          13.1514  -20.9571   22.9536 H         1 AZL600      0.0000 
     62 H           9.5755  -13.0617   24.1126 H         1 AZL600      0.0000 
     63 H          10.9481  -13.8955   24.0279 H         1 AZL600      0.0000 
     64 H          10.8560  -12.5911   24.9639 H         1 AZL600      0.0000 
@<TRIPOS>BOND
     1    2    1 2    
     2    3    1 1    
     3    6    1 am   
     4    4    3 1    
     5    5    4 1    
     6   31    4 1    
     7   32    4 1    
     8   59    5 1    
     9   60    5 1    
    10   61    5 1    
    11    7    6 1    
    12   33    6 1    
    13    8    7 1    
    14   10    7 1    
    15   34    7 1    
    16    9    8 2    
    17   17    8 am   
    18   11   10 1    
    19   35   10 1    
    20   36   10 1    
    21   12   11 ar   
    22   13   11 ar   
    23   14   12 ar   
    24   37   12 1    
    25   15   13 ar   
    26   38   13 1    
    27   16   14 ar   
    28   39   14 1    
    29   16   15 ar   
    30   40   15 1    
    31   41   16 1    
    32   18   17 1    
    33   23   17 1    
    34   19   18 1    
    35   21   18 1    
    36   42   18 1    
    37   20   19 2    
    38   30   19 am   
    39   22   21 1    
    40   43   21 1    
    41   44   21 1    
    42   23   22 1    
    43   45   22 1    
    44   46   22 1    
    45   47   23 1    
    46   48   23 1    
    47   25   24 1    
    48   62   24 1    
    49   63   24 1    
    50   64   24 1    
    51   26   25 1    
    52   49   25 1    
    53   50   25 1    
    54   27   26 1    
    55   51   26 1    
    56   52   26 1    
    57   28   27 1    
    58   53   27 1    
    59   54   27 1    
    60   29   28 1    
    61   55   28 1    
    62   56   28 1    
    63   30   29 1    
    64   57   29 1    
    65   58   30 1    
@<TRIPOS>SUBSTRUCTURE
     1 AZL600      1 GROUP   
@<TRIPOS>SET

