#    Name: 3KGC_1_CAVITY_N1_6.mol2
#    Modification time : Tue Mar 11 07:10:11 2014

@<TRIPOS>MOLECULE
3KGC_1_CAVITY_N1_6.mol2
   84     0     6     0     0
SMALL
NO_CHARGES


@<TRIPOS>ATOM
      1 N          15.0648   53.6757   -4.9534 N.2       2 ALA2        0.0000 
      2 N          13.8788   54.4160   -4.4099 N.2       2 ALA2        0.0000 
      3 CA         15.4155   51.6968   -5.6325 C.3       5 GLY6        0.0000 
      4 CA         14.2295   52.4371   -5.0890 C.3       5 GLY6        0.0000 
      5 OG         13.0435   53.1774   -4.5454 O.2       1 SER1        0.0000 
      6 CA         14.5802   50.4583   -5.7681 C.3       5 GLY6        0.0000 
      7 CA         13.3943   51.1986   -5.2246 C.3       5 GLY6        0.0000 
      8 CA         15.4467   53.2658   -3.5619 C.3       5 GLY6        0.0000 
      9 CA         14.2607   54.0061   -3.0184 C.3       5 GLY6        0.0000 
     10 O          15.7974   51.2870   -4.2411 O.2       2 ALA2        0.0000 
     11 CA         14.6114   52.0273   -3.6975 C.3       5 GLY6        0.0000 
     12 OG         13.4254   52.7676   -3.1540 O.2       1 SER1        0.0000 
     13 DU         14.9621   50.0484   -4.3766 H         6 CUB7        0.0000 
     14 N          13.7762   50.7887   -3.8331 N.2       2 ALA2        0.0000 
     15 N          13.8073   52.3577   -1.7625 N.2       2 ALA2        0.0000 
     16 O          15.3440   49.6386   -2.9852 O.2       2 ALA2        0.0000 
     17 CA         14.1580   50.3789   -2.4416 C.3       5 GLY6        0.0000 
     18 N          12.9721   51.1192   -1.8981 N.2       2 ALA2        0.0000 
     19 CA         14.5088   48.4000   -3.1208 C.3       5 GLY6        0.0000 
     20 N          13.3228   49.1403   -2.5772 N.2       2 ALA2        0.0000 
     21 N          12.1368   49.8806   -2.0337 N.2       2 ALA2        0.0000 
     22 OG         10.9509   50.6209   -1.4901 O.2       1 SER1        0.0000 
     23 CA         16.9119   48.4884   -2.1373 C.3       5 GLY6        0.0000 
     24 CA         15.7259   49.2287   -1.5937 C.3       5 GLY6        0.0000 
     25 CA         14.5399   49.9690   -1.0502 C.3       5 GLY6        0.0000 
     26 CA         16.0766   47.2499   -2.2728 C.3       5 GLY6        0.0000 
     27 CA         14.8907   47.9902   -1.7293 C.3       5 GLY6        0.0000 
     28 N          13.7047   48.7305   -1.1857 N.2       2 ALA2        0.0000 
     29 N          12.5187   49.4708   -0.6422 N.2       2 ALA2        0.0000 
     30 N          11.3328   50.2111   -0.0986 N.2       2 ALA2        0.0000 
     31 CA         10.1468   50.9514    0.4449 C.3       5 GLY6        0.0000 
     32 N          12.8694   47.4919   -1.3213 N.2       2 ALA2        0.0000 
     33 O          11.6835   48.2322   -0.7778 O.2       2 ALA2        0.0000 
     34 N          10.4975   48.9725   -0.2342 N.2       2 ALA2        0.0000 
     35 N           9.3115   49.7128    0.3093 N.2       2 ALA2        0.0000 
     36 N          17.2938   48.0786   -0.7458 N.2       2 ALA2        0.0000 
     37 N          16.1078   48.8189   -0.2022 N.2       2 ALA2        0.0000 
     38 O          14.9218   49.5591    0.3413 O.2       2 ALA2        0.0000 
     39 DU         16.4585   46.8400   -0.8814 H         6 CUB7        0.0000 
     40 CA         15.2725   47.5803   -0.3378 C.3       5 GLY6        0.0000 
     41 OG         14.0866   48.3206    0.2057 O.2       1 SER1        0.0000 
     42 OG         12.9006   49.0609    0.7493 O.2       1 SER1        0.0000 
     43 OG         11.7146   49.8012    1.2928 O.2       1 SER1        0.0000 
     44 NZ         10.5287   50.5415    1.8364 N.2       4 LYS4        0.0000 
     45 O          13.2513   47.0821    0.0702 O.2       2 ALA2        0.0000 
     46 O          12.0654   47.8224    0.6137 O.2       2 ALA2        0.0000 
     47 N          10.8794   48.5627    1.1572 N.2       2 ALA2        0.0000 
     48 N           9.6934   49.3030    1.7008 N.2       2 ALA2        0.0000 
     49 NZ          8.5075   50.0433    2.2443 N.2       4 LYS4        0.0000 
     50 N           8.8582   48.0644    1.5652 N.2       2 ALA2        0.0000 
     51 N           7.6722   48.8047    2.1088 N.2       2 ALA2        0.0000 
     52 N          16.4897   48.4090    1.1892 N.2       2 ALA2        0.0000 
     53 OG         16.8404   46.4302    0.5101 O.2       1 SER1        0.0000 
     54 CA         15.6544   47.1705    1.0536 C.3       5 GLY6        0.0000 
     55 OG         14.4685   47.9108    1.5972 O.2       1 SER1        0.0000 
     56 NZ         10.9106   50.1316    3.2278 N.2       4 LYS4        0.0000 
     57 CA         12.4473   47.4125    2.0052 C.3       5 GLY6        0.0000 
     58 OG         11.2613   48.1528    2.5487 O.2       1 SER1        0.0000 
     59 NZ         10.0753   48.8931    3.0923 N.2       4 LYS4        0.0000 
     60 O          10.4260   46.9143    2.4131 O.2       2 ALA2        0.0000 
     61 CA          9.2401   47.6546    2.9567 C.3       5 GLY6        0.0000 
     62 CA          8.0541   48.3949    3.5002 C.3       5 GLY6        0.0000 
     63 CA         16.8716   47.9991    2.5807 C.3       5 GLY6        0.0000 
     64 OG         16.0363   46.7606    2.4451 O.2       1 SER1        0.0000 
     65 OG         14.8504   47.5009    2.9887 O.2       1 SER1        0.0000 
     66 CA         11.2925   49.7218    4.6193 C.3       5 GLY6        0.0000 
     67 CA         12.8292   47.0027    3.3966 C.3       5 GLY6        0.0000 
     68 OG         11.6432   47.7429    3.9402 O.2       1 SER1        0.0000 
     69 NZ         10.4572   48.4832    4.4837 N.2       4 LYS4        0.0000 
     70 NZ          9.2712   49.2235    5.0273 N.2       4 LYS4        0.0000 
     71 O          10.8079   46.5044    3.8046 O.2       2 ALA2        0.0000 
     72 CA          9.6220   47.2447    4.3481 C.3       5 GLY6        0.0000 
     73 CA          8.7867   46.0062    4.2126 C.3       5 GLY6        0.0000 
     74 CA         17.2535   47.5893    3.9722 C.3       5 GLY6        0.0000 
     75 OG         16.0675   48.3296    4.5157 O.2       1 SER1        0.0000 
     76 OG         15.2323   47.0910    4.3801 O.2       1 SER1        0.0000 
     77 OG         14.0463   47.8313    4.9237 O.2       1 SER1        0.0000 
     78 OG         12.8603   48.5716    5.4672 O.2       1 SER1        0.0000 
     79 CA         11.6744   49.3119    6.0108 C.3       5 GLY6        0.0000 
     80 CA         13.2110   46.5928    4.7881 C.3       5 GLY6        0.0000 
     81 DU         12.0251   47.3331    5.3316 H         6 CUB7        0.0000 
     82 DU         10.8391   48.0734    5.8752 H         6 CUB7        0.0000 
     83 CA         12.3758   45.3543    4.6525 C.3       5 GLY6        0.0000 
     84 OD1        11.1898   46.0946    5.1961 O.3       3 ASP3        0.0000 
@<TRIPOS>BOND
@<TRIPOS>SUBSTRUCTURE
     1 SER1        5 GROUP   
     2 ALA2        1 GROUP   
     3 ASP3       84 GROUP   
     4 LYS4       44 GROUP   
     5 GLY6        3 GROUP   
     6 CUB7       13 GROUP   
@<TRIPOS>SET

