#    Name: 3kgc_LY7_1_INTS_M
#    Modification time : Mon Mar 24 19:27:38 2014

@<TRIPOS>MOLECULE
3kgc_LY7_1_INTS_M
   64     0     6     0     0
SMALL
NO_CHARGES


@<TRIPOS>ATOM
      1 CA         12.8465   50.5245   -6.6595 C.3       2 GLC5        0.0000 
      2 CA         12.3680   51.6710   -5.0390 C.3       6 GLL5        0.0000 
      3 CA         13.3250   49.3780   -8.2800 C.3       4 GLP5        0.0000 
      4 CA         10.5910   50.9530   -5.9095 C.3       2 GLC5        0.0000 
      5 CA          8.8140   50.2350   -6.7800 C.3       4 GLP5        0.0000 
      6 CA         15.6100   53.0310   -6.3420 C.3       2 GLC5        0.0000 
      7 CA         14.4290   53.0820   -4.7730 C.3       6 GLL5        0.0000 
      8 CA         16.7910   52.9800   -7.9110 C.3       4 GLP5        0.0000 
      9 CA         12.9820   50.0090    1.8840 C.3       2 GLC5        0.0000 
     10 CA         12.2880   48.7820    0.2340 C.3       6 GLL5        0.0000 
     11 CA         13.6760   51.2360    3.5340 C.3       4 GLP5        0.0000 
     12 CA         11.0320   47.0730   -0.0670 C.3       2 GLC5        0.0000 
     13 CA          9.7760   45.3640   -0.3680 C.3       4 GLP5        0.0000 
     14 N          21.7275   40.4380   -3.0320 N.am      1 SEC2        0.0000 
     15 N          21.8840   41.8100   -2.3740 N.am      5 SEL2        0.0000 
     16 N          21.5710   39.0660   -3.6900 N.am      3 SEP2        0.0000 
     17 CA         22.2305   44.0225   -3.2550 C.3       2 GLC5        0.0000 
     18 CA         21.0180   42.5110   -2.1610 C.3       6 GLL5        0.0000 
     19 CA         23.4430   45.5340   -4.3490 C.3       4 GLP5        0.0000 
     20 CA         21.6165   45.7730   -0.9695 C.3       2 GLC5        0.0000 
     21 CA         19.9870   44.4740   -1.0820 C.3       6 GLL5        0.0000 
     22 CA         23.2460   47.0720   -0.8570 C.3       4 GLP5        0.0000 
     23 CA         17.6975   45.5705   -3.5615 C.3       2 GLC5        0.0000 
     24 CA         17.5770   43.8710   -2.3690 C.3       6 GLL5        0.0000 
     25 CA         17.8180   47.2700   -4.7540 C.3       4 GLP5        0.0000 
     26 CA         19.3295   46.3755    0.8060 C.3       2 GLC5        0.0000 
     27 CA         18.8550   45.2840   -0.8940 C.3       6 GLL5        0.0000 
     28 CA         19.8040   47.4670    2.5060 C.3       4 GLP5        0.0000 
     29 CA         14.3060   43.6895   -2.1710 C.3       2 GLC5        0.0000 
     30 CA         15.1530   45.3890   -1.5510 C.3       6 GLL5        0.0000 
     31 CA         13.4590   41.9900   -2.7910 C.3       4 GLP5        0.0000 
     32 CA         15.9625   50.0225   -0.6090 C.3       2 GLC5        0.0000 
     33 CA         15.6180   48.0000   -0.8690 C.3       6 GLL5        0.0000 
     34 CA         16.3070   52.0450   -0.3490 C.3       4 GLP5        0.0000 
     35 CA         11.9150   45.8195   -0.8900 C.3       2 GLC5        0.0000 
     36 CA         14.0540   46.2750   -1.4120 C.3       6 GLL5        0.0000 
     37 CA         13.4690   45.1245   -0.0450 C.3       2 GLC5        0.0000 
     38 CA         12.8840   43.9740    1.3220 C.3       4 GLP5        0.0000 
     39 CA         14.2205   46.8225   -2.9670 C.3       2 GLC5        0.0000 
     40 CA         14.3080   47.6080   -1.0630 C.3       6 GLL5        0.0000 
     41 CA         14.1330   46.0370   -4.8710 C.3       4 GLP5        0.0000 
     42 CA         14.0600   46.2600    0.5130 C.3       2 GLC5        0.0000 
     43 CA         13.8120   44.9120    2.0890 C.3       4 GLP5        0.0000 
     44 CA         11.5572   52.8097   -3.8305 C.3       2 GLC5        0.0000 
     45 CA         10.1380   53.8080   -3.0560 C.3       4 GLP5        0.0000 
     46 CA         15.1675   52.9915   -2.7080 C.3       2 GLC5        0.0000 
     47 CA         13.5850   51.9520   -4.1710 C.3       6 GLL5        0.0000 
     48 CA         16.3280   53.4660   -0.9440 C.3       4 GLP5        0.0000 
     49 CA         13.4644   53.2074   -6.4035 C.3       2 GLC5        0.0000 
     50 CA         13.2260   53.9680   -8.1180 C.3       4 GLP5        0.0000 
     51 CA         17.2497   41.6925   -1.9690 C.3       2 GLC5        0.0000 
     52 CA         18.7020   43.0730   -2.5670 C.3       6 GLL5        0.0000 
     53 CA         16.3600   39.9130   -1.4700 C.3       4 GLP5        0.0000 
     54 CA         20.0022   42.4712   -0.0716 C.3       2 GLC5        0.0000 
     55 CA         19.7820   41.2360    1.4190 C.3       4 GLP5        0.0000 
     56 CA         17.2033   46.8693   -2.9667 C.3       2 GLC5        0.0000 
     57 CA         16.4880   45.8030   -1.3490 C.3       6 GLL5        0.0000 
     58 CA         14.8163   45.2540    0.3195 C.3       2 GLC5        0.0000 
     59 CA         14.7415   50.6457   -0.8995 C.3       2 GLC5        0.0000 
     60 CA         13.3800   48.8290   -0.8310 C.3       6 GLL5        0.0000 
     61 CA         18.8880   46.1118   -2.7592 C.3       2 GLC5        0.0000 
     62 CA         17.6290   44.9780   -1.5090 C.3       6 GLL5        0.0000 
     63 CA         19.2510   47.2950   -4.2700 C.3       4 GLP5        0.0000 
     64 CA         14.8394   45.9273   -3.1431 C.3       2 GLC5        0.0000 
@<TRIPOS>BOND
@<TRIPOS>SUBSTRUCTURE
     1 SEC2       14 GROUP        1 X    SEC  0     ROOT SEC X 2
     2 GLC5        1 GROUP        1 X    GLC  0     **** GLC X 6
     3 SEP2       16 GROUP        1 Y    SEP  0     ROOT SEP Y 9
     4 GLP5        3 GROUP        1 Y    GLP  0     **** GLP Y 13
     5 SEL2       15 GROUP        1 Z    SEL  0     ROOT SEL Z 16
     6 GLL5        2 GROUP        1 Z    GLL  0     **** GLL Z 20
@<TRIPOS>SET

