#    Name: 3kgc_LY7_1_ligand
#    Modification time : Mon Mar 24 19:27:38 2014

@<TRIPOS>MOLECULE
3kgc_LY7_1_ligand
   46    47     1     0     0
SMALL
NO_CHARGES


@<TRIPOS>ATOM
      1 CAA        12.3680   51.6710   -5.0390 C.3       1 LY7264      0.0000 
      2 CAB        14.4290   53.0820   -4.7730 C.3       1 LY7264      0.0000 
      3 CAC        12.2880   48.7820    0.2340 C.3       1 LY7264      0.0000 
      4 NAD        21.8840   41.8100   -2.3740 N.1       1 LY7264      0.0000 
      5 OAE        14.9550   49.9480   -5.3520 O.2       1 LY7264      0.0000 
      6 OAF        15.7570   50.7680   -3.1150 O.2       1 LY7264      0.0000 
      7 CAG        21.0180   42.5110   -2.1610 C.1       1 LY7264      0.0000 
      8 CAH        18.7020   43.0730   -2.5670 C.ar      1 LY7264      0.0000 
      9 CAI        19.9870   44.4740   -1.0820 C.ar      1 LY7264      0.0000 
     10 CAJ        17.5770   43.8710   -2.3690 C.ar      1 LY7264      0.0000 
     11 CAK        18.8550   45.2840   -0.8940 C.ar      1 LY7264      0.0000 
     12 CAL        16.6890   47.1340   -1.0100 C.ar      1 LY7264      0.0000 
     13 CAM        15.1530   45.3890   -1.5510 C.ar      1 LY7264      0.0000 
     14 CAN        15.6180   48.0000   -0.8690 C.ar      1 LY7264      0.0000 
     15 CAO        14.0540   46.2750   -1.4120 C.ar      1 LY7264      0.0000 
     16 CAP        12.9720   49.6640   -2.0690 C.3       1 LY7264      0.0000 
     17 NAQ        13.6660   49.2860   -3.2980 N.pl3     1 LY7264      0.0000 
     18 CAR        19.8980   43.3670   -1.9240 C.ar      1 LY7264      0.0000 
     19 CAS        17.6290   44.9780   -1.5090 C.ar      1 LY7264      0.0000 
     20 CAT        16.4880   45.8030   -1.3490 C.ar      1 LY7264      0.0000 
     21 CAU        14.3080   47.6080   -1.0630 C.ar      1 LY7264      0.0000 
     22 CAV        13.5850   51.9520   -4.1710 C.3       1 LY7264      0.0000 
     23 CAW        13.3800   48.8290   -0.8310 C.3       1 LY7264      0.0000 
     24 SAX        14.5790   50.4380   -4.0000 S.o2      1 LY7264      0.0000 
     25 H          18.6446   42.2576   -3.1965 H         1 LY7264      0.0000 
     26 H          20.8607   44.6973   -0.6062 H         1 LY7264      0.0000 
     27 H          16.6972   43.6494   -2.8567 H         1 LY7264      0.0000 
     28 H          18.9246   46.1203   -0.2925 H         1 LY7264      0.0000 
     29 H          17.6529   47.4821   -0.8610 H         1 LY7264      0.0000 
     30 H          14.9668   44.4024   -1.8103 H         1 LY7264      0.0000 
     31 H          15.8116   48.9978   -0.6030 H         1 LY7264      0.0000 
     32 H          13.1100   45.9438   -1.5633 H         1 LY7264      0.0000 
     33 H          11.8748   49.5618   -2.1896 H         1 LY7264      0.0000 
     34 H          13.1569   50.7293   -1.8247 H         1 LY7264      0.0000 
     35 H          13.6367   48.4359   -3.7265 H         1 LY7264      0.0000 
     36 H          13.3099   52.1639   -3.1676 H         1 LY7264      0.0000 
     37 H          14.1711   49.6287   -0.3036 H         1 LY7264      0.0000 
     38 H          12.6277   51.3920   -5.9635 H         1 LY7264      0.0000 
     39 H          11.8025   50.9386   -4.6598 H         1 LY7264      0.0000 
     40 H          11.7824   52.4765   -5.1295 H         1 LY7264      0.0000 
     41 H          15.2358   53.2800   -4.2163 H         1 LY7264      0.0000 
     42 H          14.7548   52.8539   -5.6905 H         1 LY7264      0.0000 
     43 H          13.9097   53.9331   -4.8495 H         1 LY7264      0.0000 
     44 H          12.5645   48.2371    1.0256 H         1 LY7264      0.0000 
     45 H          12.0593   49.6949    0.5720 H         1 LY7264      0.0000 
     46 H          11.4429   48.3796   -0.1181 H         1 LY7264      0.0000 
@<TRIPOS>BOND
     1   22    1 1    
     2   38    1 1    
     3   39    1 1    
     4   40    1 1    
     5   22    2 1    
     6   41    2 1    
     7   42    2 1    
     8   43    2 1    
     9   23    3 1    
    10   44    3 1    
    11   45    3 1    
    12   46    3 1    
    13    7    4 3    
    14   24    5 2    
    15   24    6 2    
    16   18    7 1    
    17   10    8 ar   
    18   18    8 ar   
    19   25    8 1    
    20   11    9 ar   
    21   18    9 ar   
    22   26    9 1    
    23   19   10 ar   
    24   27   10 1    
    25   19   11 ar   
    26   28   11 1    
    27   14   12 ar   
    28   20   12 ar   
    29   29   12 1    
    30   15   13 ar   
    31   20   13 ar   
    32   30   13 1    
    33   21   14 ar   
    34   31   14 1    
    35   21   15 ar   
    36   32   15 1    
    37   17   16 1    
    38   23   16 1    
    39   33   16 1    
    40   34   16 1    
    41   24   17 1    
    42   35   17 1    
    43   20   19 1    
    44   23   21 1    
    45   24   22 1    
    46   36   22 1    
    47   37   23 1    
@<TRIPOS>SUBSTRUCTURE
     1 LY7264      1 GROUP   
@<TRIPOS>SET

