#    Name: 3zsw_ZSW_1_INTS_M
#    Modification time : Tue Mar 25 03:56:51 2014

@<TRIPOS>MOLECULE
3zsw_ZSW_1_INTS_M
   72     0     9     0     0
SMALL
NO_CHARGES


@<TRIPOS>ATOM
      1 CA        -10.1945   45.8905   -3.6000 C.3       3 GLC5        0.0000 
      2 CA        -11.6330   44.9920   -2.2660 C.3       9 GLL5        0.0000 
      3 CA         -8.7560   46.7890   -4.9340 C.3       6 GLP5        0.0000 
      4 CA        -10.9225   43.8330   -4.4330 C.3       3 GLC5        0.0000 
      5 CA        -12.5450   44.5530   -3.2070 C.3       9 GLL5        0.0000 
      6 CA         -9.3000   43.1130   -5.6590 C.3       6 GLP5        0.0000 
      7 CA        -14.5085   43.5095   -0.2105 C.3       3 GLC5        0.0000 
      8 CA        -14.3130   45.0460   -1.6400 C.3       9 GLL5        0.0000 
      9 CA        -14.7040   41.9730    1.2190 C.3       6 GLP5        0.0000 
     10 CA        -11.1590   42.0985    0.6725 C.3       3 GLC5        0.0000 
     11 CA         -9.0980   42.4120    0.4650 C.3       9 GLL5        0.0000 
     12 CA        -13.2200   41.7850    0.8800 C.3       6 GLP5        0.0000 
     13 CA         -6.0260   44.0250   -0.3665 C.3       3 GLC5        0.0000 
     14 CA         -7.7440   43.0790    0.5610 C.3       9 GLL5        0.0000 
     15 CA         -4.3080   44.9710   -1.2940 C.3       6 GLP5        0.0000 
     16 CA         -6.8815   42.0165   -1.0530 C.3       3 GLC5        0.0000 
     17 CA         -6.0190   40.9540   -2.6670 C.3       6 GLP5        0.0000 
     18 CA         -5.1625   44.3985    0.4455 C.3       3 GLC5        0.0000 
     19 CA         -6.0170   43.8260    2.1850 C.3       9 GLL5        0.0000 
     20 CA         -4.4370   42.6120    2.9720 C.3       3 GLC5        0.0000 
     21 CA         -2.8570   41.3980    3.7590 C.3       6 GLP5        0.0000 
     22 CA         -6.0755   41.7300    2.9860 C.3       3 GLC5        0.0000 
     23 CA         -6.1340   39.6340    3.7870 C.3       6 GLP5        0.0000 
     24 CA        -16.9290   45.8620   -1.0900 C.3       3 GLC5        0.0000 
     25 CA        -16.4880   44.3990   -2.2340 C.3       9 GLL5        0.0000 
     26 CA        -17.3700   47.3250    0.0540 C.3       6 GLP5        0.0000 
     27 CA        -17.8405   43.1640   -1.4525 C.3       3 GLC5        0.0000 
     28 CA        -19.1930   41.9290   -0.6710 C.3       6 GLP5        0.0000 
     29 CA        -15.9065   42.4150   -2.7330 C.3       3 GLC5        0.0000 
     30 CA        -15.3250   40.4310   -3.2320 C.3       6 GLP5        0.0000 
     31 CA        -15.1325   42.9705   -4.4995 C.3       3 GLC5        0.0000 
     32 CA        -16.0540   44.6830   -3.6480 C.3       9 GLL5        0.0000 
     33 CA        -14.2110   41.2580   -5.3510 C.3       6 GLP5        0.0000 
     34 CA        -15.2400   44.0295   -7.6150 C.3       3 GLC5        0.0000 
     35 CA        -16.5820   44.1220   -6.0450 C.3       9 GLL5        0.0000 
     36 CA        -13.8980   43.9370   -9.1850 C.3       6 GLP5        0.0000 
     37 CA        -15.3965   42.6900   -5.6980 C.3       3 GLC5        0.0000 
     38 CA        -18.4675   42.8330   -3.8180 C.3       3 GLC5        0.0000 
     39 CA        -17.0270   44.0090   -4.6020 C.3       9 GLL5        0.0000 
     40 CA        -19.9080   41.6570   -3.0340 C.3       6 GLP5        0.0000 
     41 CA        -16.1810   42.2775   -4.6105 C.3       3 GLC5        0.0000 
     42 CA        -15.3350   40.5460   -4.6190 C.3       6 GLP5        0.0000 
     43 O          -9.1055   44.4080    3.2830 O.2       1 ALC1        0.0000 
     44 O          -8.2960   44.8310    2.2410 O.2       7 ALL1        0.0000 
     45 O          -9.9150   43.9850    4.3250 O.2       4 ALP1        0.0000 
     46 N         -15.6915   45.5905    2.2310 N.am      2 SEC2        0.0000 
     47 N         -14.7060   45.2140    1.2190 N.am      8 SEL2        0.0000 
     48 N         -16.6770   45.9670    3.2430 N.am      5 SEP2        0.0000 
     49 N         -15.0185   43.9815    0.7150 N.am      2 SEC2        0.0000 
     50 N         -15.3310   42.7490    0.2110 N.am      5 SEP2        0.0000 
     51 N         -13.7180   46.8740    2.5750 N.am      2 SEC2        0.0000 
     52 N         -13.3090   46.9650    1.1780 N.am      8 SEL2        0.0000 
     53 N         -14.1270   46.7830    3.9720 N.am      5 SEP2        0.0000 
     54 CA         -9.5422   45.6378    5.5895 C.3       3 GLC5        0.0000 
     55 CA         -9.8260   47.5920    4.8750 C.3       9 GLL5        0.0000 
     56 CA         -9.6770   44.0580    6.7040 C.3       6 GLP5        0.0000 
     57 CA        -10.7800   45.9672    3.9047 C.3       3 GLC5        0.0000 
     58 CA         -8.9890   46.8430    4.0750 C.3       9 GLL5        0.0000 
     59 CA        -12.5570   45.0040    4.4170 C.3       6 GLP5        0.0000 
     60 CA        -11.5146   46.6898    4.0905 C.3       3 GLC5        0.0000 
     61 CA        -13.7125   42.9175   -4.1975 C.3       3 GLC5        0.0000 
     62 CA        -15.6118   46.2983   -0.5572 C.3       3 GLC5        0.0000 
     63 CA        -12.9688   43.6310    0.0093 C.3       3 GLC5        0.0000 
     64 CA        -13.3940   45.4970   -0.6970 C.3       9 GLL5        0.0000 
     65 CA        -12.6490   46.3409   -3.9369 C.3       3 GLC5        0.0000 
     66 CA        -12.3120   47.9950   -5.0650 C.3       6 GLP5        0.0000 
     67 CA         -9.5880   48.0618   -3.6030 C.3       3 GLC5        0.0000 
     68 CA        -10.4640   48.6840   -2.1250 C.3       9 GLL5        0.0000 
     69 CA         -8.8533   41.8526    2.2375 C.3       3 GLC5        0.0000 
     70 CA         -9.7460   40.5080    3.2500 C.3       6 GLP5        0.0000 
     71 CA        -11.6448   48.3756   -3.4112 C.3       3 GLC5        0.0000 
     72 CA        -11.5350   48.1780   -1.2430 C.3       9 GLL5        0.0000 
@<TRIPOS>BOND
@<TRIPOS>SUBSTRUCTURE
     1 ALC1       43 GROUP        1 X    ALC  0     ROOT ALC X 1
     2 SEC2       46 GROUP        1 X    SEC  0     **** SEC X 2
     3 GLC5        1 GROUP        1 X    GLC  0     **** GLC X 6
     4 ALP1       45 GROUP        1 Y    ALP  0     ROOT ALP Y 8
     5 SEP2       48 GROUP        1 Y    SEP  0     **** SEP Y 9
     6 GLP5        3 GROUP        1 Y    GLP  0     **** GLP Y 13
     7 ALL1       44 GROUP        1 Z    ALL  0     ROOT ALL Z 15
     8 SEL2       47 GROUP        1 Z    SEL  0     **** SEL Z 16
     9 GLL5        2 GROUP        1 Z    GLL  0     **** GLL Z 20
@<TRIPOS>SET

