#    Name: 3zsw_ZSW_1_ligand
#    Modification time : Tue Mar 25 03:56:52 2014

@<TRIPOS>MOLECULE
3zsw_ZSW_1_ligand
   68    70     1     0     0
SMALL
NO_CHARGES


@<TRIPOS>ATOM
      1 C1         -9.8260   47.5920    4.8750 C.ar      1 ZSW1217     0.0000 
      2 C2        -10.6750   48.5200    4.3070 C.ar      1 ZSW1217     0.0000 
      3 C3         -8.9890   46.8430    4.0750 C.ar      1 ZSW1217     0.0000 
      4 C4        -10.6940   48.6950    2.9370 C.ar      1 ZSW1217     0.0000 
      5 C5        -11.6330   44.9920   -2.2660 C.ar      1 ZSW1217     0.0000 
      6 C6        -12.5450   44.5530   -3.2070 C.ar      1 ZSW1217     0.0000 
      7 C7         -9.0170   47.0180    2.7100 C.ar      1 ZSW1217     0.0000 
      8 C8        -13.3940   45.4970   -0.6970 C.ar      1 ZSW1217     0.0000 
      9 C9         -9.8700   47.9430    2.1260 C.ar      1 ZSW1217     0.0000 
     10 C10       -12.0410   45.4570   -1.0260 C.ar      1 ZSW1217     0.0000 
     11 C11       -13.8830   44.6010   -2.8810 C.ar      1 ZSW1217     0.0000 
     12 C12       -14.3130   45.0460   -1.6400 C.ar      1 ZSW1217     0.0000 
     13 C13       -10.3760   49.9850   -2.4190 C.2       1 ZSW1217     0.0000 
     14 C14       -10.4640   48.6840   -2.1250 C.2       1 ZSW1217     0.0000 
     15 C15        -8.1180   46.1620    1.9080 C.2       1 ZSW1217     0.0000 
     16 C16       -13.8480   45.9580    0.6430 C.2       1 ZSW1217     0.0000 
     17 C17       -16.8830   45.5580   -6.4420 C.2       1 ZSW1217     0.0000 
     18 C19        -9.0980   42.4120    0.4650 C.3       1 ZSW1217     0.0000 
     19 C18        -7.7440   43.0790    0.5610 C.3       1 ZSW1217     0.0000 
     20 C20        -7.5000   43.6490    1.9370 C.3       1 ZSW1217     0.0000 
     21 C22        -6.0170   43.8260    2.1850 C.3       1 ZSW1217     0.0000 
     22 C23       -16.4880   44.3990   -2.2340 C.3       1 ZSW1217     0.0000 
     23 C25       -16.0540   44.6830   -3.6480 C.3       1 ZSW1217     0.0000 
     24 C26        -9.9400   48.1690    0.6530 C.3       1 ZSW1217     0.0000 
     25 C27       -10.9850   45.9470   -0.0810 C.3       1 ZSW1217     0.0000 
     26 C28       -11.5350   48.1780   -1.2430 C.3       1 ZSW1217     0.0000 
     27 C29       -16.5820   44.1220   -6.0450 C.3       1 ZSW1217     0.0000 
     28 C31       -17.0270   44.0090   -4.6020 C.3       1 ZSW1217     0.0000 
     29 N32        -8.2960   44.8310    2.2410 N.am      1 ZSW1217     0.0000 
     30 N33       -11.0820   47.4660   -0.0040 N.4       1 ZSW1217     0.0000 
     31 O37       -14.7060   45.2140    1.2190 O.co2     1 ZSW1217     0.0000 
     32 O35       -17.9390   46.0780   -5.9920 O.co2     1 ZSW1217     0.0000 
     33 O36        -7.3930   46.6350    1.0500 O.2       1 ZSW1217     0.0000 
     34 O34       -13.3090   46.9650    1.1780 O.co2     1 ZSW1217     0.0000 
     35 O38       -16.0200   46.0890   -7.1910 O.co2     1 ZSW1217     0.0000 
     36 O39       -15.6670   45.1100   -1.3110 O.3       1 ZSW1217     0.0000 
     37 O40       -14.7520   44.1530   -3.8440 O.3       1 ZSW1217     0.0000 
     38 H          -9.8179   47.4590    5.8983 H         1 ZSW1217     0.0000 
     39 H         -11.2973   49.0848    4.9067 H         1 ZSW1217     0.0000 
     40 H          -8.3473   46.1572    4.4973 H         1 ZSW1217     0.0000 
     41 H         -11.3304   49.3945    2.5176 H         1 ZSW1217     0.0000 
     42 H         -10.6174   44.9736   -2.4920 H         1 ZSW1217     0.0000 
     43 H         -12.2361   44.2054   -4.1121 H         1 ZSW1217     0.0000 
     44 H          -9.8070   47.9772   -2.4872 H         1 ZSW1217     0.0000 
     45 H          -7.6839   43.8831   -0.1814 H         1 ZSW1217     0.0000 
     46 H          -6.9630   42.3464    0.3273 H         1 ZSW1217     0.0000 
     47 H          -7.8222   42.8259    2.6602 H         1 ZSW1217     0.0000 
     48 H         -16.4303   43.3118   -2.0689 H         1 ZSW1217     0.0000 
     49 H         -17.5463   44.6866   -2.1353 H         1 ZSW1217     0.0000 
     50 H         -16.0870   45.7384   -3.8153 H         1 ZSW1217     0.0000 
     51 H          -8.9912   47.8369    0.1870 H         1 ZSW1217     0.0000 
     52 H         -10.0182   49.2561    0.4535 H         1 ZSW1217     0.0000 
     53 H         -10.0040   45.6722   -0.4439 H         1 ZSW1217     0.0000 
     54 H         -11.1450   45.5310    0.9044 H         1 ZSW1217     0.0000 
     55 H         -12.2009   47.4905   -1.8243 H         1 ZSW1217     0.0000 
     56 H         -12.2000   49.0271   -0.9416 H         1 ZSW1217     0.0000 
     57 H         -15.5321   43.9405   -6.1178 H         1 ZSW1217     0.0000 
     58 H         -17.1490   43.4532   -6.6546 H         1 ZSW1217     0.0000 
     59 H         -18.0160   44.4695   -4.4901 H         1 ZSW1217     0.0000 
     60 H         -17.1182   42.9499   -4.3322 H         1 ZSW1217     0.0000 
     61 H          -9.1900   44.5988    2.8416 H         1 ZSW1217     0.0000 
     62 H         -11.9804   47.6480    0.7532 H         1 ZSW1217     0.0000 
     63 H          -9.2618   42.0335   -0.4460 H         1 ZSW1217     0.0000 
     64 H          -9.1877   41.6583    1.1160 H         1 ZSW1217     0.0000 
     65 H          -9.8420   43.0529    0.6542 H         1 ZSW1217     0.0000 
     66 H          -5.5245   42.9576    2.1268 H         1 ZSW1217     0.0000 
     67 H          -5.6003   44.4445    1.5189 H         1 ZSW1217     0.0000 
     68 H          -5.8349   44.2061    3.0918 H         1 ZSW1217     0.0000 
@<TRIPOS>BOND
     1    2    1 ar   
     2    3    1 ar   
     3   38    1 1    
     4    4    2 ar   
     5   39    2 1    
     6    7    3 ar   
     7   40    3 1    
     8    9    4 ar   
     9   41    4 1    
    10    6    5 ar   
    11   10    5 ar   
    12   42    5 1    
    13   11    6 ar   
    14   43    6 1    
    15    9    7 ar   
    16   15    7 1    
    17   10    8 ar   
    18   12    8 ar   
    19   16    8 1    
    20   24    9 1    
    21   25   10 1    
    22   12   11 ar   
    23   37   11 1    
    24   36   12 1    
    25   14   13 2    
    26   26   14 1    
    27   44   14 1    
    28   29   15 am   
    29   33   15 2    
    30   31   16 ar   
    31   34   16 ar   
    32   27   17 1    
    33   32   17 ar   
    34   35   17 ar   
    35   19   18 1    
    36   63   18 1    
    37   64   18 1    
    38   65   18 1    
    39   20   19 1    
    40   45   19 1    
    41   46   19 1    
    42   21   20 1    
    43   29   20 1    
    44   47   20 1    
    45   66   21 1    
    46   67   21 1    
    47   68   21 1    
    48   23   22 1    
    49   36   22 1    
    50   48   22 1    
    51   49   22 1    
    52   28   23 1    
    53   37   23 1    
    54   50   23 1    
    55   30   24 1    
    56   51   24 1    
    57   52   24 1    
    58   30   25 1    
    59   53   25 1    
    60   54   25 1    
    61   30   26 1    
    62   55   26 1    
    63   56   26 1    
    64   28   27 1    
    65   57   27 1    
    66   58   27 1    
    67   59   28 1    
    68   60   28 1    
    69   61   29 1    
    70   62   30 1    
@<TRIPOS>SUBSTRUCTURE
     1 ZSW1217     1 GROUP   
@<TRIPOS>SET

