#    Name: 1hte_G23_1_INTS_M
#    Modification time : Tue Mar 25 05:51:23 2014

@<TRIPOS>MOLECULE
1hte_G23_1_INTS_M
   68     0     6     0     0
SMALL
NO_CHARGES


@<TRIPOS>ATOM
      1 CA          7.1625   23.2740    2.8275 C.3       2 GLC5        0.0000 
      2 CA          7.8080   25.2740    3.4000 C.3       6 GLL5        0.0000 
      3 CA          6.5170   21.2740    2.2550 C.3       4 GLP5        0.0000 
      4 CA          8.9745   22.0825    4.2430 C.3       2 GLC5        0.0000 
      5 CA         10.0070   22.6620    2.5350 C.3       6 GLL5        0.0000 
      6 CA          7.9420   21.5030    5.9510 C.3       4 GLP5        0.0000 
      7 CA         10.4210   20.5240    2.8645 C.3       2 GLC5        0.0000 
      8 CA         10.8350   18.3860    3.1940 C.3       4 GLP5        0.0000 
      9 CA          8.7325   21.5000    2.0005 C.3       2 GLC5        0.0000 
     10 CA          7.4580   20.3380    1.4660 C.3       4 GLP5        0.0000 
     11 CA         11.4575   25.9950    0.4025 C.3       2 GLC5        0.0000 
     12 CA         11.1020   24.4610    1.3860 C.3       6 GLL5        0.0000 
     13 CA         11.8130   27.5290   -0.5810 C.3       4 GLP5        0.0000 
     14 CA          6.3280   27.2100    8.9595 C.3       2 GLC5        0.0000 
     15 CA          7.1050   27.8090    7.1440 C.3       6 GLL5        0.0000 
     16 CA          5.5510   26.6110   10.7750 C.3       4 GLP5        0.0000 
     17 CA          8.5735   30.8405    9.4180 C.3       2 GLC5        0.0000 
     18 CA          8.7830   28.9400    8.6130 C.3       6 GLL5        0.0000 
     19 CA          8.3640   32.7410   10.2230 C.3       4 GLP5        0.0000 
     20 CA          9.7725   30.9905    9.3970 C.3       2 GLC5        0.0000 
     21 CA          9.9310   28.9340    9.3770 C.3       6 GLL5        0.0000 
     22 CA          9.6140   33.0470    9.4170 C.3       4 GLP5        0.0000 
     23 CA         12.7150   28.5025    9.6400 C.3       2 GLC5        0.0000 
     24 CA         10.6830   27.8300    9.4780 C.3       6 GLL5        0.0000 
     25 CA         14.7470   29.1750    9.8020 C.3       4 GLP5        0.0000 
     26 CA          9.3450   28.6390   -2.1035 C.3       2 GLC5        0.0000 
     27 CA          7.4980   27.7670   -2.2250 C.3       6 GLL5        0.0000 
     28 CA         11.1920   29.5110   -1.9820 C.3       4 GLP5        0.0000 
     29 CA          6.5910   29.7850   -4.3010 C.3       2 GLC5        0.0000 
     30 CA          5.5020   28.7160   -2.9810 C.3       6 GLL5        0.0000 
     31 CA          7.6800   30.8540   -5.6210 C.3       4 GLP5        0.0000 
     32 CA          7.8965   25.8755   -1.1920 C.3       2 GLC5        0.0000 
     33 CA          6.9150   27.4160   -1.0560 C.3       6 GLL5        0.0000 
     34 CA          8.8780   24.3350   -1.3280 C.3       4 GLP5        0.0000 
     35 N           9.2815   30.2065    5.5705 N.am      1 SEC2        0.0000 
     36 N           8.2430   29.0150    5.4800 N.am      5 SEL2        0.0000 
     37 N          10.3200   31.3980    5.6610 N.am      3 SEP2        0.0000 
     38 CA          7.1065   23.4530    1.4710 C.3       2 GLC5        0.0000 
     39 CA          8.4580   24.8950    1.7720 C.3       6 GLL5        0.0000 
     40 CA          5.7550   22.0110    1.1700 C.3       4 GLP5        0.0000 
     41 CA          8.6680   24.6150    0.2220 C.3       2 GLC5        0.0000 
     42 CA          9.7179   24.1354    0.3081 C.3       2 GLC5        0.0000 
     43 CA         11.1199   22.9389    0.7451 C.3       2 GLC5        0.0000 
     44 CA         11.6820   21.9420   -0.4540 C.3       4 GLP5        0.0000 
     45 CA          7.7988   26.5712    9.6015 C.3       2 GLC5        0.0000 
     46 CA          9.1040   26.6490    8.0980 C.3       6 GLL5        0.0000 
     47 CA          6.8620   25.9050   11.1720 C.3       4 GLP5        0.0000 
     48 CA         10.9935   29.2445    8.0775 C.3       2 GLC5        0.0000 
     49 CA         12.6300   29.5520    7.1600 C.3       4 GLP5        0.0000 
     50 CA          8.5785   27.7600   10.5940 C.3       2 GLC5        0.0000 
     51 CA          7.8000   26.5830   12.1930 C.3       4 GLP5        0.0000 
     52 CA         11.5450   28.3972    8.1550 C.3       2 GLC5        0.0000 
     53 CA          9.1300   26.9127   10.6715 C.3       2 GLC5        0.0000 
     54 CA         10.6239   25.7625    9.9630 C.3       2 GLC5        0.0000 
     55 CA         11.0710   24.2840   10.9570 C.3       4 GLP5        0.0000 
     56 CA         10.5800   27.6303   10.9109 C.3       2 GLC5        0.0000 
     57 CA         10.2370   26.6550    8.8220 C.3       6 GLL5        0.0000 
     58 CA         10.8880   27.7420   12.6970 C.3       4 GLP5        0.0000 
     59 CA          7.2200   29.7720   -1.7183 C.3       2 GLC5        0.0000 
     60 CA          7.2860   31.4540   -0.7170 C.3       4 GLP5        0.0000 
     61 CA          8.2745   28.5635   -4.1137 C.3       2 GLC5        0.0000 
     62 CA          6.8100   28.4130   -3.2140 C.3       6 GLL5        0.0000 
     63 CA          9.3950   29.0370   -5.5080 C.3       4 GLP5        0.0000 
     64 CA          7.7090   26.5030   -3.2123 C.3       2 GLC5        0.0000 
     65 CA          8.2640   24.9160   -3.7050 C.3       4 GLP5        0.0000 
     66 CA          6.2495   29.9980   -1.5500 C.3       2 GLC5        0.0000 
     67 CA          6.7640   29.5102   -0.8228 C.3       2 GLC5        0.0000 
     68 CA          5.5690   27.7170   -0.8010 C.3       6 GLL5        0.0000 
@<TRIPOS>BOND
@<TRIPOS>SUBSTRUCTURE
     1 SEC2       35 GROUP        1 X    SEC  0     ROOT SEC X 2
     2 GLC5        1 GROUP        1 X    GLC  0     **** GLC X 6
     3 SEP2       37 GROUP        1 Y    SEP  0     ROOT SEP Y 9
     4 GLP5        3 GROUP        1 Y    GLP  0     **** GLP Y 13
     5 SEL2       36 GROUP        1 Z    SEL  0     ROOT SEL Z 16
     6 GLL5        2 GROUP        1 Z    GLL  0     **** GLL Z 20
@<TRIPOS>SET

