#    Name: 1hte_G23_1_ligand
#    Modification time : Tue Mar 25 05:51:23 2014

@<TRIPOS>MOLECULE
1hte_G23_1_ligand
   56    58     1     0     0
SMALL
NO_CHARGES


@<TRIPOS>ATOM
      1 C1         10.1920   24.9880    3.7440 C.3       1 G23200      0.0000 
      2 C2          7.8080   25.2740    3.4000 C.3       1 G23200      0.0000 
      3 C3          7.1780   26.6710    3.5200 C.3       1 G23200      0.0000 
      4 C4          5.8860   26.6480    2.6950 C.2       1 G23200      0.0000 
      5 C5         10.0070   22.6620    2.5350 C.3       1 G23200      0.0000 
      6 C6         11.1020   24.4610    1.3860 C.3       1 G23200      0.0000 
      7 C7         11.1000   24.5730    4.8930 C.2       1 G23200      0.0000 
      8 C8         10.0200   24.1590    2.4700 C.3       1 G23200      0.0000 
      9 C9          4.9710   27.3210    0.5510 C.3       1 G23200      0.0000 
     10 C10         7.5400   28.0510    5.7240 C.2       1 G23200      0.0000 
     11 C11         7.1050   27.8090    7.1440 C.3       1 G23200      0.0000 
     12 C12         9.1040   26.6490    8.0980 C.ar      1 G23200      0.0000 
     13 C13         8.3670   27.8260    7.9640 C.ar      1 G23200      0.0000 
     14 C14         8.7830   28.9400    8.6130 C.ar      1 G23200      0.0000 
     15 C15         9.9310   28.9340    9.3770 C.ar      1 G23200      0.0000 
     16 C16        10.6830   27.8300    9.4780 C.ar      1 G23200      0.0000 
     17 C17        10.2370   26.6550    8.8220 C.ar      1 G23200      0.0000 
     18 C18         7.4980   27.7670   -2.2250 C.ar      1 G23200      0.0000 
     19 C19         6.8100   28.4130   -3.2140 C.ar      1 G23200      0.0000 
     20 C20         5.5020   28.7160   -2.9810 C.ar      1 G23200      0.0000 
     21 C21         4.9240   28.3680   -1.7850 C.ar      1 G23200      0.0000 
     22 C22         5.5690   27.7170   -0.8010 C.ar      1 G23200      0.0000 
     23 C23         6.9150   27.4160   -1.0560 C.ar      1 G23200      0.0000 
     24 N1          8.8810   25.1710    4.3360 N.4       1 G23200      0.0000 
     25 N2          7.0600   27.0320    4.9260 N.am      1 G23200      0.0000 
     26 N3          6.0240   27.2380    1.5070 N.am      1 G23200      0.0000 
     27 O1          4.8750   26.0970    3.0410 O.2       1 G23200      0.0000 
     28 O2          8.2430   29.0150    5.4800 O.2       1 G23200      0.0000 
     29 O3         10.8830   23.5290    5.4860 O.co2     1 G23200      0.0000 
     30 O4         11.9750   25.3320    5.3230 O.co2     1 G23200      0.0000 
     31 S1          8.4580   24.8950    1.7720 S.3       1 G23200      0.0000 
     32 H          10.5163   26.0214    3.4290 H         1 G23200      0.0000 
     33 H           7.0694   24.5099    3.5443 H         1 G23200      0.0000 
     34 H           7.8807   27.3504    3.0069 H         1 G23200      0.0000 
     35 H           4.4593   26.3654    0.4215 H         1 G23200      0.0000 
     36 H           4.2309   28.0765    0.8216 H         1 G23200      0.0000 
     37 H           6.6312   26.8498    7.2227 H         1 G23200      0.0000 
     38 H           6.4503   28.5959    7.4649 H         1 G23200      0.0000 
     39 H           8.7626   25.7915    7.6357 H         1 G23200      0.0000 
     40 H           8.2320   29.8241    8.5402 H         1 G23200      0.0000 
     41 H          10.2028   29.8102    9.8766 H         1 G23200      0.0000 
     42 H          11.5569   27.7983   10.0030 H         1 G23200      0.0000 
     43 H          10.8190   25.7986    8.9220 H         1 G23200      0.0000 
     44 H           8.5132   27.5382   -2.3841 H         1 G23200      0.0000 
     45 H           7.2622   28.6590   -4.0957 H         1 G23200      0.0000 
     46 H           4.9425   29.2063   -3.6995 H         1 G23200      0.0000 
     47 H           3.9023   28.6351   -1.6391 H         1 G23200      0.0000 
     48 H           7.4541   26.9150   -0.3215 H         1 G23200      0.0000 
     49 H           6.4142   26.2818    5.4791 H         1 G23200      0.0000 
     50 H           6.9420   27.6755    1.2260 H         1 G23200      0.0000 
     51 H          10.8592   22.2992    2.9120 H         1 G23200      0.0000 
     52 H           9.2635   22.3217    3.1107 H         1 G23200      0.0000 
     53 H           9.8886   22.2520    1.6306 H         1 G23200      0.0000 
     54 H          12.0254   24.2724    1.7203 H         1 G23200      0.0000 
     55 H          10.9690   23.9071    0.5641 H         1 G23200      0.0000 
     56 H          11.0838   25.4190    1.0999 H         1 G23200      0.0000 
@<TRIPOS>BOND
     1    7    1 1    
     2    8    1 1    
     3   24    1 1    
     4   32    1 1    
     5    3    2 1    
     6   24    2 1    
     7   31    2 1    
     8   33    2 1    
     9    4    3 1    
    10   25    3 1    
    11   34    3 1    
    12   26    4 am   
    13   27    4 2    
    14    8    5 1    
    15   51    5 1    
    16   52    5 1    
    17   53    5 1    
    18    8    6 1    
    19   54    6 1    
    20   55    6 1    
    21   56    6 1    
    22   29    7 ar   
    23   30    7 ar   
    24   31    8 1    
    25   22    9 1    
    26   26    9 1    
    27   35    9 1    
    28   36    9 1    
    29   11   10 1    
    30   25   10 am   
    31   28   10 2    
    32   13   11 1    
    33   37   11 1    
    34   38   11 1    
    35   13   12 ar   
    36   17   12 ar   
    37   39   12 1    
    38   14   13 ar   
    39   15   14 ar   
    40   40   14 1    
    41   16   15 ar   
    42   41   15 1    
    43   17   16 ar   
    44   42   16 1    
    45   43   17 1    
    46   19   18 ar   
    47   23   18 ar   
    48   44   18 1    
    49   20   19 ar   
    50   45   19 1    
    51   21   20 ar   
    52   46   20 1    
    53   22   21 ar   
    54   47   21 1    
    55   23   22 ar   
    56   48   23 1    
    57   49   25 1    
    58   50   26 1    
@<TRIPOS>SUBSTRUCTURE
     1 G23200      1 GROUP   
@<TRIPOS>SET

