#    Name: 2vg7_NNI_1_INTS_M
#    Modification time : Tue Mar 25 01:40:57 2014

@<TRIPOS>MOLECULE
2vg7_NNI_1_INTS_M
   56     0     6     0     0
SMALL
NO_CHARGES


@<TRIPOS>ATOM
      1 CA          9.3270   68.6330   59.5085 C.3       2 GLC5        0.0000 
      2 CA          7.9070   67.5390   59.1910 C.3       6 GLL5        0.0000 
      3 CA         10.7470   69.7270   59.8260 C.3       4 GLP5        0.0000 
      4 CA          7.7950   68.4585   57.8040 C.3       2 GLC5        0.0000 
      5 CA          7.6830   69.3780   56.4170 C.3       4 GLP5        0.0000 
      6 CA          6.8905   66.5495   57.8775 C.3       2 GLC5        0.0000 
      7 CA          5.8740   65.5600   56.5640 C.3       4 GLP5        0.0000 
      8 CA          6.7065   68.0780   60.8930 C.3       2 GLC5        0.0000 
      9 CA          5.5060   68.6170   62.5950 C.3       4 GLP5        0.0000 
     10 O           9.3320   63.4025   64.6055 O.2       1 ALC1        0.0000 
     11 O          10.1860   63.7420   63.5620 O.2       5 ALL1        0.0000 
     12 O           8.4780   63.0630   65.6490 O.2       3 ALP1        0.0000 
     13 CA         10.9430   61.6085   62.3275 C.3       2 GLC5        0.0000 
     14 CA         11.3740   63.1460   63.4940 C.3       6 GLL5        0.0000 
     15 CA         10.5120   60.0710   61.1610 C.3       4 GLP5        0.0000 
     16 CA         11.1120   64.7595   64.6845 C.3       2 GLC5        0.0000 
     17 CA         10.8500   66.3730   65.8750 C.3       4 GLP5        0.0000 
     18 CA         13.2890   63.8360   63.4715 C.3       2 GLC5        0.0000 
     19 CA         15.2040   64.5260   63.4490 C.3       4 GLP5        0.0000 
     20 CA         10.1660   61.3730   63.6365 C.3       2 GLC5        0.0000 
     21 CA         11.8460   62.1720   64.7160 C.3       6 GLL5        0.0000 
     22 CA          8.4860   60.5740   62.5570 C.3       4 GLP5        0.0000 
     23 CA         11.7325   60.5625   65.9575 C.3       2 GLC5        0.0000 
     24 CA         11.6190   58.9530   67.1990 C.3       4 GLP5        0.0000 
     25 CA         12.1540   63.5840   65.9690 C.3       2 GLC5        0.0000 
     26 CA         12.4620   64.9960   67.2220 C.3       4 GLP5        0.0000 
     27 CA         13.7525   62.9385   65.2470 C.3       2 GLC5        0.0000 
     28 CA         15.6590   63.7050   65.7780 C.3       4 GLP5        0.0000 
     29 CA         15.1440   62.7615   59.7105 C.3       2 GLC5        0.0000 
     30 CA         14.1760   62.6450   61.2160 C.3       6 GLL5        0.0000 
     31 CA         16.1120   62.8780   58.2050 C.3       4 GLP5        0.0000 
     32 CA         11.4085   61.0955   59.6455 C.3       2 GLC5        0.0000 
     33 CA         12.3050   62.1200   58.1300 C.3       6 GLL5        0.0000 
     34 CA         10.1845   61.4715   58.6380 C.3       2 GLC5        0.0000 
     35 CA         11.7230   61.4770   57.0460 C.3       6 GLL5        0.0000 
     36 CA          8.6460   61.4660   60.2300 C.3       4 GLP5        0.0000 
     37 CA          6.8945   67.3028   61.8688 C.3       2 GLC5        0.0000 
     38 CA          8.6980   66.2430   60.6460 C.3       6 GLL5        0.0000 
     39 CA          9.0512   67.7295   61.5568 C.3       2 GLC5        0.0000 
     40 CA          7.8680   65.7340   61.6390 C.3       6 GLL5        0.0000 
     41 CA          9.4820   69.5560   61.9720 C.3       4 GLP5        0.0000 
     42 CA          8.9533   63.1560   61.2980 C.3       2 GLC5        0.0000 
     43 CA         10.5600   65.0560   61.6220 C.3       6 GLL5        0.0000 
     44 CA         10.0552   65.6095   64.1205 C.3       2 GLC5        0.0000 
     45 CA          9.7240   64.5460   62.6080 C.3       6 GLL5        0.0000 
     46 CA         12.1113   61.2837   61.4840 C.3       2 GLC5        0.0000 
     47 CA         13.2450   62.3480   62.3980 C.3       6 GLL5        0.0000 
     48 CA         14.4573   63.5112   62.6280 C.3       2 GLC5        0.0000 
     49 CA         12.3480   59.7953   57.3535 C.3       2 GLC5        0.0000 
     50 CA         12.6820   57.7920   57.1190 C.3       4 GLP5        0.0000 
     51 CA         14.1782   62.8422   58.2062 C.3       2 GLC5        0.0000 
     52 CA         13.0002   65.3358   57.4860 C.3       2 GLC5        0.0000 
     53 CA         11.4750   64.2400   57.3550 C.3       6 GLL5        0.0000 
     54 CA         14.1710   66.8050   57.1520 C.3       4 GLP5        0.0000 
     55 CA          9.4649   63.7871   56.3227 C.3       2 GLC5        0.0000 
     56 CA          7.7180   63.9980   55.8710 C.3       4 GLP5        0.0000 
@<TRIPOS>BOND
@<TRIPOS>SUBSTRUCTURE
     1 ALC1       10 GROUP        1 X    ALC  0     ROOT ALC X 1
     2 GLC5        1 GROUP        1 X    GLC  0     **** GLC X 6
     3 ALP1       12 GROUP        1 Y    ALP  0     ROOT ALP Y 8
     4 GLP5        3 GROUP        1 Y    GLP  0     **** GLP Y 13
     5 ALL1       11 GROUP        1 Z    ALL  0     ROOT ALL Z 15
     6 GLL5        2 GROUP        1 Z    GLL  0     **** GLL Z 20
@<TRIPOS>SET

