#    Name: 2vg7_NNI_1_ligand
#    Modification time : Tue Mar 25 01:40:58 2014

@<TRIPOS>MOLECULE
2vg7_NNI_1_ligand
   37    39     1     0     0
SMALL
NO_CHARGES


@<TRIPOS>ATOM
      1 C13        10.5600   65.0560   61.6220 C.ar      1 NNI1551     0.0000 
      2 C14        10.0480   65.9010   60.6420 C.ar      1 NNI1551     0.0000 
      3 C15         8.6980   66.2430   60.6460 C.ar      1 NNI1551     0.0000 
      4 I15         7.9070   67.5390   59.1910 I         1 NNI1551     0.0000 
      5 C16         7.8680   65.7340   61.6390 C.ar      1 NNI1551     0.0000 
      6 C17         8.3790   64.8910   62.6170 C.ar      1 NNI1551     0.0000 
      7 C12         9.7240   64.5460   62.6080 C.ar      1 NNI1551     0.0000 
      8 N2         10.1860   63.7420   63.5620 N.am      1 NNI1551     0.0000 
      9 C11        11.3740   63.1460   63.4940 C.2       1 NNI1551     0.0000 
     10 S1         11.8460   62.1720   64.7160 S.2       1 NNI1551     0.0000 
     11 O3         12.1880   63.3270   62.4190 O.3       1 NNI1551     0.0000 
     12 C10        13.2450   62.3480   62.3980 C.3       1 NNI1551     0.0000 
     13 C9         14.1760   62.6450   61.2160 C.3       1 NNI1551     0.0000 
     14 N1         13.3910   62.7100   59.9720 N.am      1 NNI1551     0.0000 
     15 C8         13.0610   61.6750   59.2040 C.2       1 NNI1551     0.0000 
     16 O2         13.3710   60.5010   59.3990 O.2       1 NNI1551     0.0000 
     17 C2         12.3050   62.1200   58.1300 C.ar      1 NNI1551     0.0000 
     18 C3         11.7230   61.4770   57.0460 C.ar      1 NNI1551     0.0000 
     19 C4         11.0120   62.2250   56.1160 C.ar      1 NNI1551     0.0000 
     20 C5         10.8850   63.6000   56.2720 C.ar      1 NNI1551     0.0000 
     21 C6         11.4750   64.2400   57.3550 C.ar      1 NNI1551     0.0000 
     22 C1         12.1840   63.4930   58.2850 C.ar      1 NNI1551     0.0000 
     23 C7         12.8770   63.8150   59.4460 C.2       1 NNI1551     0.0000 
     24 O1         12.9940   64.9480   59.9140 O.2       1 NNI1551     0.0000 
     25 H          11.5587   64.8091   61.6158 H         1 NNI1551     0.0000 
     26 H          10.6691   66.2750   59.9111 H         1 NNI1551     0.0000 
     27 H           6.8678   65.9845   61.6483 H         1 NNI1551     0.0000 
     28 H           7.7586   64.5205   63.3512 H         1 NNI1551     0.0000 
     29 H           9.5761   63.5668   64.4213 H         1 NNI1551     0.0000 
     30 H          12.8549   61.3373   62.2717 H         1 NNI1551     0.0000 
     31 H          13.8413   62.3801   63.3107 H         1 NNI1551     0.0000 
     32 H          14.9235   61.8543   61.1611 H         1 NNI1551     0.0000 
     33 H          14.6797   63.5923   61.4058 H         1 NNI1551     0.0000 
     34 H          11.8163   60.4642   56.9329 H         1 NNI1551     0.0000 
     35 H          10.5767   61.7583   55.3067 H         1 NNI1551     0.0000 
     36 H          10.3508   64.1475   55.5812 H         1 NNI1551     0.0000 
     37 H          11.3868   65.2552   57.4653 H         1 NNI1551     0.0000 
@<TRIPOS>BOND
     1    2    1 ar   
     2    7    1 ar   
     3   25    1 1    
     4    3    2 ar   
     5   26    2 1    
     6    4    3 1    
     7    5    3 ar   
     8    6    5 ar   
     9   27    5 1    
    10    7    6 ar   
    11   28    6 1    
    12    8    7 1    
    13    9    8 am   
    14   29    8 1    
    15   10    9 2    
    16   11    9 1    
    17   12   11 1    
    18   13   12 1    
    19   30   12 1    
    20   31   12 1    
    21   14   13 1    
    22   32   13 1    
    23   33   13 1    
    24   15   14 am   
    25   23   14 am   
    26   16   15 2    
    27   17   15 1    
    28   18   17 ar   
    29   22   17 ar   
    30   19   18 ar   
    31   34   18 1    
    32   20   19 ar   
    33   35   19 1    
    34   21   20 ar   
    35   36   20 1    
    36   22   21 ar   
    37   37   21 1    
    38   23   22 1    
    39   24   23 2    
@<TRIPOS>SUBSTRUCTURE
     1 NNI1551     1 GROUP   
@<TRIPOS>SET

