#    Name: 2qr1_ADP_3_INTS_M
#    Modification time : Mon Mar 24 22:36:46 2014

@<TRIPOS>MOLECULE
2qr1_ADP_3_INTS_M
   61     0    12     0     0
SMALL
NO_CHARGES


@<TRIPOS>ATOM
      1 NZ         -9.6385   -6.7875   30.8510 N.4       3 LYC4        0.0000 
      2 NZ         -8.3490   -7.2770   31.0750 N.4      11 LYL4        0.0000 
      3 NZ        -11.9480   -6.4720   31.4710 N.4       7 LYP4        0.0000 
      4 NZ         -7.3145   -7.3075   32.4570 N.4       3 LYC4        0.0000 
      5 NZ         -6.2800   -7.3380   33.8390 N.4       7 LYP4        0.0000 
      6 N          -9.6385   -6.7875   30.8510 N.am      2 SEC2        0.0000 
      7 N          -8.3490   -7.2770   31.0750 N.am     10 SEL2        0.0000 
      8 N         -10.9280   -6.2980   30.6270 N.am      6 SEP2        0.0000 
      9 NZ        -10.7000   -7.1310   30.1730 N.4       3 LYC4        0.0000 
     10 NZ         -9.4520   -7.7900   28.8750 N.4      11 LYL4        0.0000 
     11 N          -9.8270   -8.8870   27.9755 N.am      2 SEC2        0.0000 
     12 N          -9.4520   -7.7900   28.8750 N.am     10 SEL2        0.0000 
     13 N         -10.2020   -9.9840   27.0760 N.am      6 SEP2        0.0000 
     14 N          -6.9885  -10.2825   31.1405 N.am      2 SEC2        0.0000 
     15 N          -7.9800   -9.5550   30.0410 N.am     10 SEL2        0.0000 
     16 N          -5.9970  -11.0100   32.2400 N.am      6 SEP2        0.0000 
     17 NZ         -6.0020   -6.8800   31.4540 N.4       3 LYC4        0.0000 
     18 NZ         -5.0870   -6.4860   30.2320 N.4      11 LYL4        0.0000 
     19 N          -6.0020   -6.8800   31.4540 N.am      2 SEC2        0.0000 
     20 N          -5.0870   -6.4860   30.2320 N.am     10 SEL2        0.0000 
     21 N          -6.9170   -7.2740   32.6760 N.am      6 SEP2        0.0000 
     22 NZ         -5.2190   -6.9160   26.6610 N.4       3 LYC4        0.0000 
     23 NZ         -5.7580   -5.6740   27.8650 N.4      11 LYL4        0.0000 
     24 NZ         -4.6800   -8.1580   25.4570 N.4       7 LYP4        0.0000 
     25 N         -10.9665   -1.0575   30.6430 N.am      2 SEC2        0.0000 
     26 N         -10.2410   -2.5900   31.0020 N.am     10 SEL2        0.0000 
     27 N         -11.6920    0.4750   30.2840 N.am      6 SEP2        0.0000 
     28 O         -11.6420   -2.4205   30.6930 O.2       1 ALC1        0.0000 
     29 O         -10.2410   -2.5900   31.0020 O.2       9 ALL1        0.0000 
     30 O         -13.0430   -2.2510   30.3840 O.2       5 ALP1        0.0000 
     31 O         -11.8095   -2.4065   29.3555 O.2       1 ALC1        0.0000 
     32 O         -10.5760   -2.5620   28.3270 O.2       9 ALL1        0.0000 
     33 CA         -6.3545   -1.0460   28.3615 C.3       4 GLC5        0.0000 
     34 CA         -8.2280   -2.0410   28.7480 C.3      12 GLL5        0.0000 
     35 CA         -4.4810   -0.0510   27.9750 C.3       8 GLP5        0.0000 
     36 CA         -8.2105   -0.4820   22.7270 C.3       4 GLC5        0.0000 
     37 CA         -6.8680   -0.4580   24.2690 C.3      12 GLL5        0.0000 
     38 CA         -9.5530   -0.5060   21.1850 C.3       8 GLP5        0.0000 
     39 CA         -6.1760    1.3975   23.7580 C.3       4 GLC5        0.0000 
     40 CA         -5.4840    3.2530   23.2470 C.3       8 GLP5        0.0000 
     41 CA         -4.9475    0.0470   24.8290 C.3       4 GLC5        0.0000 
     42 CA         -3.0270    0.5520   25.3890 C.3       8 GLP5        0.0000 
     43 O          -5.9720    0.3135   21.9910 O.2       1 ALC1        0.0000 
     44 O          -6.1580   -0.6860   23.1420 O.2       9 ALL1        0.0000 
     45 O          -5.7860    1.3130   20.8400 O.2       5 ALP1        0.0000 
     46 N          -7.6190    1.6380   23.3665 N.am      2 SEC2        0.0000 
     47 N          -7.6010    0.6630   24.4220 N.am     10 SEL2        0.0000 
     48 N          -7.6370    2.6130   22.3110 N.am      6 SEP2        0.0000 
     49 CA         -9.0975    2.8455   25.6410 C.3       4 GLC5        0.0000 
     50 CA         -8.3310    0.9460   25.5270 C.3      12 GLL5        0.0000 
     51 CA         -9.8640    4.7450   25.7550 C.3       8 GLP5        0.0000 
     52 CA         -9.1800    1.6590   23.9215 C.3       4 GLC5        0.0000 
     53 CA        -10.0290    2.3720   22.3160 C.3       8 GLP5        0.0000 
     54 CA         -7.2595    2.4715   24.9595 C.3       4 GLC5        0.0000 
     55 CA         -6.1880    3.9970   24.3920 C.3       8 GLP5        0.0000 
     56 CA        -10.4262   -1.2602   28.3283 C.3       4 GLC5        0.0000 
     57 CA        -12.0760    0.0430   27.8790 C.3       8 GLP5        0.0000 
     58 CA         -5.8863   -0.6362   26.9803 C.3       4 GLC5        0.0000 
     59 CA         -7.7060   -1.0330   26.5730 C.3      12 GLL5        0.0000 
     60 CA         -8.5135   -1.3829   30.6304 C.3       4 GLC5        0.0000 
     61 CA         -8.3230    0.1820   31.6130 C.3       8 GLP5        0.0000 
@<TRIPOS>BOND
@<TRIPOS>SUBSTRUCTURE
     1 ALC1       28 GROUP        1 X    ALC  0     ROOT ALC X 1
     2 SEC2        6 GROUP        1 X    SEC  0     **** SEC X 2
     3 LYC4        1 GROUP        1 X    LYC  0     **** LYC X 4
     4 GLC5       33 GROUP        1 X    GLC  0     **** GLC X 6
     5 ALP1       30 GROUP        1 Y    ALP  0     ROOT ALP Y 8
     6 SEP2        8 GROUP        1 Y    SEP  0     **** SEP Y 9
     7 LYP4        3 GROUP        1 Y    LYP  0     **** LYP Y 11
     8 GLP5       35 GROUP        1 Y    GLP  0     **** GLP Y 13
     9 ALL1       29 GROUP        1 Z    ALL  0     ROOT ALL Z 15
    10 SEL2        7 GROUP        1 Z    SEL  0     **** SEL Z 16
    11 LYL4        2 GROUP        1 Z    LYL  0     **** LYL Z 18
    12 GLL5       34 GROUP        1 Z    GLL  0     **** GLL Z 20
@<TRIPOS>SET

