#    Name: 2qr1_ADP_3_ligand
#    Modification time : Mon Mar 24 22:36:46 2014

@<TRIPOS>MOLECULE
2qr1_ADP_3_ligand
   39    41     1     0     0
SMALL
NO_CHARGES


@<TRIPOS>ATOM
      1 PB         -8.2840   -8.0930   29.7990 P.3       1 ADP1003     0.0000 
      2 O1B        -8.3490   -7.2770   31.0750 O.co2     1 ADP1003     0.0000 
      3 O2B        -9.4520   -7.7900   28.8750 O.co2     1 ADP1003     0.0000 
      4 O3B        -7.9800   -9.5550   30.0410 O.co2     1 ADP1003     0.0000 
      5 PA         -6.1610   -6.2350   29.2020 P.3       1 ADP1003     0.0000 
      6 O1A        -5.0870   -6.4860   30.2320 O.co2     1 ADP1003     0.0000 
      7 O2A        -5.7580   -5.6740   27.8650 O.co2     1 ADP1003     0.0000 
      8 O3A        -6.9860   -7.6030   28.9510 O.3       1 ADP1003     0.0000 
      9 O5'        -7.2770   -5.2360   29.7860 O.3       1 ADP1003     0.0000 
     10 C5'        -7.0770   -4.4440   30.9490 C.3       1 ADP1003     0.0000 
     11 C4'        -7.9180   -3.2030   30.7540 C.3       1 ADP1003     0.0000 
     12 O4'        -7.2940   -2.4220   29.7410 O.3       1 ADP1003     0.0000 
     13 C3'        -9.3450   -3.4610   30.2820 C.3       1 ADP1003     0.0000 
     14 O3'       -10.2410   -2.5900   31.0020 O.3       1 ADP1003     0.0000 
     15 C2'        -9.3250   -3.0860   28.8070 C.3       1 ADP1003     0.0000 
     16 O2'       -10.5760   -2.5620   28.3270 O.3       1 ADP1003     0.0000 
     17 C1'        -8.2280   -2.0410   28.7480 C.3       1 ADP1003     0.0000 
     18 N9         -7.5690   -2.0270   27.4380 N.pl3     1 ADP1003     0.0000 
     19 C8         -6.7460   -2.9660   26.9150 C.2       1 ADP1003     0.0000 
     20 N7         -6.3140   -2.6100   25.6710 N.2       1 ADP1003     0.0000 
     21 C5         -6.8770   -1.4100   25.3980 C.ar      1 ADP1003     0.0000 
     22 C6         -6.8680   -0.4580   24.2690 C.ar      1 ADP1003     0.0000 
     23 N6         -6.1580   -0.6860   23.1420 N.pl3     1 ADP1003     0.0000 
     24 N1         -7.6010    0.6630   24.4220 N.ar      1 ADP1003     0.0000 
     25 C2         -8.3310    0.9460   25.5270 C.ar      1 ADP1003     0.0000 
     26 N3         -8.4000    0.1340   26.5900 N.ar      1 ADP1003     0.0000 
     27 C4         -7.7060   -1.0330   26.5730 C.ar      1 ADP1003     0.0000 
     28 H          -6.0432   -4.1418   31.0634 H         1 ADP1003     0.0000 
     29 H          -7.4133   -4.9470   31.8473 H         1 ADP1003     0.0000 
     30 H          -7.9540   -2.6466   31.6758 H         1 ADP1003     0.0000 
     31 H          -9.5651   -4.4756   30.3850 H         1 ADP1003     0.0000 
     32 H          -8.9851   -3.9401   28.2557 H         1 ADP1003     0.0000 
     33 H          -8.6585   -1.0895   28.9713 H         1 ADP1003     0.0000 
     34 H          -6.4897   -3.7975   27.3678 H         1 ADP1003     0.0000 
     35 H          -5.6352   -1.5381   23.1161 H         1 ADP1003     0.0000 
     36 H          -6.2184    0.0176   22.4340 H         1 ADP1003     0.0000 
     37 H          -8.8753    1.8615   25.5457 H         1 ADP1003     0.0000 
     38 H         -11.1220   -2.6848   30.5385 H         1 ADP1003     0.0000 
     39 H         -11.1696   -2.5323   29.1312 H         1 ADP1003     0.0000 
@<TRIPOS>BOND
     1    2    1 ar   
     2    3    1 ar   
     3    4    1 ar   
     4    8    1 1    
     5    6    5 ar   
     6    7    5 ar   
     7    8    5 1    
     8    9    5 1    
     9   10    9 1    
    10   11   10 1    
    11   28   10 1    
    12   29   10 1    
    13   12   11 1    
    14   13   11 1    
    15   30   11 1    
    16   17   12 1    
    17   14   13 1    
    18   15   13 1    
    19   31   13 1    
    20   38   14 1    
    21   16   15 1    
    22   17   15 1    
    23   32   15 1    
    24   39   16 1    
    25   18   17 1    
    26   33   17 1    
    27   19   18 1    
    28   27   18 1    
    29   20   19 2    
    30   34   19 1    
    31   21   20 1    
    32   22   21 ar   
    33   27   21 ar   
    34   23   22 1    
    35   24   22 ar   
    36   35   23 1    
    37   36   23 1    
    38   25   24 ar   
    39   26   25 ar   
    40   37   25 1    
    41   27   26 ar   
@<TRIPOS>SUBSTRUCTURE
     1 ADP1003     1 GROUP   
@<TRIPOS>SET

