#    Name: 2wn6_NDP_1_INTS_M
#    Modification time : Tue Mar 25 04:30:07 2014

@<TRIPOS>MOLECULE
2wn6_NDP_1_INTS_M
   72     0    12     0     0
SMALL
NO_CHARGES


@<TRIPOS>ATOM
      1 NZ        -15.3025   -3.4140    9.1000 N.4       3 LYC4        0.0000 
      2 NZ        -16.9150   -2.9960    9.2280 N.4      11 LYL4        0.0000 
      3 NZ        -13.1380   -2.9790    9.8250 N.4       7 LYP4        0.0000 
      4 N         -15.4175   -2.6035    9.9050 N.am      2 SEC2        0.0000 
      5 N         -16.9150   -2.9960    9.2280 N.am     10 SEL2        0.0000 
      6 N         -13.9200   -2.2110   10.5820 N.am      6 SEP2        0.0000 
      7 N         -15.3025   -3.4140    9.1000 N.am      2 SEC2        0.0000 
      8 N         -13.6900   -3.8320    8.9720 N.am      6 SEP2        0.0000 
      9 CA        -12.9920   -6.5970    6.3735 C.3       4 GLC5        0.0000 
     10 CA        -15.0040   -7.2900    6.5910 C.3      12 GLL5        0.0000 
     11 CA        -10.9800   -5.9040    6.1560 C.3       8 GLP5        0.0000 
     12 N         -13.8785   -2.2420    4.4990 N.am      2 SEC2        0.0000 
     13 N         -13.4980   -3.7840    4.5930 N.am     10 SEL2        0.0000 
     14 N         -14.2590   -0.7000    4.4050 N.am      6 SEP2        0.0000 
     15 O         -12.2080   -1.7980    2.5305 O.2       1 ALC1        0.0000 
     16 O         -11.5210   -3.1150    2.4260 O.2       9 ALL1        0.0000 
     17 O         -12.8950   -0.4810    2.6350 O.2       5 ALP1        0.0000 
     18 CA        -13.5305   -5.2990    0.1135 C.3       4 GLC5        0.0000 
     19 CA        -12.5500   -6.4280    1.7380 C.3      12 GLL5        0.0000 
     20 CA        -14.5110   -4.1700   -1.5110 C.3       8 GLP5        0.0000 
     21 CA        -12.5015   -8.2685    2.3895 C.3       4 GLC5        0.0000 
     22 CA        -12.4530  -10.1090    3.0410 C.3       8 GLP5        0.0000 
     23 CA        -10.9595   -6.7130    3.1190 C.3       4 GLC5        0.0000 
     24 CA         -9.3690   -6.9980    4.5000 C.3       8 GLP5        0.0000 
     25 NZ        -15.6225   -6.2195   11.2350 N.4       3 LYC4        0.0000 
     26 NZ        -16.4290   -5.0530   10.9710 N.4      11 LYL4        0.0000 
     27 NZ        -15.4650   -8.5450   11.4470 N.4       7 LYP4        0.0000 
     28 N         -15.6225   -6.2195   11.2350 N.am      2 SEC2        0.0000 
     29 N         -16.4290   -5.0530   10.9710 N.am     10 SEL2        0.0000 
     30 N         -14.8160   -7.3860   11.4990 N.am      6 SEP2        0.0000 
     31 NZ        -17.4350   -7.7435   10.8860 N.4       3 LYC4        0.0000 
     32 NZ        -18.2430   -6.8560   10.9560 N.4      11 LYL4        0.0000 
     33 N         -17.4350   -7.7435   10.8860 N.am      2 SEC2        0.0000 
     34 N         -18.2430   -6.8560   10.9560 N.am     10 SEL2        0.0000 
     35 N         -16.6270   -8.6310   10.8160 N.am      6 SEP2        0.0000 
     36 CA        -18.5360   -5.5280   13.6700 C.3       4 GLC5        0.0000 
     37 CA        -19.9210   -4.7450   12.6300 C.3      12 GLL5        0.0000 
     38 CA        -17.1510   -6.3110   14.7100 C.3       8 GLP5        0.0000 
     39 CA        -21.2945   -1.9255    9.9760 C.3       4 GLC5        0.0000 
     40 CA        -20.2860   -2.3890   11.7280 C.3      12 GLL5        0.0000 
     41 CA        -22.3030   -1.4620    8.2240 C.3       8 GLP5        0.0000 
     42 O         -18.1505    0.8350   11.3475 O.2       1 ALC1        0.0000 
     43 O         -19.0350   -0.3780   11.3130 O.2       9 ALL1        0.0000 
     44 O         -17.2660    2.0480   11.3820 O.2       5 ALP1        0.0000 
     45 CA        -16.4235   -0.5710   12.8575 C.3       4 GLC5        0.0000 
     46 CA        -16.6640   -2.3530   13.9370 C.3      12 GLL5        0.0000 
     47 CA        -16.1830    1.2110   11.7780 C.3       8 GLP5        0.0000 
     48 N         -12.2530   -4.1380   14.9745 N.am      2 SEC2        0.0000 
     49 N         -13.4190   -3.4940   15.1170 N.am     10 SEL2        0.0000 
     50 N         -11.0870   -4.7820   14.8320 N.am      6 SEP2        0.0000 
     51 O         -13.5025   -5.2330   13.0010 O.2       1 ALC1        0.0000 
     52 O         -14.5430   -4.1310   13.2600 O.2       9 ALL1        0.0000 
     53 O         -12.4620   -6.3350   12.7420 O.2       5 ALP1        0.0000 
     54 N         -11.9740  -10.8320    5.3620 N.am      2 SEC2        0.0000 
     55 N         -13.0660  -10.7420    5.9390 N.am     10 SEL2        0.0000 
     56 N         -10.8820  -10.9220    4.7850 N.am      6 SEP2        0.0000 
     57 CA        -14.4759   -4.0501    2.2801 C.3       4 GLC5        0.0000 
     58 CA        -13.0590   -4.5120    3.5730 C.3      12 GLL5        0.0000 
     59 CA        -15.8020   -3.0290    1.2120 C.3       8 GLP5        0.0000 
     60 CA        -12.0649   -5.4876    4.7521 C.3       4 GLC5        0.0000 
     61 CA        -17.5820   -0.1712   12.2528 C.3       4 GLC5        0.0000 
     62 CA        -18.9810   -1.6430   11.9660 C.3      12 GLL5        0.0000 
     63 CA        -14.0738    0.4450   15.0258 C.3       4 GLC5        0.0000 
     64 CA        -16.1330   -0.2310   15.6780 C.3      12 GLL5        0.0000 
     65 CA        -12.4990    1.6110   14.4900 C.3       8 GLP5        0.0000 
     66 CA        -14.5132   -0.1310   17.2657 C.3       4 GLC5        0.0000 
     67 CA        -15.1640   -1.2110   15.4450 C.3      12 GLL5        0.0000 
     68 CA        -13.3780    0.4590   18.9700 C.3       8 GLP5        0.0000 
     69 CA        -16.4688    0.4703   13.5698 C.3       4 GLC5        0.0000 
     70 CA        -17.1007    1.5972   15.2103 C.3       4 GLC5        0.0000 
     71 CA        -17.3760   -0.3100   15.0450 C.3      12 GLL5        0.0000 
     72 CA        -17.4470    3.4650   15.0590 C.3       8 GLP5        0.0000 
@<TRIPOS>BOND
@<TRIPOS>SUBSTRUCTURE
     1 ALC1       15 GROUP        1 X    ALC  0     ROOT ALC X 1
     2 SEC2        4 GROUP        1 X    SEC  0     **** SEC X 2
     3 LYC4        1 GROUP        1 X    LYC  0     **** LYC X 4
     4 GLC5        9 GROUP        1 X    GLC  0     **** GLC X 6
     5 ALP1       17 GROUP        1 Y    ALP  0     ROOT ALP Y 8
     6 SEP2        6 GROUP        1 Y    SEP  0     **** SEP Y 9
     7 LYP4        3 GROUP        1 Y    LYP  0     **** LYP Y 11
     8 GLP5       11 GROUP        1 Y    GLP  0     **** GLP Y 13
     9 ALL1       16 GROUP        1 Z    ALL  0     ROOT ALL Z 15
    10 SEL2        5 GROUP        1 Z    SEL  0     **** SEL Z 16
    11 LYL4        2 GROUP        1 Z    LYL  0     **** LYL Z 18
    12 GLL5       10 GROUP        1 Z    GLL  0     **** GLL Z 20
@<TRIPOS>SET

