#    Name: 2wn6_NDP_1_ligand
#    Modification time : Tue Mar 25 04:30:07 2014

@<TRIPOS>MOLECULE
2wn6_NDP_1_ligand
   74    78     1     0     0
SMALL
NO_CHARGES


@<TRIPOS>ATOM
      1 PA        -18.0110   -3.8250    8.6770 P.3       1 NDP1421     0.0000 
      2 O1A       -16.9150   -2.9960    9.2280 O.co2     1 NDP1421     0.0000 
      3 O2A       -19.0960   -3.1790    7.9030 O.co2     1 NDP1421     0.0000 
      4 O5B       -17.3810   -4.9830    7.7380 O.3       1 NDP1421     0.0000 
      5 C5B       -18.2250   -5.9810    7.1420 C.3       1 NDP1421     0.0000 
      6 C4B       -17.4090   -6.9840    6.3150 C.3       1 NDP1421     0.0000 
      7 O4B       -16.6970   -6.2840    5.2660 O.3       1 NDP1421     0.0000 
      8 C3B       -16.3660   -7.6100    7.2450 C.3       1 NDP1421     0.0000 
      9 O3B       -16.6290   -9.0110    7.3190 O.3       1 NDP1421     0.0000 
     10 C2B       -15.0040   -7.2900    6.5910 C.3       1 NDP1421     0.0000 
     11 O2B       -14.0620   -8.4020    6.5940 O.3       1 NDP1421     0.0000 
     12 C1B       -15.3730   -6.8390    5.1670 C.3       1 NDP1421     0.0000 
     13 N9A       -14.4940   -5.7250    4.7020 N.pl3     1 NDP1421     0.0000 
     14 C8A       -14.3740   -4.5230    5.2740 C.2       1 NDP1421     0.0000 
     15 N7A       -13.4980   -3.7840    4.5930 N.2       1 NDP1421     0.0000 
     16 C5A       -13.0590   -4.5120    3.5730 C.ar      1 NDP1421     0.0000 
     17 C6A       -12.1560   -4.2810    2.5380 C.ar      1 NDP1421     0.0000 
     18 N6A       -11.5210   -3.1150    2.4260 N.pl3     1 NDP1421     0.0000 
     19 N1A       -11.9270   -5.2610    1.6460 N.ar      1 NDP1421     0.0000 
     20 C2A       -12.5500   -6.4280    1.7380 C.ar      1 NDP1421     0.0000 
     21 N3A       -13.4150   -6.6770    2.7120 N.ar      1 NDP1421     0.0000 
     22 C4A       -13.6920   -5.7460    3.6410 C.ar      1 NDP1421     0.0000 
     23 O3        -18.6900   -4.6660    9.8750 O.3       1 NDP1421     0.0000 
     24 PN        -17.8570   -5.4320   11.0470 P.3       1 NDP1421     0.0000 
     25 O1N       -16.4290   -5.0530   10.9710 O.co2     1 NDP1421     0.0000 
     26 O2N       -18.2430   -6.8560   10.9560 O.co2     1 NDP1421     0.0000 
     27 O5D       -18.4900   -4.8120   12.4050 O.3       1 NDP1421     0.0000 
     28 C5D       -19.9210   -4.7450   12.6300 C.3       1 NDP1421     0.0000 
     29 C4D       -20.4020   -3.3020   12.9520 C.3       1 NDP1421     0.0000 
     30 O4D       -19.5880   -2.6920   14.0050 O.3       1 NDP1421     0.0000 
     31 C3D       -20.2860   -2.3890   11.7280 C.3       1 NDP1421     0.0000 
     32 O3D       -21.3750   -1.4580   11.7260 O.3       1 NDP1421     0.0000 
     33 C2D       -18.9810   -1.6430   11.9660 C.3       1 NDP1421     0.0000 
     34 O2D       -19.0350   -0.3780   11.3130 O.3       1 NDP1421     0.0000 
     35 C1D       -18.9810   -1.4640   13.4890 C.3       1 NDP1421     0.0000 
     36 N1N       -17.6490   -1.3690   14.1590 N.pl3     1 NDP1421     0.0000 
     37 C2N       -16.6640   -2.3530   13.9370 C.2       1 NDP1421     0.0000 
     38 C3N       -15.4250   -2.2740   14.5740 C.2       1 NDP1421     0.0000 
     39 C7N       -14.3560   -3.3540   14.3310 C.2       1 NDP1421     0.0000 
     40 O7N       -13.4190   -3.4940   15.1170 O.2       1 NDP1421     0.0000 
     41 N7N       -14.5430   -4.1310   13.2600 N.am      1 NDP1421     0.0000 
     42 C4N       -15.1640   -1.2110   15.4450 C.3       1 NDP1421     0.0000 
     43 C5N       -16.1330   -0.2310   15.6780 C.2       1 NDP1421     0.0000 
     44 C6N       -17.3760   -0.3100   15.0450 C.2       1 NDP1421     0.0000 
     45 P2B       -14.4340   -9.9790    6.2420 P.3       1 NDP1421     0.0000 
     46 O1X       -14.9510  -10.6470    7.6420 O.co2     1 NDP1421     0.0000 
     47 O2X       -13.0660  -10.7420    5.9390 O.co2     1 NDP1421     0.0000 
     48 O3X       -15.4150  -10.1420    5.1410 O.co2     1 NDP1421     0.0000 
     49 H         -18.9731   -5.5289    6.4719 H         1 NDP1421     0.0000 
     50 H         -18.7766   -6.5513    7.9058 H         1 NDP1421     0.0000 
     51 H         -18.0405   -7.7359    5.9453 H         1 NDP1421     0.0000 
     52 H         -16.4218   -7.1156    8.1780 H         1 NDP1421     0.0000 
     53 H         -14.6076   -6.4173    7.0992 H         1 NDP1421     0.0000 
     54 H         -15.3409   -7.6527    4.5155 H         1 NDP1421     0.0000 
     55 H         -14.8584   -4.2305    6.0743 H         1 NDP1421     0.0000 
     56 H         -10.6239   -3.1432    1.9852 H         1 NDP1421     0.0000 
     57 H         -11.9987   -2.3167    2.7929 H         1 NDP1421     0.0000 
     58 H         -12.3522   -7.1789    1.0167 H         1 NDP1421     0.0000 
     59 H         -20.2252   -5.3856   13.4731 H         1 NDP1421     0.0000 
     60 H         -20.4828   -5.0860   11.7457 H         1 NDP1421     0.0000 
     61 H         -21.4321   -3.3379   13.2489 H         1 NDP1421     0.0000 
     62 H         -20.2077   -2.9693   10.8706 H         1 NDP1421     0.0000 
     63 H         -18.1833   -2.2509   11.6926 H         1 NDP1421     0.0000 
     64 H         -19.6027   -0.6400   13.7515 H         1 NDP1421     0.0000 
     65 H         -16.8666   -3.1335   13.2987 H         1 NDP1421     0.0000 
     66 H         -15.3683   -3.9513   12.7247 H         1 NDP1421     0.0000 
     67 H         -13.8408   -4.8224   13.0900 H         1 NDP1421     0.0000 
     68 H         -14.1821   -0.6913   15.1123 H         1 NDP1421     0.0000 
     69 H         -14.8193   -1.6428   16.4646 H         1 NDP1421     0.0000 
     70 H         -15.9308    0.5481   16.3154 H         1 NDP1421     0.0000 
     71 H         -18.0920    0.4009   15.2228 H         1 NDP1421     0.0000 
     72 H         -16.5543   -9.3383    6.3771 H         1 NDP1421     0.0000 
     73 H         -20.9492   -0.5621   11.5996 H         1 NDP1421     0.0000 
     74 H         -18.2268    0.1145   11.6359 H         1 NDP1421     0.0000 
@<TRIPOS>BOND
     1    2    1 ar   
     2    3    1 ar   
     3    4    1 1    
     4   23    1 1    
     5    5    4 1    
     6    6    5 1    
     7   49    5 1    
     8   50    5 1    
     9    7    6 1    
    10    8    6 1    
    11   51    6 1    
    12   12    7 1    
    13    9    8 1    
    14   10    8 1    
    15   52    8 1    
    16   72    9 1    
    17   11   10 1    
    18   12   10 1    
    19   53   10 1    
    20   45   11 1    
    21   13   12 1    
    22   54   12 1    
    23   14   13 1    
    24   22   13 1    
    25   15   14 2    
    26   55   14 1    
    27   16   15 1    
    28   17   16 ar   
    29   22   16 ar   
    30   18   17 1    
    31   19   17 ar   
    32   56   18 1    
    33   57   18 1    
    34   20   19 ar   
    35   21   20 ar   
    36   58   20 1    
    37   22   21 ar   
    38   24   23 1    
    39   25   24 ar   
    40   26   24 ar   
    41   27   24 1    
    42   28   27 1    
    43   29   28 1    
    44   59   28 1    
    45   60   28 1    
    46   30   29 1    
    47   31   29 1    
    48   61   29 1    
    49   35   30 1    
    50   32   31 1    
    51   33   31 1    
    52   62   31 1    
    53   73   32 1    
    54   34   33 1    
    55   35   33 1    
    56   63   33 1    
    57   74   34 1    
    58   36   35 1    
    59   64   35 1    
    60   37   36 1    
    61   44   36 1    
    62   38   37 2    
    63   65   37 1    
    64   39   38 1    
    65   42   38 1    
    66   40   39 2    
    67   41   39 am   
    68   66   41 1    
    69   67   41 1    
    70   43   42 1    
    71   68   42 1    
    72   69   42 1    
    73   44   43 2    
    74   70   43 1    
    75   71   44 1    
    76   46   45 ar   
    77   47   45 ar   
    78   48   45 ar   
@<TRIPOS>SUBSTRUCTURE
     1 NDP1421     1 GROUP   
@<TRIPOS>SET

