#    Name: 4ekk_ANP_1_INTS_M
#    Modification time : Mon Mar 24 18:07:53 2014

@<TRIPOS>MOLECULE
4ekk_ANP_1_INTS_M
   78     0    18     0     0
SMALL
NO_CHARGES


@<TRIPOS>ATOM
      1 NZ         10.6535    3.5015   25.2875 N.4       4 LYC4        0.0000 
      2 NZ         10.5760    3.4490   23.9150 N.4      16 LYL4        0.0000 
      3 NZ         10.7310    3.5540   26.6600 N.4      10 LYP4        0.0000 
      4 Zn         11.4465    3.1175   23.2180 Zn        5 ZIC7        0.0000 
      5 Zn         10.5760    3.4490   23.9150 Zn       17 ZIL7        0.0000 
      6 Zn         12.3170    2.7860   22.5210 Zn       11 ZIP7        0.0000 
      7 N          10.6535    3.5015   25.2875 N.am      2 SEC2        0.0000 
      8 N          10.5760    3.4490   23.9150 N.am     14 SEL2        0.0000 
      9 N          10.7310    3.5540   26.6600 N.am      8 SEP2        0.0000 
     10 N           8.1840    5.2620   25.0630 N.am      2 SEC2        0.0000 
     11 N           8.5230    4.9470   23.5980 N.am     14 SEL2        0.0000 
     12 N           7.8450    5.5770   26.5280 N.am      8 SEP2        0.0000 
     13 Zn         11.6280    6.4980   22.6180 Zn        5 ZIC7        0.0000 
     14 Zn         10.9330    5.8640   23.2170 Zn       17 ZIL7        0.0000 
     15 Zn         12.3230    7.1320   22.0190 Zn       11 ZIP7        0.0000 
     16 N          10.3625    6.6115   24.0260 N.am      2 SEC2        0.0000 
     17 N          10.9330    5.8640   23.2170 N.am     14 SEL2        0.0000 
     18 N           9.7920    7.3590   24.8350 N.am      8 SEP2        0.0000 
     19 NZ         12.3860    6.2465   18.8680 N.4       4 LYC4        0.0000 
     20 NZ         11.3540    6.1100   20.4170 N.4      16 LYL4        0.0000 
     21 NZ         13.4180    6.3830   17.3190 N.4      10 LYP4        0.0000 
     22 Zn         11.8385    6.6210   21.2180 Zn        5 ZIC7        0.0000 
     23 Zn         11.3540    6.1100   20.4170 Zn       17 ZIL7        0.0000 
     24 OD1        11.6300    4.4105   21.7600 O.co2     3 ASC3        0.0000 
     25 OD1         9.9280    4.0730   21.4800 O.co2    15 ASL3        0.0000 
     26 OD1        13.3320    4.7480   22.0400 O.co2     9 ASP3        0.0000 
     27 NZ         13.4490    4.8845   17.8320 N.4       4 LYC4        0.0000 
     28 NZ         13.4800    3.3860   18.3450 N.4      16 LYL4        0.0000 
     29 N          13.4490    4.8845   17.8320 N.am      2 SEC2        0.0000 
     30 N          13.4800    3.3860   18.3450 N.am     14 SEL2        0.0000 
     31 N          13.4180    6.3830   17.3190 N.am      8 SEP2        0.0000 
     32 Zn         12.4895    2.5380   21.4945 Zn        5 ZIC7        0.0000 
     33 Zn         12.6620    2.2900   20.4680 Zn       17 ZIL7        0.0000 
     34 CA          9.5535   -1.7470   17.2470 C.3       6 GLC5        0.0000 
     35 CA         11.0140   -0.7830   18.5980 C.3      18 GLL5        0.0000 
     36 CA          8.0930   -2.7110   15.8960 C.3      12 GLP5        0.0000 
     37 N          10.3850   -1.6155   21.4825 N.am      2 SEC2        0.0000 
     38 N          11.4860   -1.4170   20.8880 N.am     14 SEL2        0.0000 
     39 N           9.2840   -1.8140   22.0770 N.am      8 SEP2        0.0000 
     40 O          11.4875   -2.5455   21.4125 O.2       1 ALC1        0.0000 
     41 O          11.4860   -1.4170   20.8880 O.2      13 ALL1        0.0000 
     42 O          11.4890   -3.6740   21.9370 O.2       7 ALP1        0.0000 
     43 CA         13.0880   -3.6795   20.6810 C.3       6 GLC5        0.0000 
     44 CA         12.6960   -2.4250   19.0140 C.3      18 GLL5        0.0000 
     45 CA         13.4800   -4.9340   22.3480 C.3      12 GLP5        0.0000 
     46 O          11.7365   -3.6345   20.6610 O.2       1 ALC1        0.0000 
     47 O          11.9840   -3.5950   19.3850 O.2      13 ALL1        0.0000 
     48 CA         12.6950   -1.3800   15.4930 C.3       6 GLC5        0.0000 
     49 CA         12.5310   -2.1530   17.5090 C.3      18 GLL5        0.0000 
     50 CA         12.8590   -0.6070   13.4770 C.3      12 GLP5        0.0000 
     51 CA         16.6275   -0.4875   18.0575 C.3       6 GLC5        0.0000 
     52 CA         15.8410   -1.2910   16.1510 C.3      18 GLL5        0.0000 
     53 CA         17.4140    0.3160   19.9640 C.3      12 GLP5        0.0000 
     54 CA         17.7410    0.3645   15.5335 C.3       6 GLC5        0.0000 
     55 CA         17.0520   -1.7680   15.5830 C.3      18 GLL5        0.0000 
     56 CA         18.4300    2.4970   15.4840 C.3      12 GLP5        0.0000 
     57 O          19.4480   -1.2710   14.5440 O.2       1 ALC1        0.0000 
     58 O          17.9780   -0.8290   15.2710 O.2      13 ALL1        0.0000 
     59 O          20.9180   -1.7130   13.8170 O.2       7 ALP1        0.0000 
     60 N          18.5020   -4.0980   15.0880 N.am      2 SEC2        0.0000 
     61 N          17.2430   -3.0870   15.3790 N.am     14 SEL2        0.0000 
     62 N          19.7610   -5.1090   14.7970 N.am      8 SEP2        0.0000 
     63 CA         14.9505   -4.2040   14.0470 C.3       6 GLC5        0.0000 
     64 CA         16.2280   -3.9040   15.7420 C.3      18 GLL5        0.0000 
     65 CA         13.6730   -4.5040   12.3520 C.3      12 GLP5        0.0000 
     66 CA         16.4425   -2.9105   13.8650 C.3       6 GLC5        0.0000 
     67 CA         16.6570   -1.9170   11.9880 C.3      12 GLP5        0.0000 
     68 CA         17.9915   -4.5380   16.4985 C.3       6 GLC5        0.0000 
     69 CA         19.7550   -5.1720   17.2550 C.3      12 GLP5        0.0000 
     70 CA         16.3250   -3.6150   17.5495 C.3       6 GLC5        0.0000 
     71 CA         16.4220   -3.3260   19.3570 C.3      12 GLP5        0.0000 
     72 CA         11.1610    0.5300   16.6375 C.3       6 GLC5        0.0000 
     73 CA         11.4920    1.0940   14.6880 C.3      12 GLP5        0.0000 
     74 CA         14.5178   -2.8075   18.8092 C.3       6 GLC5        0.0000 
     75 CA         14.1080   -1.1895   14.8965 C.3       6 GLC5        0.0000 
     76 CA         14.8730   -2.2530   16.4810 C.3      18 GLL5        0.0000 
     77 CA         16.5517   -1.7233   13.9275 C.3       6 GLC5        0.0000 
     78 CA         16.0409   -2.6086   17.7655 C.3       6 GLC5        0.0000 
@<TRIPOS>BOND
@<TRIPOS>SUBSTRUCTURE
     1 ALC1       40 GROUP        1 X    ALC  0     ROOT ALC X 1
     2 SEC2        7 GROUP        1 X    SEC  0     **** SEC X 2
     3 ASC3       24 GROUP        1 X    ASC  0     **** ASC X 3
     4 LYC4        1 GROUP        1 X    LYC  0     **** LYC X 4
     5 ZIC7        4 GROUP        1 X    ZIC  0     **** ZIC X 5
     6 GLC5       34 GROUP        1 X    GLC  0     **** GLC X 6
     7 ALP1       42 GROUP        1 Y    ALP  0     ROOT ALP Y 8
     8 SEP2        9 GROUP        1 Y    SEP  0     **** SEP Y 9
     9 ASP3       26 GROUP        1 Y    ASP  0     **** ASP Y 10
    10 LYP4        3 GROUP        1 Y    LYP  0     **** LYP Y 11
    11 ZIP7        6 GROUP        1 Y    ZIP  0     **** ZIP Y 12
    12 GLP5       36 GROUP        1 Y    GLP  0     **** GLP Y 13
    13 ALL1       41 GROUP        1 Z    ALL  0     ROOT ALL Z 15
    14 SEL2        8 GROUP        1 Z    SEL  0     **** SEL Z 16
    15 ASL3       25 GROUP        1 Z    ASL  0     **** ASL Z 17
    16 LYL4        2 GROUP        1 Z    LYL  0     **** LYL Z 18
    17 ZIL7        5 GROUP        1 Z    ZIL  0     **** ZIL Z 19
    18 GLL5       35 GROUP        1 Z    GLL  0     **** GLL Z 20
@<TRIPOS>SET

