#    Name: 4ekk_ANP_1_ligand
#    Modification time : Mon Mar 24 18:07:53 2014

@<TRIPOS>MOLECULE
4ekk_ANP_1_ligand
   43    45     1     0     0
SMALL
NO_CHARGES


@<TRIPOS>ATOM
      1 PG          9.9990    4.5870   23.1380 P.3       1 ANP501      0.0000 
      2 O1G        10.5760    3.4490   23.9150 O.co2     1 ANP501      0.0000 
      3 O2G         8.5230    4.9470   23.5980 O.co2     1 ANP501      0.0000 
      4 O3G        10.9330    5.8640   23.2170 O.co2     1 ANP501      0.0000 
      5 PB         10.3870    4.9140   20.0290 P.3       1 ANP501      0.0000 
      6 O1B         9.1250    5.4390   19.4260 O.co2     1 ANP501      0.0000 
      7 O2B        11.3540    6.1100   20.4170 O.co2     1 ANP501      0.0000 
      8 N3B         9.9280    4.0730   21.4800 N.4       1 ANP501      0.0000 
      9 PA         12.2810    2.7860   19.0080 P.3       1 ANP501      0.0000 
     10 O1A        13.4800    3.3860   18.3450 O.co2     1 ANP501      0.0000 
     11 O2A        12.6620    2.2900   20.4680 O.co2     1 ANP501      0.0000 
     12 O3A        11.1150    3.8660   19.0800 O.3       1 ANP501      0.0000 
     13 O5'        11.7460    1.5370   18.1810 O.3       1 ANP501      0.0000 
     14 C5'        10.6460    0.7150   18.5760 C.3       1 ANP501      0.0000 
     15 C4'        11.0140   -0.7830   18.5980 C.3       1 ANP501      0.0000 
     16 O4'        11.4980   -1.1950   17.3320 O.3       1 ANP501      0.0000 
     17 C3'        12.0830   -1.1540   19.6330 C.3       1 ANP501      0.0000 
     18 O3'        11.4860   -1.4170   20.8880 O.3       1 ANP501      0.0000 
     19 C2'        12.6960   -2.4250   19.0140 C.3       1 ANP501      0.0000 
     20 O2'        11.9840   -3.5950   19.3850 O.3       1 ANP501      0.0000 
     21 C1'        12.5310   -2.1530   17.5090 C.3       1 ANP501      0.0000 
     22 N9         13.8190   -1.5800   16.9970 N.pl3     1 ANP501      0.0000 
     23 C8         14.2460   -0.2460   16.9380 C.2       1 ANP501      0.0000 
     24 N7         15.4450   -0.0020   16.4410 N.2       1 ANP501      0.0000 
     25 C5         15.8410   -1.2910   16.1510 C.ar      1 ANP501      0.0000 
     26 C6         17.0520   -1.7680   15.5830 C.ar      1 ANP501      0.0000 
     27 N6         17.9780   -0.8290   15.2710 N.pl3     1 ANP501      0.0000 
     28 N1         17.2430   -3.0870   15.3790 N.ar      1 ANP501      0.0000 
     29 C2         16.2280   -3.9040   15.7420 C.ar      1 ANP501      0.0000 
     30 N3         15.0380   -3.5740   16.2870 N.ar      1 ANP501      0.0000 
     31 C4         14.8730   -2.2530   16.4810 C.ar      1 ANP501      0.0000 
     32 H           9.7849    0.8290   17.8926 H         1 ANP501      0.0000 
     33 H          10.2832    0.9763   19.5867 H         1 ANP501      0.0000 
     34 H          10.1095   -1.3465   18.8500 H         1 ANP501      0.0000 
     35 H          12.8157   -0.4005   19.6321 H         1 ANP501      0.0000 
     36 H          13.7239   -2.4369   19.2315 H         1 ANP501      0.0000 
     37 H          12.3268   -3.0706   17.0218 H         1 ANP501      0.0000 
     38 H          13.6192    0.4889   17.2794 H         1 ANP501      0.0000 
     39 H          17.7155    0.1210   15.4399 H         1 ANP501      0.0000 
     40 H          18.8418   -1.1693   14.8995 H         1 ANP501      0.0000 
     41 H          16.3952   -4.9779   15.5702 H         1 ANP501      0.0000 
     42 H          12.0192   -2.1689   21.2756 H         1 ANP501      0.0000 
     43 H          11.4668   -3.3354   20.2006 H         1 ANP501      0.0000 
@<TRIPOS>BOND
     1    2    1 ar   
     2    3    1 ar   
     3    4    1 ar   
     4    8    1 1    
     5    6    5 ar   
     6    7    5 ar   
     7    8    5 1    
     8   12    5 1    
     9   10    9 ar   
    10   11    9 ar   
    11   12    9 1    
    12   13    9 1    
    13   14   13 1    
    14   15   14 1    
    15   32   14 1    
    16   33   14 1    
    17   16   15 1    
    18   17   15 1    
    19   34   15 1    
    20   21   16 1    
    21   18   17 1    
    22   19   17 1    
    23   35   17 1    
    24   42   18 1    
    25   20   19 1    
    26   21   19 1    
    27   36   19 1    
    28   43   20 1    
    29   22   21 1    
    30   37   21 1    
    31   23   22 1    
    32   31   22 1    
    33   24   23 2    
    34   38   23 1    
    35   25   24 1    
    36   26   25 ar   
    37   31   25 ar   
    38   27   26 1    
    39   28   26 ar   
    40   39   27 1    
    41   40   27 1    
    42   29   28 ar   
    43   30   29 ar   
    44   41   29 1    
    45   31   30 ar   
@<TRIPOS>SUBSTRUCTURE
     1 ANP501      1 GROUP   
@<TRIPOS>SET

