#    Name: 3uve_NAD_4_INTS_M
#    Modification time : Mon Mar 24 23:36:35 2014

@<TRIPOS>MOLECULE
3uve_NAD_4_INTS_M
  122     0    12     0     0
SMALL
NO_CHARGES


@<TRIPOS>ATOM
      1 NZ          8.3050  -15.2220    6.3725 N.4       3 LYC4        0.0000 
      2 NZ          8.8850  -14.2410    7.2690 N.4      11 LYL4        0.0000 
      3 NZ          6.4180  -16.2310    5.3100 N.4       7 LYP4        0.0000 
      4 N           8.3050  -15.2220    6.3725 N.am      2 SEC2        0.0000 
      5 N           8.8850  -14.2410    7.2690 N.am     10 SEL2        0.0000 
      6 N           7.7250  -16.2030    5.4760 N.am      6 SEP2        0.0000 
      7 NZ          6.1695  -15.0815    7.3800 N.4       3 LYC4        0.0000 
      8 NZ          6.7050  -14.5830    8.6050 N.4      11 LYL4        0.0000 
      9 N           6.1695  -15.0815    7.3800 N.am      2 SEC2        0.0000 
     10 N           6.7050  -14.5830    8.6050 N.am     10 SEL2        0.0000 
     11 N           5.6340  -15.5800    6.1550 N.am      6 SEP2        0.0000 
     12 CA          6.6505   -8.9170    6.1430 C.3       4 GLC5        0.0000 
     13 CA          7.4090  -10.6620    6.2150 C.3      12 GLL5        0.0000 
     14 CA          5.8920   -7.1720    6.0710 C.3       8 GLP5        0.0000 
     15 CA          5.3930  -12.9020    5.8970 C.3       4 GLC5        0.0000 
     16 CA          7.0430  -11.6180    5.0820 C.3      12 GLL5        0.0000 
     17 CA          3.7430  -14.1860    6.7120 C.3       8 GLP5        0.0000 
     18 N           5.3425  -12.6465    4.0280 N.am      2 SEC2        0.0000 
     19 N           5.6750  -11.4960    4.7290 N.am     10 SEL2        0.0000 
     20 N           5.0100  -13.7970    3.3270 N.am      6 SEP2        0.0000 
     21 O           5.2050  -10.3530    4.3455 O.2       1 ALC1        0.0000 
     22 O           5.6750  -11.4960    4.7290 O.2       9 ALL1        0.0000 
     23 O           4.7350   -9.2100    3.9620 O.2       5 ALP1        0.0000 
     24 O           5.4660  -10.6240    3.3070 O.2       1 ALC1        0.0000 
     25 O           5.2570   -9.7520    1.8850 O.2       5 ALP1        0.0000 
     26 CA          8.1035  -10.4295    1.8150 C.3       4 GLC5        0.0000 
     27 CA          7.8880  -11.1520    3.9290 C.3      12 GLL5        0.0000 
     28 CA          8.3190   -9.7070   -0.2990 C.3       8 GLP5        0.0000 
     29 N           6.1905  -12.6050    2.9690 N.am      2 SEC2        0.0000 
     30 N           7.3710  -11.4130    2.6110 N.am     10 SEL2        0.0000 
     31 O           6.3140  -10.5825    2.2480 O.2       1 ALC1        0.0000 
     32 O           7.3710  -11.4130    2.6110 O.2       9 ALL1        0.0000 
     33 CA          6.9930   -8.4315    5.1540 C.3       4 GLC5        0.0000 
     34 CA          8.0940   -9.6910    4.2370 C.3      12 GLL5        0.0000 
     35 CA          8.8105   -7.7625    4.8990 C.3       4 GLC5        0.0000 
     36 CA          9.5270   -5.8340    5.5610 C.3       8 GLP5        0.0000 
     37 CA         11.2365   -9.8135    1.2765 C.3       4 GLC5        0.0000 
     38 CA         10.5950   -7.9450    2.2210 C.3      12 GLL5        0.0000 
     39 CA         11.8780  -11.6820    0.3320 C.3       8 GLP5        0.0000 
     40 CA          9.5175   -7.6205    0.1025 C.3       4 GLC5        0.0000 
     41 CA         10.8430   -6.8450    1.3210 C.3      12 GLL5        0.0000 
     42 CA          8.1920   -8.3960   -1.1160 C.3       8 GLP5        0.0000 
     43 CA         10.1995   -5.6480   -0.3835 C.3       4 GLC5        0.0000 
     44 CA          9.5560   -4.4510   -2.0880 C.3       8 GLP5        0.0000 
     45 CA         11.4260   -5.1765    1.8640 C.3       4 GLC5        0.0000 
     46 CA         12.0090   -3.5080    2.4070 C.3       8 GLP5        0.0000 
     47 O          12.1915   -5.9670   -0.4495 O.2       1 ALC1        0.0000 
     48 O          12.0510   -6.7430    0.7760 O.2       9 ALL1        0.0000 
     49 O          12.3320   -5.1910   -1.6750 O.2       5 ALP1        0.0000 
     50 N          10.1190   -4.6365    0.4740 N.am      2 SEC2        0.0000 
     51 N           9.8460   -5.9880    1.0890 N.am     10 SEL2        0.0000 
     52 N          10.3920   -3.2850   -0.1410 N.am      6 SEP2        0.0000 
     53 CA          6.6015   -6.4180    1.6475 C.3       4 GLC5        0.0000 
     54 CA          8.6310   -6.1380    1.6480 C.3      12 GLL5        0.0000 
     55 CA          4.5720   -6.6980    1.6470 C.3       8 GLP5        0.0000 
     56 CA          8.4115   -7.2670    0.2660 C.3       4 GLC5        0.0000 
     57 CA          9.0935   -5.2945   -0.2200 C.3       4 GLC5        0.0000 
     58 CA          9.1240   -4.3720    2.1895 C.3       4 GLC5        0.0000 
     59 CA          9.6170   -2.6060    2.7310 C.3       8 GLP5        0.0000 
     60 CA          9.0790   -5.9860    3.6045 C.3       4 GLC5        0.0000 
     61 N           7.2360   -7.4030    1.2665 N.am      2 SEC2        0.0000 
     62 N           8.2980   -7.1840    2.4300 N.am     10 SEL2        0.0000 
     63 N           6.1740   -7.6220    0.1030 N.am      6 SEP2        0.0000 
     64 N           8.7615  -12.5555   13.2495 N.am      2 SEC2        0.0000 
     65 N           8.7930  -13.5150   12.1360 N.am     10 SEL2        0.0000 
     66 N           8.7300  -11.5960   14.3630 N.am      6 SEP2        0.0000 
     67 N           8.3380  -14.8115   12.0535 N.am      2 SEC2        0.0000 
     68 N           7.8830  -16.1080   11.9710 N.am      6 SEP2        0.0000 
     69 N           5.7085  -11.8910   11.5370 N.am      2 SEC2        0.0000 
     70 N           6.9890  -12.1440   10.9470 N.am     10 SEL2        0.0000 
     71 N           4.4280  -11.6380   12.1270 N.am      6 SEP2        0.0000 
     72 CA          7.3975  -10.1335   12.3545 C.3       4 GLC5        0.0000 
     73 CA          9.1160  -10.1710   11.1360 C.3      12 GLL5        0.0000 
     74 CA          5.6790  -10.0960   13.5730 C.3       8 GLP5        0.0000 
     75 CA         12.1045   -9.1140    8.9325 C.3       4 GLC5        0.0000 
     76 CA         11.5470   -9.4860   10.7280 C.3      12 GLL5        0.0000 
     77 CA         12.6620   -8.7420    7.1370 C.3       8 GLP5        0.0000 
     78 CA         11.8825  -11.4310    9.7480 C.3       4 GLC5        0.0000 
     79 CA         12.2180  -13.3760    8.7680 C.3       8 GLP5        0.0000 
     80 N          13.5160   -7.8570   11.2450 N.am      2 SEC2        0.0000 
     81 N          12.2200   -8.2330   10.7320 N.am     10 SEL2        0.0000 
     82 N          14.8120   -7.4810   11.7580 N.am      6 SEP2        0.0000 
     83 CA         14.2525   -9.3800   11.7130 C.3       4 GLC5        0.0000 
     84 CA         12.4090  -10.5140   11.3810 C.3      12 GLL5        0.0000 
     85 CA         16.0960   -8.2460   12.0450 C.3       8 GLP5        0.0000 
     86 CA         12.5080  -12.2860   10.8710 C.3       4 GLC5        0.0000 
     87 CA         12.6070  -14.0580   10.3610 C.3       8 GLP5        0.0000 
     88 N          14.8020  -10.9845   11.9430 N.am      2 SEC2        0.0000 
     89 N          13.7870  -10.3630   11.0570 N.am     10 SEL2        0.0000 
     90 N          15.8170  -11.6060   12.8290 N.am      6 SEP2        0.0000 
     91 N          14.2995   -8.9220   11.4075 N.am      2 SEC2        0.0000 
     92 CA         11.6235   -8.5360   13.5435 C.3       4 GLC5        0.0000 
     93 CA         12.1260  -10.2410   12.8360 C.3      12 GLL5        0.0000 
     94 CA         11.1210   -6.8310   14.2510 C.3       8 GLP5        0.0000 
     95 N          10.9890  -15.9805   16.4115 N.am      2 SEC2        0.0000 
     96 N          11.9060  -15.7480   15.3110 N.am     10 SEL2        0.0000 
     97 N          10.0720  -16.2130   17.5120 N.am      6 SEP2        0.0000 
     98 O           9.5625  -16.2400   14.5510 O.2       1 ALC1        0.0000 
     99 O          10.5130  -15.1270   13.6290 O.2       9 ALL1        0.0000 
    100 O           8.6120  -17.3530   15.4730 O.2       5 ALP1        0.0000 
    101 CA         12.6700   -9.8170   16.4385 C.3       4 GLC5        0.0000 
    102 CA         13.2190  -11.0150   14.8640 C.3      12 GLL5        0.0000 
    103 CA         12.1210   -8.6190   18.0130 C.3       8 GLP5        0.0000 
    104 CA          6.0437  -12.4335    3.2612 C.3       4 GLC5        0.0000 
    105 CA          4.6220  -13.4820    2.0170 C.3       8 GLP5        0.0000 
    106 CA          9.1225   -8.8598    1.0990 C.3       4 GLC5        0.0000 
    107 CA          9.2570   -8.0800    2.7730 C.3      12 GLL5        0.0000 
    108 CA          9.7265   -6.9232    4.0290 C.3       4 GLC5        0.0000 
    109 CA         12.5280   -7.2535    2.7625 C.3       4 GLC5        0.0000 
    110 CA         14.3370   -7.1120    3.7540 C.3       8 GLP5        0.0000 
    111 CA         11.0240   -8.1357   12.7205 C.3       4 GLC5        0.0000 
    112 CA         12.3133  -13.5507   12.2515 C.3       4 GLC5        0.0000 
    113 CA         11.8710  -12.5310   13.6870 C.3      12 GLL5        0.0000 
    114 CA         10.8663  -13.4517   16.2858 C.3       4 GLC5        0.0000 
    115 CA         12.1680  -13.5560   14.5970 C.3      12 GLL5        0.0000 
    116 CA          9.1420  -13.4850   17.4180 C.3       8 GLP5        0.0000 
    117 CA         12.1930  -11.6718   17.1242 C.3       4 GLC5        0.0000 
    118 CA         13.0130  -13.2810   15.7100 C.3      12 GLL5        0.0000 
    119 CA         11.1210  -10.7210   18.4940 C.3       8 GLP5        0.0000 
    120 CA         14.9945  -10.5413   15.6732 C.3       4 GLC5        0.0000 
    121 CA         13.5170  -11.9640   15.7990 C.3      12 GLL5        0.0000 
    122 CA         16.6210   -9.5930   16.0150 C.3       8 GLP5        0.0000 
@<TRIPOS>BOND
@<TRIPOS>SUBSTRUCTURE
     1 ALC1       21 GROUP        1 X    ALC  0     ROOT ALC X 1
     2 SEC2        4 GROUP        1 X    SEC  0     **** SEC X 2
     3 LYC4        1 GROUP        1 X    LYC  0     **** LYC X 4
     4 GLC5       12 GROUP        1 X    GLC  0     **** GLC X 6
     5 ALP1       23 GROUP        1 Y    ALP  0     ROOT ALP Y 8
     6 SEP2        6 GROUP        1 Y    SEP  0     **** SEP Y 9
     7 LYP4        3 GROUP        1 Y    LYP  0     **** LYP Y 11
     8 GLP5       14 GROUP        1 Y    GLP  0     **** GLP Y 13
     9 ALL1       22 GROUP        1 Z    ALL  0     ROOT ALL Z 15
    10 SEL2        5 GROUP        1 Z    SEL  0     **** SEL Z 16
    11 LYL4        2 GROUP        1 Z    LYL  0     **** LYL Z 18
    12 GLL5       13 GROUP        1 Z    GLL  0     **** GLL Z 20
@<TRIPOS>SET

