#    Name: 3uve_NAD_4_ligand
#    Modification time : Mon Mar 24 23:36:35 2014

@<TRIPOS>MOLECULE
3uve_NAD_4_ligand
   70    74     1     0     0
SMALL
NO_CHARGES


@<TRIPOS>ATOM
      1 PA          7.8820  -13.7590    8.2780 P.3       1 NAD300      0.0000 
      2 O1A         8.8850  -14.2410    7.2690 O.co2     1 NAD300      0.0000 
      3 O2A         6.7050  -14.5830    8.6050 O.co2     1 NAD300      0.0000 
      4 O5B         7.3410  -12.3470    7.8770 O.3       1 NAD300      0.0000 
      5 C5B         8.1620  -11.3390    7.3400 C.3       1 NAD300      0.0000 
      6 C4B         7.4090  -10.6620    6.2150 C.3       1 NAD300      0.0000 
      7 O4B         8.2650   -9.6670    5.6220 O.3       1 NAD300      0.0000 
      8 C3B         7.0430  -11.6180    5.0820 C.3       1 NAD300      0.0000 
      9 O3B         5.6750  -11.4960    4.7290 O.3       1 NAD300      0.0000 
     10 C2B         7.8880  -11.1520    3.9290 C.3       1 NAD300      0.0000 
     11 O2B         7.3710  -11.4130    2.6110 O.3       1 NAD300      0.0000 
     12 C1B         8.0940   -9.6910    4.2370 C.3       1 NAD300      0.0000 
     13 N9A         9.2870   -9.1550    3.5470 N.pl3     1 NAD300      0.0000 
     14 C8A        10.5400   -9.6900    3.5070 C.2       1 NAD300      0.0000 
     15 N7A        11.3510   -8.9710    2.7080 N.2       1 NAD300      0.0000 
     16 C5A        10.5950   -7.9450    2.2210 C.ar      1 NAD300      0.0000 
     17 C6A        10.8430   -6.8450    1.3210 C.ar      1 NAD300      0.0000 
     18 N6A        12.0510   -6.7430    0.7760 N.pl3     1 NAD300      0.0000 
     19 N1A         9.8460   -5.9880    1.0890 N.ar      1 NAD300      0.0000 
     20 C2A         8.6310   -6.1380    1.6480 C.ar      1 NAD300      0.0000 
     21 N3A         8.2980   -7.1840    2.4300 N.ar      1 NAD300      0.0000 
     22 C4A         9.2570   -8.0800    2.7730 C.ar      1 NAD300      0.0000 
     23 O3          8.7290  -13.5130    9.6160 O.3       1 NAD300      0.0000 
     24 PN          8.3830  -12.6860   10.9460 P.3       1 NAD300      0.0000 
     25 O1N         8.7930  -13.5150   12.1360 O.co2     1 NAD300      0.0000 
     26 O2N         6.9890  -12.1440   10.9470 O.co2     1 NAD300      0.0000 
     27 O5D         9.4480  -11.5170   10.7760 O.3       1 NAD300      0.0000 
     28 C5D         9.1160  -10.1710   11.1360 C.3       1 NAD300      0.0000 
     29 C4D        10.3070   -9.3950   11.6520 C.3       1 NAD300      0.0000 
     30 O4D        10.7220   -9.9820   12.8770 O.3       1 NAD300      0.0000 
     31 C3D        11.5470   -9.4860   10.7280 C.3       1 NAD300      0.0000 
     32 O3D        12.2200   -8.2330   10.7320 O.3       1 NAD300      0.0000 
     33 C2D        12.4090  -10.5140   11.3810 C.3       1 NAD300      0.0000 
     34 O2D        13.7870  -10.3630   11.0570 O.3       1 NAD300      0.0000 
     35 C1D        12.1260  -10.2410   12.8360 C.3       1 NAD300      0.0000 
     36 N1N        12.4560  -11.3140   13.7700 N.pl3     1 NAD300      0.0000 
     37 C2N        11.8710  -12.5310   13.6870 C.ar      1 NAD300      0.0000 
     38 C3N        12.1680  -13.5560   14.5970 C.ar      1 NAD300      0.0000 
     39 C7N        11.5190  -14.8760   14.5160 C.2       1 NAD300      0.0000 
     40 O7N        11.9060  -15.7480   15.3110 O.2       1 NAD300      0.0000 
     41 N7N        10.5130  -15.1270   13.6290 N.am      1 NAD300      0.0000 
     42 C4N        13.0130  -13.2810   15.7100 C.ar      1 NAD300      0.0000 
     43 C5N        13.5170  -11.9640   15.7990 C.ar      1 NAD300      0.0000 
     44 C6N        13.2190  -11.0150   14.8640 C.ar      1 NAD300      0.0000 
     45 H           9.0936  -11.7392    6.9280 H         1 NAD300      0.0000 
     46 H           8.4182  -10.5751    8.0806 H         1 NAD300      0.0000 
     47 H           6.5172  -10.2120    6.5886 H         1 NAD300      0.0000 
     48 H           7.3347  -12.5928    5.3504 H         1 NAD300      0.0000 
     49 H           8.8833  -11.6255    4.0691 H         1 NAD300      0.0000 
     50 H           7.2128   -9.1628    3.9414 H         1 NAD300      0.0000 
     51 H          10.8075  -10.4954    4.0001 H         1 NAD300      0.0000 
     52 H          12.7152   -7.4407    1.0445 H         1 NAD300      0.0000 
     53 H          12.1866   -5.9778    0.1467 H         1 NAD300      0.0000 
     54 H           7.8930   -5.3911    1.4632 H         1 NAD300      0.0000 
     55 H           8.3306  -10.1500   11.9192 H         1 NAD300      0.0000 
     56 H           8.6987   -9.6179   10.2695 H         1 NAD300      0.0000 
     57 H          10.0583   -8.3709   11.7814 H         1 NAD300      0.0000 
     58 H          11.2377   -9.8104    9.7881 H         1 NAD300      0.0000 
     59 H          12.0126  -11.4783   11.1488 H         1 NAD300      0.0000 
     60 H          12.6517   -9.3228   13.1068 H         1 NAD300      0.0000 
     61 H          11.1768  -12.7338   12.9328 H         1 NAD300      0.0000 
     62 H          10.1229  -16.0474   13.6550 H         1 NAD300      0.0000 
     63 H          10.2542  -14.3685   13.0310 H         1 NAD300      0.0000 
     64 H          13.2318  -13.9777   16.3811 H         1 NAD300      0.0000 
     65 H          14.1309  -11.7311   16.6077 H         1 NAD300      0.0000 
     66 H          13.5803  -10.0424   14.9861 H         1 NAD300      0.0000 
     67 H           5.5691  -10.5484    4.4277 H         1 NAD300      0.0000 
     68 H           6.6420  -10.7408    2.4813 H         1 NAD300      0.0000 
     69 H          12.0013   -7.8247   11.6183 H         1 NAD300      0.0000 
     70 H          14.0061  -11.1529   10.4842 H         1 NAD300      0.0000 
@<TRIPOS>BOND
     1    2    1 ar   
     2    3    1 ar   
     3    4    1 1    
     4   23    1 1    
     5    5    4 1    
     6    6    5 1    
     7   45    5 1    
     8   46    5 1    
     9    7    6 1    
    10    8    6 1    
    11   47    6 1    
    12   12    7 1    
    13    9    8 1    
    14   10    8 1    
    15   48    8 1    
    16   67    9 1    
    17   11   10 1    
    18   12   10 1    
    19   49   10 1    
    20   68   11 1    
    21   13   12 1    
    22   50   12 1    
    23   14   13 1    
    24   22   13 1    
    25   15   14 2    
    26   51   14 1    
    27   16   15 1    
    28   17   16 ar   
    29   22   16 ar   
    30   18   17 1    
    31   19   17 ar   
    32   52   18 1    
    33   53   18 1    
    34   20   19 ar   
    35   21   20 ar   
    36   54   20 1    
    37   22   21 ar   
    38   24   23 1    
    39   25   24 ar   
    40   26   24 ar   
    41   27   24 1    
    42   28   27 1    
    43   29   28 1    
    44   55   28 1    
    45   56   28 1    
    46   30   29 1    
    47   31   29 1    
    48   57   29 1    
    49   35   30 1    
    50   32   31 1    
    51   33   31 1    
    52   58   31 1    
    53   69   32 1    
    54   34   33 1    
    55   35   33 1    
    56   59   33 1    
    57   70   34 1    
    58   36   35 1    
    59   60   35 1    
    60   37   36 ar   
    61   44   36 ar   
    62   38   37 ar   
    63   61   37 1    
    64   39   38 1    
    65   42   38 ar   
    66   40   39 2    
    67   41   39 am   
    68   62   41 1    
    69   63   41 1    
    70   43   42 ar   
    71   64   42 1    
    72   44   43 ar   
    73   65   43 1    
    74   66   44 1    
@<TRIPOS>SUBSTRUCTURE
     1 NAD300      1 GROUP   
@<TRIPOS>SET

