#    Name: 1daw_ANP_1_INTS_M
#    Modification time : Mon Mar 24 21:36:06 2014

@<TRIPOS>MOLECULE
1daw_ANP_1_INTS_M
   81     0    18     0     0
SMALL
NO_CHARGES


@<TRIPOS>ATOM
      1 NZ         24.1120   -1.6995   16.2690 N.4       4 LYC4        0.0000 
      2 NZ         24.7800   -0.3780   15.9690 N.4      16 LYL4        0.0000 
      3 NZ         23.4440   -3.0210   16.5690 N.4      10 LYP4        0.0000 
      4 Zn         24.3625    0.4985   16.0245 Zn        5 ZIC7        0.0000 
      5 Zn         24.7800   -0.3780   15.9690 Zn       17 ZIL7        0.0000 
      6 Zn         23.9450    1.3750   16.0800 Zn       11 ZIP7        0.0000 
      7 N          24.1120   -1.6995   16.2690 N.am      2 SEC2        0.0000 
      8 N          24.7800   -0.3780   15.9690 N.am     14 SEL2        0.0000 
      9 N          23.4440   -3.0210   16.5690 N.am      8 SEP2        0.0000 
     10 NZ         25.1375   -2.2265   16.6605 N.4       4 LYC4        0.0000 
     11 NZ         26.8310   -1.4320   16.7520 N.4      16 LYL4        0.0000 
     12 Zn         26.5970    0.2690   13.9750 Zn        5 ZIC7        0.0000 
     13 Zn         26.7510   -0.5060   14.5540 Zn       17 ZIL7        0.0000 
     14 Zn         26.4430    1.0440   13.3960 Zn       11 ZIP7        0.0000 
     15 N          29.1620    3.8000   17.1875 N.am      2 SEC2        0.0000 
     16 N          28.3280    2.9760   16.8180 N.am     14 SEL2        0.0000 
     17 N          29.9960    4.6240   17.5570 N.am      8 SEP2        0.0000 
     18 NZ         27.4990    4.1530   14.0205 N.4       4 LYC4        0.0000 
     19 NZ         27.7240    2.7960   14.4900 N.4      16 LYL4        0.0000 
     20 NZ         27.2740    5.5100   13.5510 N.4      10 LYP4        0.0000 
     21 Zn         27.0835    1.9200   13.9430 Zn        5 ZIC7        0.0000 
     22 Zn         27.7240    2.7960   14.4900 Zn       17 ZIL7        0.0000 
     23 N          27.4990    4.1530   14.0205 N.am      2 SEC2        0.0000 
     24 N          27.7240    2.7960   14.4900 N.am     14 SEL2        0.0000 
     25 N          27.2740    5.5100   13.5510 N.am      8 SEP2        0.0000 
     26 OD1        25.6165    1.2950   15.3910 O.co2     3 ASC3        0.0000 
     27 OD1        26.8840    1.0240   16.4870 O.co2    15 ASL3        0.0000 
     28 OD1        24.3490    1.5660   14.2950 O.co2     9 ASP3        0.0000 
     29 NZ         26.0515    5.4200   14.7375 N.4       4 LYC4        0.0000 
     30 NZ         24.8290    5.3300   15.9240 N.4      16 LYL4        0.0000 
     31 N          26.0515    5.4200   14.7375 N.am      2 SEC2        0.0000 
     32 N          24.8290    5.3300   15.9240 N.am     14 SEL2        0.0000 
     33 Zn         23.8890    2.2535   16.3355 Zn        5 ZIC7        0.0000 
     34 Zn         23.8330    3.1320   16.5910 Zn       17 ZIL7        0.0000 
     35 Zn         24.9970    2.2010   16.2125 Zn        5 ZIC7        0.0000 
     36 Zn         26.0490    3.0270   16.3450 Zn       17 ZIL7        0.0000 
     37 CA         25.0935    4.1035   21.9410 C.3       6 GLC5        0.0000 
     38 CA         24.0010    3.9300   20.2590 C.3      18 GLL5        0.0000 
     39 CA         26.1860    4.2770   23.6230 C.3      12 GLP5        0.0000 
     40 O          21.1715    2.1245   19.1650 O.2       1 ALC1        0.0000 
     41 O          22.2640    2.2520   19.8610 O.2      13 ALL1        0.0000 
     42 O          20.0790    1.9970   18.4690 O.2       7 ALP1        0.0000 
     43 CA         23.6990    7.1145   22.3795 C.3       6 GLC5        0.0000 
     44 CA         22.8830    5.8450   20.9140 C.3      18 GLL5        0.0000 
     45 CA         24.5150    8.3840   23.8450 C.3      12 GLP5        0.0000 
     46 CA         24.4750    7.1155   20.6780 C.3       6 GLC5        0.0000 
     47 CA         26.0670    8.3860   20.4420 C.3      12 GLP5        0.0000 
     48 CA         20.6750    5.9845   20.6130 C.3       6 GLC5        0.0000 
     49 CA         18.4670    6.1240   20.3120 C.3      12 GLP5        0.0000 
     50 CA         19.9060    8.6995   17.2455 C.3       6 GLC5        0.0000 
     51 CA         20.6710    9.7880   19.0390 C.3      18 GLL5        0.0000 
     52 CA         19.1410    7.6110   15.4520 C.3      12 GLP5        0.0000 
     53 O          20.5435   12.0985   17.8495 O.2       1 ALC1        0.0000 
     54 O          20.5530   10.5620   17.9660 O.2      13 ALL1        0.0000 
     55 O          20.5340   13.6350   17.7330 O.2       7 ALP1        0.0000 
     56 N          18.9520   11.3215   20.3210 N.am      2 SEC2        0.0000 
     57 N          19.8990   10.0580   20.1020 N.am     14 SEL2        0.0000 
     58 N          18.0050   12.5850   20.5400 N.am      8 SEP2        0.0000 
     59 CA         21.5370   10.4060   21.4515 C.3       6 GLC5        0.0000 
     60 CA         19.9760    9.2960   21.2350 C.3      18 GLL5        0.0000 
     61 CA         23.0980   11.5160   21.6680 C.3      12 GLP5        0.0000 
     62 CA         18.1660   10.1020   20.4940 C.3       6 GLC5        0.0000 
     63 CA         16.3560   10.9080   19.7530 C.3      12 GLP5        0.0000 
     64 CA         19.2215    7.7100   20.7735 C.3       6 GLC5        0.0000 
     65 CA         22.2970    9.7470   20.9950 C.3       6 GLC5        0.0000 
     66 CA         21.4960    7.9780   20.3220 C.3      18 GLL5        0.0000 
     67 CA         19.9815    7.0510   20.3170 C.3       6 GLC5        0.0000 
     68 CA         26.0098    5.1475   19.6275 C.3       6 GLC5        0.0000 
     69 CA         27.4880    6.5630   19.4850 C.3      12 GLP5        0.0000 
     70 CA         20.2853    4.2960   20.0872 C.3       6 GLC5        0.0000 
     71 CA         22.5520    3.6960   19.8520 C.3      18 GLL5        0.0000 
     72 CA         18.3650    4.4080   19.8460 C.3      12 GLP5        0.0000 
     73 CA         21.5542    4.7130   18.5983 C.3       6 GLC5        0.0000 
     74 CA         21.8590    4.6720   20.8050 C.3      18 GLL5        0.0000 
     75 CA         20.9030    5.2420   16.8680 C.3      12 GLP5        0.0000 
     76 CA         21.8807   10.7445   19.7527 C.3       6 GLC5        0.0000 
     77 CA         21.5040    8.7020   19.1480 C.3      18 GLL5        0.0000 
     78 CA         22.6740   12.2440   20.4120 C.3      12 GLP5        0.0000 
     79 CA         19.4847    8.1230   18.9752 C.3       6 GLC5        0.0000 
     80 CA         17.8820    7.0010   18.8570 C.3      12 GLP5        0.0000 
     81 CA         21.2015    6.7910   18.3015 C.3       6 GLC5        0.0000 
@<TRIPOS>BOND
@<TRIPOS>SUBSTRUCTURE
     1 ALC1       40 GROUP        1 X    ALC  0     ROOT ALC X 1
     2 SEC2        7 GROUP        1 X    SEC  0     **** SEC X 2
     3 ASC3       26 GROUP        1 X    ASC  0     **** ASC X 3
     4 LYC4        1 GROUP        1 X    LYC  0     **** LYC X 4
     5 ZIC7        4 GROUP        1 X    ZIC  0     **** ZIC X 5
     6 GLC5       37 GROUP        1 X    GLC  0     **** GLC X 6
     7 ALP1       42 GROUP        1 Y    ALP  0     ROOT ALP Y 8
     8 SEP2        9 GROUP        1 Y    SEP  0     **** SEP Y 9
     9 ASP3       28 GROUP        1 Y    ASP  0     **** ASP Y 10
    10 LYP4        3 GROUP        1 Y    LYP  0     **** LYP Y 11
    11 ZIP7        6 GROUP        1 Y    ZIP  0     **** ZIP Y 12
    12 GLP5       39 GROUP        1 Y    GLP  0     **** GLP Y 13
    13 ALL1       41 GROUP        1 Z    ALL  0     ROOT ALL Z 15
    14 SEL2        8 GROUP        1 Z    SEL  0     **** SEL Z 16
    15 ASL3       27 GROUP        1 Z    ASL  0     **** ASL Z 17
    16 LYL4        2 GROUP        1 Z    LYL  0     **** LYL Z 18
    17 ZIL7        5 GROUP        1 Z    ZIL  0     **** ZIL Z 19
    18 GLL5       38 GROUP        1 Z    GLL  0     **** GLL Z 20
@<TRIPOS>SET

