#    Name: 1daw_ANP_1_ligand
#    Modification time : Mon Mar 24 21:36:06 2014

@<TRIPOS>MOLECULE
1daw_ANP_1_ligand
   43    45     1     0     0
SMALL
NO_CHARGES


@<TRIPOS>ATOM
      1 PG         26.2290   -0.2570   15.9220 P.3       1 ANP340      0.0000 
      2 O1G        24.7800   -0.3780   15.9690 O.co2     1 ANP340      0.0000 
      3 O2G        26.8310   -1.4320   16.7520 O.co2     1 ANP340      0.0000 
      4 O3G        26.7510   -0.5060   14.5540 O.co2     1 ANP340      0.0000 
      5 PB         27.3310    2.4030   15.9110 P.3       1 ANP340      0.0000 
      6 O1B        28.3280    2.9760   16.8180 O.co2     1 ANP340      0.0000 
      7 O2B        27.7240    2.7960   14.4900 O.co2     1 ANP340      0.0000 
      8 N3B        26.8840    1.0240   16.4870 N.4       1 ANP340      0.0000 
      9 PA         24.9810    4.0640   16.6750 P.3       1 ANP340      0.0000 
     10 O1A        24.8290    5.3300   15.9240 O.co2     1 ANP340      0.0000 
     11 O2A        23.8330    3.1320   16.5910 O.co2     1 ANP340      0.0000 
     12 O3A        26.0490    3.0270   16.3450 O.3       1 ANP340      0.0000 
     13 O5'        25.3000    4.4290   18.1700 O.3       1 ANP340      0.0000 
     14 C5'        25.0620    3.5340   19.2810 C.3       1 ANP340      0.0000 
     15 C4'        24.0010    3.9300   20.2590 C.3       1 ANP340      0.0000 
     16 O4'        24.0890    5.3610   20.4580 O.3       1 ANP340      0.0000 
     17 C3'        22.5520    3.6960   19.8520 C.3       1 ANP340      0.0000 
     18 O3'        22.2640    2.2520   19.8610 O.3       1 ANP340      0.0000 
     19 C2'        21.8590    4.6720   20.8050 C.3       1 ANP340      0.0000 
     20 O2'        21.5630    4.2330   22.1370 O.3       1 ANP340      0.0000 
     21 C1'        22.8830    5.8450   20.9140 C.3       1 ANP340      0.0000 
     22 N9         22.4340    6.9830   20.1150 N.pl3     1 ANP340      0.0000 
     23 C8         22.8510    7.2340   18.8490 C.2       1 ANP340      0.0000 
     24 N7         22.3410    8.2370   18.2410 N.2       1 ANP340      0.0000 
     25 C5         21.5040    8.7020   19.1480 C.ar      1 ANP340      0.0000 
     26 C6         20.6710    9.7880   19.0390 C.ar      1 ANP340      0.0000 
     27 N6         20.5530   10.5620   17.9660 N.pl3     1 ANP340      0.0000 
     28 N1         19.8990   10.0580   20.1020 N.ar      1 ANP340      0.0000 
     29 C2         19.9760    9.2960   21.2350 C.ar      1 ANP340      0.0000 
     30 N3         20.7440    8.2530   21.4010 N.ar      1 ANP340      0.0000 
     31 C4         21.4960    7.9780   20.3220 C.ar      1 ANP340      0.0000 
     32 H          26.0202    3.3732   19.8553 H         1 ANP340      0.0000 
     33 H          24.8109    2.5034   18.8956 H         1 ANP340      0.0000 
     34 H          24.1701    3.4446   21.2125 H         1 ANP340      0.0000 
     35 H          22.4813    4.1224   18.8445 H         1 ANP340      0.0000 
     36 H          21.0050    5.0964   20.2987 H         1 ANP340      0.0000 
     37 H          22.9207    6.1123   21.9599 H         1 ANP340      0.0000 
     38 H          23.5625    6.6105   18.4203 H         1 ANP340      0.0000 
     39 H          20.7473   11.5337   18.1008 H         1 ANP340      0.0000 
     40 H          20.2805   10.1031   17.1203 H         1 ANP340      0.0000 
     41 H          19.3335    9.6047   22.0536 H         1 ANP340      0.0000 
     42 H          21.2680    2.1865   19.7996 H         1 ANP340      0.0000 
     43 H          20.8595    4.8627   22.4666 H         1 ANP340      0.0000 
@<TRIPOS>BOND
     1    2    1 ar   
     2    3    1 ar   
     3    4    1 ar   
     4    8    1 1    
     5    6    5 ar   
     6    7    5 ar   
     7    8    5 1    
     8   12    5 1    
     9   10    9 ar   
    10   11    9 ar   
    11   12    9 1    
    12   13    9 1    
    13   14   13 1    
    14   15   14 1    
    15   32   14 1    
    16   33   14 1    
    17   16   15 1    
    18   17   15 1    
    19   34   15 1    
    20   21   16 1    
    21   18   17 1    
    22   19   17 1    
    23   35   17 1    
    24   42   18 1    
    25   20   19 1    
    26   21   19 1    
    27   36   19 1    
    28   43   20 1    
    29   22   21 1    
    30   37   21 1    
    31   23   22 1    
    32   31   22 1    
    33   24   23 2    
    34   38   23 1    
    35   25   24 1    
    36   26   25 ar   
    37   31   25 ar   
    38   27   26 1    
    39   28   26 ar   
    40   39   27 1    
    41   40   27 1    
    42   29   28 ar   
    43   30   29 ar   
    44   41   29 1    
    45   31   30 ar   
@<TRIPOS>SUBSTRUCTURE
     1 ANP340      1 GROUP   
@<TRIPOS>SET

