#    Name: 1yc4_43P_1_INTS_M
#    Modification time : Mon Apr  7 15:40:52 2014

@<TRIPOS>MOLECULE
1yc4_43P_1_INTS_M
   49     0     9     0     0
SMALL
NO_CHARGES


@<TRIPOS>ATOM
      1 O          31.6910   31.6410   -3.3400 O.2       1 ALC1        0.0000 
      2 O          32.7690   32.2390   -3.8380 O.2       7 ALL1        0.0000 
      3 O          30.6130   31.0430   -2.8420 O.2       4 ALP1        0.0000 
      4 CA         33.5330   30.4440   -3.9030 C.3       3 GLC5        0.0000 
      5 CA         33.9300   32.1240   -3.1370 C.3       9 GLL5        0.0000 
      6 CA         33.1360   28.7640   -4.6690 C.3       6 GLP5        0.0000 
      7 CA         34.8600   29.6095   -0.3670 C.3       3 GLC5        0.0000 
      8 CA         35.0320   31.5290   -1.0690 C.3       9 GLL5        0.0000 
      9 CA         34.6880   27.6900    0.3350 C.3       6 GLP5        0.0000 
     10 CA         37.7605   29.6850   -3.2410 C.3       3 GLC5        0.0000 
     11 CA         37.7730   29.8000   -1.0560 C.3       9 GLL5        0.0000 
     12 CA         37.7480   29.5700   -5.4260 C.3       6 GLP5        0.0000 
     13 CA         38.0510   27.8925   -0.9140 C.3       3 GLC5        0.0000 
     14 CA         38.3290   25.9850   -0.7720 C.3       6 GLP5        0.0000 
     15 CA         36.2305   28.7450   -0.3605 C.3       3 GLC5        0.0000 
     16 N          34.3100   30.7030   -5.9745 N.am      2 SEC2        0.0000 
     17 N          34.8650   32.1240   -6.1400 N.am      8 SEL2        0.0000 
     18 N          33.7550   29.2820   -5.8090 N.am      5 SEP2        0.0000 
     19 O          35.1865   32.3740   -8.5135 O.2       1 ALC1        0.0000 
     20 O          35.0220   32.7870   -7.1700 O.2       7 ALL1        0.0000 
     21 O          35.3510   31.9610   -9.8570 O.2       4 ALP1        0.0000 
     22 CA         34.4345   34.3645   -8.3405 C.3       3 GLC5        0.0000 
     23 CA         35.4930   33.9940   -6.8710 C.3       9 GLL5        0.0000 
     24 CA         33.3760   34.7350   -9.8100 C.3       6 GLP5        0.0000 
     25 CA         36.0625   37.6025   -6.3490 C.3       3 GLC5        0.0000 
     26 CA         36.6170   36.2670   -5.3390 C.3       9 GLL5        0.0000 
     27 CA         35.5080   38.9380   -7.3590 C.3       6 GLP5        0.0000 
     28 CA         34.2530   33.3365   -1.0820 C.3       3 GLC5        0.0000 
     29 CA         34.6100   34.7580    0.3080 C.3       6 GLP5        0.0000 
     30 CA         32.2505   33.0210   -1.9195 C.3       3 GLC5        0.0000 
     31 CA         33.8620   31.7060   -1.8070 C.3       9 GLL5        0.0000 
     32 CA         30.6050   34.1270   -1.3670 C.3       6 GLP5        0.0000 
     33 CA         33.3032   33.4405   -4.5617 C.3       3 GLC5        0.0000 
     34 CA         32.0630   34.6210   -5.6870 C.3       6 GLP5        0.0000 
     35 CA         34.3565   29.9757   -2.5575 C.3       3 GLC5        0.0000 
     36 CA         34.2660   28.3340   -3.6770 C.3       6 GLP5        0.0000 
     37 CA         35.1307   33.1968   -0.5312 C.3       3 GLC5        0.0000 
     38 CA         39.5745   30.5448   -1.4187 C.3       3 GLC5        0.0000 
     39 CA         41.4690   30.5290   -1.8070 C.3       6 GLP5        0.0000 
     40 CA         38.2995   30.3622    0.5693 C.3       3 GLC5        0.0000 
     41 CA         38.9190   30.1640    2.1690 C.3       6 GLP5        0.0000 
     42 CA         36.7428   30.9345   -4.3942 C.3       3 GLC5        0.0000 
     43 CA         36.3180   32.2020   -2.9890 C.3       9 GLL5        0.0000 
     44 CA         34.9959   30.2590   -3.3551 C.3       3 GLC5        0.0000 
     45 CA         35.1570   32.3960   -3.7360 C.3       9 GLL5        0.0000 
     46 CA         36.7597   32.4977   -6.9655 C.3       3 GLC5        0.0000 
     47 CA         35.6180   34.0750   -5.5490 C.3       9 GLL5        0.0000 
     48 CA         37.9640   30.9610   -7.7210 C.3       6 GLP5        0.0000 
     49 CA         33.9156   34.6221   -5.6045 C.3       3 GLC5        0.0000 
@<TRIPOS>BOND
@<TRIPOS>SUBSTRUCTURE
     1 ALC1        1 GROUP        1 X    ALC  0     ROOT ALC X 1
     2 SEC2       16 GROUP        1 X    SEC  0     **** SEC X 2
     3 GLC5        4 GROUP        1 X    GLC  0     **** GLC X 6
     4 ALP1        3 GROUP        1 Y    ALP  0     ROOT ALP Y 8
     5 SEP2       18 GROUP        1 Y    SEP  0     **** SEP Y 9
     6 GLP5        6 GROUP        1 Y    GLP  0     **** GLP Y 13
     7 ALL1        2 GROUP        1 Z    ALL  0     ROOT ALL Z 15
     8 SEL2       17 GROUP        1 Z    SEL  0     **** SEL Z 16
     9 GLL5        5 GROUP        1 Z    GLL  0     **** GLL Z 20
@<TRIPOS>SET

