#    Name: 1yc4_43P_1_ligand
#    Modification time : Mon Apr  7 15:40:52 2014

@<TRIPOS>MOLECULE
1yc4_43P_1_ligand
   34    36     1     0     0
SMALL
NO_CHARGES


@<TRIPOS>ATOM
      1 OAQ        32.7690   32.2390   -3.8380 O.3       1 43P301      0.0000 
      2 CAF        33.9300   32.1240   -3.1370 C.ar      1 43P301      0.0000 
      3 CAJ        33.8620   31.7060   -1.8070 C.ar      1 43P301      0.0000 
      4 CAL        35.0320   31.5290   -1.0690 C.ar      1 43P301      0.0000 
      5 OAR        34.9460   31.2410    0.2620 O.3       1 43P301      0.0000 
      6 CAM        36.2710   31.7420   -1.6720 C.ar      1 43P301      0.0000 
      7 CAS        37.5870   31.3210   -1.0050 C.3       1 43P301      0.0000 
      8 CAT        37.7730   29.8000   -1.0560 C.3       1 43P301      0.0000 
      9 CAG        36.3180   32.2020   -2.9890 C.ar      1 43P301      0.0000 
     10 CAC        35.1570   32.3960   -3.7360 C.ar      1 43P301      0.0000 
     11 CAB        35.2030   32.8350   -5.0630 C.2       1 43P301      0.0000 
     12 NAE        34.8650   32.1240   -6.1400 N.2       1 43P301      0.0000 
     13 NAI        35.0220   32.7870   -7.1700 N.pl3     1 43P301      0.0000 
     14 CAK        35.4930   33.9940   -6.8710 C.2       1 43P301      0.0000 
     15 CAA        35.6180   34.0750   -5.5490 C.2       1 43P301      0.0000 
     16 CAD        35.9810   35.2120   -4.8340 C.2       1 43P301      0.0000 
     17 CAP        36.6170   36.2670   -5.3390 C.2       1 43P301      0.0000 
     18 NAN        36.7480   37.1850   -4.3850 N.pl3     1 43P301      0.0000 
     19 CAO        36.1990   36.7030   -3.2730 C.2       1 43P301      0.0000 
     20 NAH        35.7300   35.4900   -3.5570 N.2       1 43P301      0.0000 
     21 H          32.9485   31.5286   -1.3716 H         1 43P301      0.0000 
     22 H          37.5810   31.6464    0.0343 H         1 43P301      0.0000 
     23 H          38.4181   31.8009   -1.5198 H         1 43P301      0.0000 
     24 H          37.2394   32.4042   -3.4217 H         1 43P301      0.0000 
     25 H          34.8380   32.5067   -8.1159 H         1 43P301      0.0000 
     26 H          35.7087   34.6958   -7.5076 H         1 43P301      0.0000 
     27 H          36.9344   36.3523   -6.2571 H         1 43P301      0.0000 
     28 H          37.1698   38.0534   -4.4829 H         1 43P301      0.0000 
     29 H          36.1497   37.1499   -2.4182 H         1 43P301      0.0000 
     30 H          38.6272   29.5155   -0.6208 H         1 43P301      0.0000 
     31 H          37.0314   29.3193   -0.5881 H         1 43P301      0.0000 
     32 H          37.7956   29.4599   -1.9961 H         1 43P301      0.0000 
     33 H          32.0865   31.7566   -3.2890 H         1 43P301      0.0000 
     34 H          33.9826   31.0230    0.4178 H         1 43P301      0.0000 
@<TRIPOS>BOND
     1    2    1 1    
     2   33    1 1    
     3    3    2 ar   
     4   10    2 ar   
     5    4    3 ar   
     6   21    3 1    
     7    5    4 1    
     8    6    4 ar   
     9   34    5 1    
    10    7    6 1    
    11    9    6 ar   
    12    8    7 1    
    13   22    7 1    
    14   23    7 1    
    15   30    8 1    
    16   31    8 1    
    17   32    8 1    
    18   10    9 ar   
    19   24    9 1    
    20   11   10 1    
    21   12   11 2    
    22   15   11 1    
    23   13   12 1    
    24   14   13 1    
    25   25   13 1    
    26   15   14 2    
    27   26   14 1    
    28   16   15 1    
    29   17   16 2    
    30   20   16 1    
    31   18   17 1    
    32   27   17 1    
    33   19   18 1    
    34   28   18 1    
    35   20   19 2    
    36   29   19 1    
@<TRIPOS>SUBSTRUCTURE
     1 43P301      1 GROUP   
@<TRIPOS>SET

