#    Name: 2ez8_TDL_2_INTS_M
#    Modification time : Mon Apr  7 17:59:24 2014

@<TRIPOS>MOLECULE
2ez8_TDL_2_INTS_M
   83     0    12     0     0
SMALL
NO_CHARGES


@<TRIPOS>ATOM
      1 N          26.1475   88.2085   15.0115 N.am      2 SEC2        0.0000 
      2 N          25.6650   88.8540   13.7870 N.am     10 SEL2        0.0000 
      3 N          26.6300   87.5630   16.2360 N.am      6 SEP2        0.0000 
      4 N          26.3090   90.1780   13.7685 N.am      2 SEC2        0.0000 
      5 N          26.9530   91.5020   13.7500 N.am      6 SEP2        0.0000 
      6 N          22.6010   87.2470   13.3205 N.am      2 SEC2        0.0000 
      7 N          23.5600   87.5300   14.2580 N.am     10 SEL2        0.0000 
      8 N          21.6420   86.9640   12.3830 N.am      6 SEP2        0.0000 
      9 Zn         23.0000   88.6495   11.5095 Zn        3 ZIC7        0.0000 
     10 Zn         23.6440   89.0240   12.2560 Zn       11 ZIL7        0.0000 
     11 Zn         22.3560   88.2750   10.7630 Zn        7 ZIP7        0.0000 
     12 N          22.4345   89.5975   12.7725 N.am      2 SEC2        0.0000 
     13 N          23.6440   89.0240   12.2560 N.am     10 SEL2        0.0000 
     14 N          21.2250   90.1710   13.2890 N.am      6 SEP2        0.0000 
     15 N          24.3025   90.2260   11.9705 N.am      2 SEC2        0.0000 
     16 N          24.9610   91.4280   11.6850 N.am      6 SEP2        0.0000 
     17 Zn         23.1310   87.6875   10.4580 Zn        3 ZIC7        0.0000 
     18 Zn         23.9060   87.1000   10.1530 Zn       11 ZIL7        0.0000 
     19 N          23.5570   86.1355    9.1925 N.am      2 SEC2        0.0000 
     20 N          23.9060   87.1000   10.1530 N.am     10 SEL2        0.0000 
     21 N          23.2080   85.1710    8.2320 N.am      6 SEP2        0.0000 
     22 N          25.4270   84.2340    9.6135 N.am      2 SEC2        0.0000 
     23 N          25.5010   85.1490   10.6690 N.am     10 SEL2        0.0000 
     24 N          25.3530   83.3190    8.5580 N.am      6 SEP2        0.0000 
     25 CA         27.9950   86.7600   12.8935 C.3       4 GLC5        0.0000 
     26 CA         27.6820   87.1050   10.8850 C.3      12 GLL5        0.0000 
     27 CA         28.3080   86.4150   14.9020 C.3       8 GLP5        0.0000 
     28 CA         27.9505   86.0385    9.4290 C.3       4 GLC5        0.0000 
     29 CA         28.2190   84.9720    7.9730 C.3       8 GLP5        0.0000 
     30 CA         27.1060   87.9150    9.0955 C.3       4 GLC5        0.0000 
     31 CA         26.5300   88.7250    7.3060 C.3       8 GLP5        0.0000 
     32 CA         27.7240   89.5930    9.5250 C.3       4 GLC5        0.0000 
     33 CA         28.5630   88.2690   10.5200 C.3      12 GLL5        0.0000 
     34 CA         26.8850   90.9170    8.5300 C.3       8 GLP5        0.0000 
     35 CA         29.5750   87.1355   13.4980 C.3       4 GLC5        0.0000 
     36 CA         30.8420   87.8560   12.0940 C.3      12 GLL5        0.0000 
     37 CA         29.9180   89.0425   13.1800 C.3       4 GLC5        0.0000 
     38 CA         28.9940   90.2290   14.2660 C.3       8 GLP5        0.0000 
     39 CA         28.5990   88.5185    7.6870 C.3       4 GLC5        0.0000 
     40 CA         30.6680   88.3120    8.0680 C.3      12 GLL5        0.0000 
     41 CA         32.7380   89.5510   11.5530 C.3       4 GLC5        0.0000 
     42 CA         33.7620   87.7920   12.1140 C.3      12 GLL5        0.0000 
     43 CA         31.7140   91.3100   10.9920 C.3       8 GLP5        0.0000 
     44 CA         33.2035   86.4175   15.2575 C.3       4 GLC5        0.0000 
     45 CA         33.5950   87.2960   13.5610 C.3      12 GLL5        0.0000 
     46 CA         32.8120   85.5390   16.9540 C.3       8 GLP5        0.0000 
     47 N          33.8855   91.3015   13.7655 N.am      2 SEC2        0.0000 
     48 N          34.1670   90.0540   13.1510 N.am     10 SEL2        0.0000 
     49 N          33.6040   92.5490   14.3800 N.am      6 SEP2        0.0000 
     50 CA         32.6015   89.6285   10.0020 C.3       4 GLC5        0.0000 
     51 CA         33.4890   87.9470    9.0120 C.3      12 GLL5        0.0000 
     52 CA         31.6250   84.6975    7.6190 C.3       4 GLC5        0.0000 
     53 CA         33.2890   84.1950    6.8120 C.3      12 GLL5        0.0000 
     54 CA         29.9610   85.2000    8.4260 C.3       8 GLP5        0.0000 
     55 CA         31.4420   84.1925    5.7425 C.3       4 GLC5        0.0000 
     56 CA         29.5950   84.1900    4.6730 C.3       8 GLP5        0.0000 
     57 CA         31.6990   82.7120    7.4220 C.3       4 GLC5        0.0000 
     58 CA         33.2390   82.9120    6.0300 C.3      12 GLL5        0.0000 
     59 CA         30.1590   82.5120    8.8140 C.3       8 GLP5        0.0000 
     60 CA         31.3625   82.6855    5.5980 C.3       4 GLC5        0.0000 
     61 CA         29.4860   82.4590    5.1660 C.3       8 GLP5        0.0000 
     62 N          32.8485   82.8040    8.9280 N.am      2 SEC2        0.0000 
     63 N          33.5180   84.1590    8.1450 N.am     10 SEL2        0.0000 
     64 N          32.1790   81.4490    9.7110 N.am      6 SEP2        0.0000 
     65 O          34.2495   83.9840   10.9100 O.2       1 ALC1        0.0000 
     66 O          33.8670   85.0900   10.2190 O.2       9 ALL1        0.0000 
     67 O          34.6320   82.8780   11.6010 O.2       5 ALP1        0.0000 
     68 CA         29.6397   86.6905    9.4805 C.3       4 GLC5        0.0000 
     69 CA         30.0740   88.0930   10.5500 C.3      12 GLL5        0.0000 
     70 CA         29.1562   89.2050   12.4005 C.3       4 GLC5        0.0000 
     71 CA         29.9367   89.8775   10.3060 C.3       4 GLC5        0.0000 
     72 CA         30.5550   91.5740   10.0770 C.3       8 GLP5        0.0000 
     73 CA         31.7105   85.9165   12.5832 C.3       4 GLC5        0.0000 
     74 CA         31.7850   83.9900   13.4540 C.3       8 GLP5        0.0000 
     75 CA         31.6750   89.5765   11.3522 C.3       4 GLC5        0.0000 
     76 CA         30.4087   86.7122    8.6113 C.3       4 GLC5        0.0000 
     77 CA         31.0450   88.1370    9.5250 C.3      12 GLL5        0.0000 
     78 CA         30.7058   89.8992    9.4367 C.3       4 GLC5        0.0000 
     79 CA         32.7317   85.7670   13.1457 C.3       4 GLC5        0.0000 
     80 CA         32.5838   88.7035   13.8582 C.3       4 GLC5        0.0000 
     81 CA         31.4890   89.8630   14.8790 C.3       8 GLP5        0.0000 
     82 CA         31.7145   85.5640    8.3364 C.3       4 GLC5        0.0000 
     83 CA         33.4470   86.5700    8.2910 C.3      12 GLL5        0.0000 
@<TRIPOS>BOND
@<TRIPOS>SUBSTRUCTURE
     1 ALC1       65 GROUP        1 X    ALC  0     ROOT ALC X 1
     2 SEC2        1 GROUP        1 X    SEC  0     **** SEC X 2
     3 ZIC7        9 GROUP        1 X    ZIC  0     **** ZIC X 5
     4 GLC5       25 GROUP        1 X    GLC  0     **** GLC X 6
     5 ALP1       67 GROUP        1 Y    ALP  0     ROOT ALP Y 8
     6 SEP2        3 GROUP        1 Y    SEP  0     **** SEP Y 9
     7 ZIP7       11 GROUP        1 Y    ZIP  0     **** ZIP Y 12
     8 GLP5       27 GROUP        1 Y    GLP  0     **** GLP Y 13
     9 ALL1       66 GROUP        1 Z    ALL  0     ROOT ALL Z 15
    10 SEL2        2 GROUP        1 Z    SEL  0     **** SEL Z 16
    11 ZIL7       10 GROUP        1 Z    ZIL  0     **** ZIL Z 19
    12 GLL5       26 GROUP        1 Z    GLL  0     **** GLL Z 20
@<TRIPOS>SET

