#    Name: 2ez8_TDL_2_ligand
#    Modification time : Mon Apr  7 17:59:25 2014

@<TRIPOS>MOLECULE
2ez8_TDL_2_ligand
   51    52     1     0     0
SMALL
NO_CHARGES


@<TRIPOS>ATOM
      1 O1B        25.6650   88.8540   13.7870 O.co2     1 TDL1616     0.0000 
      2 PB         24.4440   88.1850   13.2350 P.3       1 TDL1616     0.0000 
      3 O2B        23.5600   87.5300   14.2580 O.co2     1 TDL1616     0.0000 
      4 O3B        23.6440   89.0240   12.2560 O.co2     1 TDL1616     0.0000 
      5 O3A        25.0830   86.8920   12.4540 O.3       1 TDL1616     0.0000 
      6 PA         25.1320   86.5810   10.8660 P.3       1 TDL1616     0.0000 
      7 O1A        23.9060   87.1000   10.1530 O.co2     1 TDL1616     0.0000 
      8 O2A        25.5010   85.1490   10.6690 O.co2     1 TDL1616     0.0000 
      9 O7         26.3880   87.4330   10.3850 O.3       1 TDL1616     0.0000 
     10 C7         27.6820   87.1050   10.8850 C.3       1 TDL1616     0.0000 
     11 C6         28.5630   88.2690   10.5200 C.3       1 TDL1616     0.0000 
     12 C5         30.0740   88.0930   10.5500 C.2       1 TDL1616     0.0000 
     13 S1         30.8420   87.8560   12.0940 S.3       1 TDL1616     0.0000 
     14 C4         31.0450   88.1370    9.5250 C.2       1 TDL1616     0.0000 
     15 CM4        30.6680   88.3120    8.0680 C.3       1 TDL1616     0.0000 
     16 N3         32.3510   87.9930    9.9640 N.pl3     1 TDL1616     0.0000 
     17 C2         32.4300   87.8300   11.3310 C.2       1 TDL1616     0.0000 
     18 CLA        33.7620   87.7920   12.1140 C.3       1 TDL1616     0.0000 
     19 OL1        34.8570   87.0590   11.5290 O.3       1 TDL1616     0.0000 
     20 CLB        33.5950   87.2960   13.5610 C.3       1 TDL1616     0.0000 
     21 CLC        34.2400   89.2970   12.1210 C.2       1 TDL1616     0.0000 
     22 OL2        34.1670   90.0540   13.1510 O.co2     1 TDL1616     0.0000 
     23 OL3        34.7190   89.8500   11.0670 O.co2     1 TDL1616     0.0000 
     24 C7'        33.4890   87.9470    9.0120 C.3       1 TDL1616     0.0000 
     25 C5'        33.4470   86.5700    8.2910 C.ar      1 TDL1616     0.0000 
     26 C6'        33.2070   86.5480    6.9020 C.ar      1 TDL1616     0.0000 
     27 N1'        33.1300   85.3840    6.1910 N.ar      1 TDL1616     0.0000 
     28 C2'        33.2890   84.1950    6.8120 C.ar      1 TDL1616     0.0000 
     29 CM2        33.2390   82.9120    6.0300 C.3       1 TDL1616     0.0000 
     30 N3'        33.5180   84.1590    8.1450 N.ar      1 TDL1616     0.0000 
     31 C4'        33.6090   85.2970    8.8970 C.ar      1 TDL1616     0.0000 
     32 N4'        33.8670   85.0900   10.2190 N.pl3     1 TDL1616     0.0000 
     33 H          28.0793   86.2115   10.4219 H         1 TDL1616     0.0000 
     34 H          27.6829   86.9943   11.9613 H         1 TDL1616     0.0000 
     35 H          28.3006   89.1425   11.1859 H         1 TDL1616     0.0000 
     36 H          28.2746   88.6303    9.4897 H         1 TDL1616     0.0000 
     37 H          34.4308   88.0267    9.5304 H         1 TDL1616     0.0000 
     38 H          33.4010   88.7202    8.2660 H         1 TDL1616     0.0000 
     39 H          33.0860   87.4659    6.4149 H         1 TDL1616     0.0000 
     40 H          33.9503   85.9103   10.7847 H         1 TDL1616     0.0000 
     41 H          33.9503   84.1360   10.5070 H         1 TDL1616     0.0000 
     42 H          31.4727   88.3186    7.4744 H         1 TDL1616     0.0000 
     43 H          30.0732   87.5749    7.7472 H         1 TDL1616     0.0000 
     44 H          30.1809   89.1711    7.9110 H         1 TDL1616     0.0000 
     45 H          34.4674   87.2745   14.0493 H         1 TDL1616     0.0000 
     46 H          32.9795   87.8836   14.0863 H         1 TDL1616     0.0000 
     47 H          33.2171   86.3708   13.5952 H         1 TDL1616     0.0000 
     48 H          33.9477   82.8787    5.3253 H         1 TDL1616     0.0000 
     49 H          33.3719   82.1136    6.6173 H         1 TDL1616     0.0000 
     50 H          32.3603   82.7928    5.5678 H         1 TDL1616     0.0000 
     51 H          35.2106   87.6543   10.8075 H         1 TDL1616     0.0000 
@<TRIPOS>BOND
     1    2    1 ar   
     2    3    2 ar   
     3    4    2 ar   
     4    5    2 1    
     5    6    5 1    
     6    7    6 ar   
     7    8    6 ar   
     8    9    6 1    
     9   10    9 1    
    10   11   10 1    
    11   33   10 1    
    12   34   10 1    
    13   12   11 1    
    14   35   11 1    
    15   36   11 1    
    16   13   12 1    
    17   14   12 2    
    18   17   13 1    
    19   15   14 1    
    20   16   14 1    
    21   42   15 1    
    22   43   15 1    
    23   44   15 1    
    24   17   16 2    
    25   24   16 1    
    26   18   17 1    
    27   19   18 1    
    28   20   18 1    
    29   21   18 1    
    30   51   19 1    
    31   45   20 1    
    32   46   20 1    
    33   47   20 1    
    34   22   21 ar   
    35   23   21 ar   
    36   25   24 1    
    37   37   24 1    
    38   38   24 1    
    39   26   25 ar   
    40   31   25 ar   
    41   27   26 ar   
    42   39   26 1    
    43   28   27 ar   
    44   29   28 1    
    45   30   28 ar   
    46   48   29 1    
    47   49   29 1    
    48   50   29 1    
    49   31   30 ar   
    50   32   31 1    
    51   40   32 1    
    52   41   32 1    
@<TRIPOS>SUBSTRUCTURE
     1 TDL1616     1 GROUP   
@<TRIPOS>SET

