#    Name: 1ouk_084_1_INTS_M
#    Modification time : Mon Mar 24 20:36:46 2014

@<TRIPOS>MOLECULE
1ouk_084_1_INTS_M
   93     0     9     0     0
SMALL
NO_CHARGES


@<TRIPOS>ATOM
      1 CA         48.4765   37.1240   27.0940 C.3       3 GLC5        0.0000 
      2 CA         48.8660   37.8810   28.9940 C.3       9 GLL5        0.0000 
      3 CA         48.0870   36.3670   25.1940 C.3       6 GLP5        0.0000 
      4 CA         47.4355   36.6110   27.6830 C.3       3 GLC5        0.0000 
      5 CA         48.2050   36.9510   29.6760 C.3       9 GLL5        0.0000 
      6 CA         46.6660   36.2710   25.6900 C.3       6 GLP5        0.0000 
      7 CA         44.3340   37.2680   30.4235 C.3       3 GLC5        0.0000 
      8 CA         46.0840   37.0210   31.2700 C.3       9 GLL5        0.0000 
      9 CA         42.5840   37.5150   29.5770 C.3       6 GLP5        0.0000 
     10 CA         45.6850   38.5180   30.3200 C.3       3 GLC5        0.0000 
     11 CA         45.2860   40.0150   29.3700 C.3       6 GLP5        0.0000 
     12 CA         46.6365   38.0100   33.0450 C.3       3 GLC5        0.0000 
     13 CA         47.1890   38.9990   34.8200 C.3       6 GLP5        0.0000 
     14 N          45.6970   39.0370   32.5370 N.am      1 SEC2        0.0000 
     15 N          45.3000   37.7980   32.0790 N.am      7 SEL2        0.0000 
     16 N          46.0940   40.2760   32.9950 N.am      4 SEP2        0.0000 
     17 CA         44.2855   39.1945   32.3170 C.3       3 GLC5        0.0000 
     18 CA         44.3600   37.1260   32.8390 C.3       9 GLL5        0.0000 
     19 CA         44.2110   41.2630   31.7950 C.3       6 GLP5        0.0000 
     20 OD1        46.0870   26.6145   34.0525 O.co2     2 ASC3        0.0000 
     21 OD1        46.8650   27.1120   32.6760 O.co2     8 ASL3        0.0000 
     22 OD1        45.3090   26.1170   35.4290 O.co2     5 ASP3        0.0000 
     23 OD1        45.5710   27.5835   33.9275 O.co2     2 ASC3        0.0000 
     24 OD1        44.2770   28.0550   35.1790 O.co2     5 ASP3        0.0000 
     25 CA         45.8000   26.9675   29.7410 C.3       3 GLC5        0.0000 
     26 CA         46.4210   27.5160   31.2870 C.3       9 GLL5        0.0000 
     27 CA         45.1790   26.4190   28.1950 C.3       6 GLP5        0.0000 
     28 CA         45.1710   28.2560   29.5535 C.3       3 GLC5        0.0000 
     29 CA         45.5850   28.8310   31.2940 C.3       9 GLL5        0.0000 
     30 CA         44.7570   27.6810   27.8130 C.3       6 GLP5        0.0000 
     31 CA         46.2990   33.0525   34.0280 C.3       3 GLC5        0.0000 
     32 CA         47.4420   33.0020   32.2860 C.3       9 GLL5        0.0000 
     33 CA         45.1560   33.1030   35.7700 C.3       6 GLP5        0.0000 
     34 CA         37.5625   33.2960   30.6130 C.3       3 GLC5        0.0000 
     35 CA         39.6450   33.9100   30.9370 C.3       9 GLL5        0.0000 
     36 CA         35.4800   32.6820   30.2890 C.3       6 GLP5        0.0000 
     37 CA         42.2175   34.4290   28.6135 C.3       3 GLC5        0.0000 
     38 CA         40.6700   34.3740   30.0620 C.3       9 GLL5        0.0000 
     39 CA         43.7650   34.4840   27.1650 C.3       6 GLP5        0.0000 
     40 CA         39.9335   35.2975   28.3745 C.3       3 GLC5        0.0000 
     41 CA         39.1970   36.2210   26.6870 C.3       6 GLP5        0.0000 
     42 CA         37.0075   30.7380   31.5825 C.3       3 GLC5        0.0000 
     43 CA         38.5890   31.2760   32.6640 C.3       9 GLL5        0.0000 
     44 CA         35.4260   30.2000   30.5010 C.3       6 GLP5        0.0000 
     45 CA         35.8920   33.9835   33.3080 C.3       3 GLC5        0.0000 
     46 CA         37.8140   33.2570   32.8650 C.3       9 GLL5        0.0000 
     47 CA         33.9700   34.7100   33.7510 C.3       6 GLP5        0.0000 
     48 CA         38.5670   35.2865   33.2585 C.3       3 GLC5        0.0000 
     49 CA         39.3200   37.3160   33.6520 C.3       6 GLP5        0.0000 
     50 CA         38.0150   31.9475   35.4600 C.3       3 GLC5        0.0000 
     51 CA         39.2280   32.5310   34.2780 C.3       9 GLL5        0.0000 
     52 CA         36.8020   31.3640   36.6420 C.3       6 GLP5        0.0000 
     53 CA         39.8105   33.5645   35.6155 C.3       3 GLC5        0.0000 
     54 CA         40.3930   34.5980   36.9530 C.3       6 GLP5        0.0000 
     55 CA         48.2705   37.7190   33.4235 C.3       3 GLC5        0.0000 
     56 CA         49.3520   36.4390   32.0270 C.3       9 GLL5        0.0000 
     57 CA         51.5990   33.9150   34.2905 C.3       3 GLC5        0.0000 
     58 CA         50.8300   34.4780   32.3660 C.3       9 GLL5        0.0000 
     59 CA         52.3680   33.3520   36.2150 C.3       6 GLP5        0.0000 
     60 CA         46.9108   38.7155   29.3525 C.3       3 GLC5        0.0000 
     61 CA         42.3687   36.6040   32.8305 C.3       3 GLC5        0.0000 
     62 CA         40.4710   36.7860   32.8270 C.3       6 GLP5        0.0000 
     63 CA         45.0808   37.6020   34.2160 C.3       3 GLC5        0.0000 
     64 CA         44.1730   35.7180   32.8290 C.3       9 GLL5        0.0000 
     65 CA         45.8950   38.7820   35.5980 C.3       6 GLP5        0.0000 
     66 CA         44.8780   34.2250   34.0825 C.3       3 GLC5        0.0000 
     67 CA         43.6154   36.6070   30.9872 C.3       3 GLC5        0.0000 
     68 CA         45.0270   34.9760   31.9610 C.3       9 GLL5        0.0000 
     69 CA         44.7555   33.0760   33.7580 C.3       3 GLC5        0.0000 
     70 CA         44.9460   33.4660   31.8690 C.3       9 GLL5        0.0000 
     71 CA         41.2272   31.2610   30.5105 C.3       3 GLC5        0.0000 
     72 CA         42.3560   33.0670   31.3880 C.3       9 GLL5        0.0000 
     73 CA         40.6110   29.6850   29.2000 C.3       6 GLP5        0.0000 
     74 CA         41.1572   34.8115   32.3240 C.3       3 GLC5        0.0000 
     75 CA         41.3310   32.6070   32.2540 C.3       9 GLL5        0.0000 
     76 CA         39.6397   32.5682   29.8170 C.3       3 GLC5        0.0000 
     77 CA         39.9600   33.0110   32.0590 C.3       9 GLL5        0.0000 
     78 CA         39.4770   31.6760   28.1360 C.3       6 GLP5        0.0000 
     79 CA         40.1367   35.1232   32.1625 C.3       3 GLC5        0.0000 
     80 CA         41.9605   35.8403   29.8758 C.3       3 GLC5        0.0000 
     81 CA         40.4070   32.9207   29.1553 C.3       3 GLC5        0.0000 
     82 CA         42.0040   33.9570   30.2870 C.3       9 GLL5        0.0000 
     83 CA         40.9040   35.4757   31.5007 C.3       3 GLC5        0.0000 
     84 CA         43.0110   32.7351   29.2766 C.3       3 GLC5        0.0000 
     85 CA         43.4900   32.0670   27.6570 C.3       6 GLP5        0.0000 
     86 CA         39.2048   30.4685   31.5445 C.3       3 GLC5        0.0000 
     87 CA         38.8660   32.5000   33.0080 C.3       9 GLL5        0.0000 
     88 CA         39.6820   29.0490   30.2530 C.3       6 GLP5        0.0000 
     89 CA         36.9100   32.7802   31.6128 C.3       3 GLC5        0.0000 
     90 CA         36.9884   31.6527   33.6813 C.3       3 GLC5        0.0000 
     91 CA         35.7060   30.7330   34.5120 C.3       6 GLP5        0.0000 
     92 CA         51.5460   36.4830   33.3665 C.3       3 GLC5        0.0000 
     93 CA         52.7920   37.7050   34.3220 C.3       6 GLP5        0.0000 
@<TRIPOS>BOND
@<TRIPOS>SUBSTRUCTURE
     1 SEC2       14 GROUP        1 X    SEC  0     ROOT SEC X 2
     2 ASC3       20 GROUP        1 X    ASC  0     **** ASC X 3
     3 GLC5        1 GROUP        1 X    GLC  0     **** GLC X 6
     4 SEP2       16 GROUP        1 Y    SEP  0     ROOT SEP Y 9
     5 ASP3       22 GROUP        1 Y    ASP  0     **** ASP Y 10
     6 GLP5        3 GROUP        1 Y    GLP  0     **** GLP Y 13
     7 SEL2       15 GROUP        1 Z    SEL  0     ROOT SEL Z 16
     8 ASL3       21 GROUP        1 Z    ASL  0     **** ASL Z 17
     9 GLL5        2 GROUP        1 Z    GLL  0     **** GLL Z 20
@<TRIPOS>SET

