#    Name: 1ouk_084_1_ligand
#    Modification time : Mon Mar 24 20:36:46 2014

@<TRIPOS>MOLECULE
1ouk_084_1_ligand
   65    69     1     0     0
SMALL
NO_CHARGES


@<TRIPOS>ATOM
      1 C50        48.8660   37.8810   28.9940 C.3       1 084501      0.0000 
      2 C49        48.2050   36.9510   29.6760 C.3       1 084501      0.0000 
      3 N48        47.0720   37.5940   30.4500 N.pl3     1 084501      0.0000 
      4 C40        46.0840   37.0210   31.2700 C.ar      1 084501      0.0000 
      5 N39        45.3000   37.7980   32.0790 N.ar      1 084501      0.0000 
      6 C38        44.3600   37.1260   32.8390 C.ar      1 084501      0.0000 
      7 C37        44.1730   35.7180   32.8290 C.ar      1 084501      0.0000 
      8 C12        45.0270   34.9760   31.9610 C.ar      1 084501      0.0000 
      9 N41        45.9620   35.6630   31.2030 N.ar      1 084501      0.0000 
     10 C1         44.9460   33.4660   31.8690 C.2       1 084501      0.0000 
     11 C5         43.7640   32.6320   31.6230 C.2       1 084501      0.0000 
     12 N4         44.1470   31.3300   31.6380 N.2       1 084501      0.0000 
     13 C3         45.4830   31.3670   31.8750 C.2       1 084501      0.0000 
     14 C10        46.3470   30.0170   31.9900 C.3       1 084501      0.0000 
     15 C13        46.7950   29.5360   33.4310 C.3       1 084501      0.0000 
     16 C14        47.5950   28.1990   33.4220 C.3       1 084501      0.0000 
     17 N15        46.8650   27.1120   32.6760 N.4       1 084501      0.0000 
     18 C16        46.4210   27.5160   31.2870 C.3       1 084501      0.0000 
     19 C17        45.5850   28.8310   31.2940 C.3       1 084501      0.0000 
     20 N2         46.0340   32.6160   32.0190 N.pl3     1 084501      0.0000 
     21 C6         47.4420   33.0020   32.2860 C.3       1 084501      0.0000 
     22 C11        42.3560   33.0670   31.3880 C.ar      1 084501      0.0000 
     23 C28        41.3310   32.6070   32.2540 C.ar      1 084501      0.0000 
     24 C29        39.9600   33.0110   32.0590 C.ar      1 084501      0.0000 
     25 C30        39.6450   33.9100   30.9370 C.ar      1 084501      0.0000 
     26 C31        40.6700   34.3740   30.0620 C.ar      1 084501      0.0000 
     27 C32        42.0040   33.9570   30.2870 C.ar      1 084501      0.0000 
     28 C44        38.8660   32.5000   33.0080 C.3       1 084501      0.0000 
     29 F45        38.5890   31.2760   32.6640 F         1 084501      0.0000 
     30 F46        37.8140   33.2570   32.8650 F         1 084501      0.0000 
     31 F47        39.2280   32.5310   34.2780 F         1 084501      0.0000 
     32 C54        49.1270   36.0780   30.6230 C.ar      1 084501      0.0000 
     33 C60        49.3520   36.4390   32.0270 C.ar      1 084501      0.0000 
     34 C59        50.1880   35.6490   32.8850 C.ar      1 084501      0.0000 
     35 C58        50.8300   34.4780   32.3660 C.ar      1 084501      0.0000 
     36 C57        50.6370   34.0920   30.9960 C.ar      1 084501      0.0000 
     37 C56        49.7940   34.8830   30.1340 C.ar      1 084501      0.0000 
     38 H          47.7170   36.2056   28.9954 H         1 084501      0.0000 
     39 H          47.0510   38.6725   30.3279 H         1 084501      0.0000 
     40 H          43.7295   37.6860   33.4766 H         1 084501      0.0000 
     41 H          43.4894   35.2744   33.3917 H         1 084501      0.0000 
     42 H          47.2652   30.1656   31.3928 H         1 084501      0.0000 
     43 H          45.8989   29.4131   34.0422 H         1 084501      0.0000 
     44 H          47.4122   30.3197   33.8743 H         1 084501      0.0000 
     45 H          47.7623   27.8966   34.4584 H         1 084501      0.0000 
     46 H          48.5656   28.3874   32.9572 H         1 084501      0.0000 
     47 H          45.8082   26.7250   30.8465 H         1 084501      0.0000 
     48 H          47.2935   27.6704   30.6466 H         1 084501      0.0000 
     49 H          45.3628   29.1167   30.2693 H         1 084501      0.0000 
     50 H          44.6540   28.6578   31.8272 H         1 084501      0.0000 
     51 H          41.5561   31.9810   33.0291 H         1 084501      0.0000 
     52 H          38.6789   34.1918   30.8014 H         1 084501      0.0000 
     53 H          40.4435   34.9911   29.2940 H         1 084501      0.0000 
     54 H          42.7569   34.2795   29.6690 H         1 084501      0.0000 
     55 H          48.8957   37.2769   32.3905 H         1 084501      0.0000 
     56 H          50.3226   35.9181   33.8504 H         1 084501      0.0000 
     57 H          51.4250   33.9168   32.9687 H         1 084501      0.0000 
     58 H          51.0924   33.2637   30.6326 H         1 084501      0.0000 
     59 H          49.6606   34.6032   29.1642 H         1 084501      0.0000 
     60 H          49.2578   38.5757   29.5972 H         1 084501      0.0000 
     61 H          49.6213   37.4895   28.4684 H         1 084501      0.0000 
     62 H          48.2730   38.3572   28.3448 H         1 084501      0.0000 
     63 H          48.0398   32.2032   32.3529 H         1 084501      0.0000 
     64 H          47.8111   33.5845   31.5618 H         1 084501      0.0000 
     65 H          47.5321   33.5081   33.1437 H         1 084501      0.0000 
@<TRIPOS>BOND
     1    2    1 1    
     2   60    1 1    
     3   61    1 1    
     4   62    1 1    
     5    3    2 1    
     6   32    2 1    
     7   38    2 1    
     8    4    3 1    
     9   39    3 1    
    10    5    4 ar   
    11    9    4 ar   
    12    6    5 ar   
    13    7    6 ar   
    14   40    6 1    
    15    8    7 ar   
    16   41    7 1    
    17    9    8 ar   
    18   10    8 1    
    19   11   10 2    
    20   20   10 1    
    21   12   11 1    
    22   22   11 1    
    23   13   12 2    
    24   14   13 1    
    25   20   13 1    
    26   15   14 1    
    27   19   14 1    
    28   42   14 1    
    29   16   15 1    
    30   43   15 1    
    31   44   15 1    
    32   17   16 1    
    33   45   16 1    
    34   46   16 1    
    35   18   17 1    
    36   19   18 1    
    37   47   18 1    
    38   48   18 1    
    39   49   19 1    
    40   50   19 1    
    41   21   20 1    
    42   63   21 1    
    43   64   21 1    
    44   65   21 1    
    45   23   22 ar   
    46   27   22 ar   
    47   24   23 ar   
    48   51   23 1    
    49   25   24 ar   
    50   28   24 1    
    51   26   25 ar   
    52   52   25 1    
    53   27   26 ar   
    54   53   26 1    
    55   54   27 1    
    56   29   28 1    
    57   30   28 1    
    58   31   28 1    
    59   33   32 ar   
    60   37   32 ar   
    61   34   33 ar   
    62   55   33 1    
    63   35   34 ar   
    64   56   34 1    
    65   36   35 ar   
    66   57   35 1    
    67   37   36 ar   
    68   58   36 1    
    69   59   37 1    
@<TRIPOS>SUBSTRUCTURE
     1 084501      1 GROUP   
@<TRIPOS>SET

