#    Name: 3ahd_HTL_1_INTS_M
#    Modification time : Tue Mar 25 11:56:09 2014

@<TRIPOS>MOLECULE
3ahd_HTL_1_INTS_M
   69     0    15     0     0
SMALL
NO_CHARGES


@<TRIPOS>ATOM
      1 CA         59.4295   50.2450    8.4795 C.3       5 GLC5        0.0000 
      2 CA         59.0160   48.4950    7.2870 C.3      15 GLL5        0.0000 
      3 CA         59.8430   51.9950    9.6720 C.3      10 GLP5        0.0000 
      4 CA         56.3745   49.4840    7.2795 C.3       5 GLC5        0.0000 
      5 CA         58.1420   49.4420    6.5510 C.3      15 GLL5        0.0000 
      6 CA         54.6070   49.5260    8.0080 C.3      10 GLP5        0.0000 
      7 CA         58.2270   50.8580    8.1790 C.3       5 GLC5        0.0000 
      8 CA         58.3120   52.2740    9.8070 C.3      10 GLP5        0.0000 
      9 N          58.2950   49.7515    9.2365 N.am      2 SEC2        0.0000 
     10 N          59.0070   48.5170    8.6200 N.am     12 SEL2        0.0000 
     11 N          57.5830   50.9860    9.8530 N.am      7 SEP2        0.0000 
     12 CA         60.0615   49.4155   10.0785 C.3       5 GLC5        0.0000 
     13 CA         59.7410   47.6530    9.3350 C.3      15 GLL5        0.0000 
     14 CA         60.3820   51.1780   10.8220 C.3      10 GLP5        0.0000 
     15 O          58.5530   48.0320   11.4125 O.2       1 ALC1        0.0000 
     16 O          59.6510   47.6480   10.6840 O.2      11 ALL1        0.0000 
     17 O          57.4550   48.4160   12.1410 O.2       6 ALP1        0.0000 
     18 CA         63.5735   44.9605    9.7725 C.3       5 GLC5        0.0000 
     19 CA         61.6010   45.6770    9.3160 C.3      15 GLL5        0.0000 
     20 CA         65.5460   44.2440   10.2290 C.3      10 GLP5        0.0000 
     21 CA         63.9445   45.3560   10.9120 C.3       5 GLC5        0.0000 
     22 CA         62.3430   46.4680   11.5950 C.3      15 GLL5        0.0000 
     23 CA         63.1465   48.1730   14.4250 C.3       5 GLC5        0.0000 
     24 CA         63.5610   47.5730   12.3340 C.3      15 GLL5        0.0000 
     25 CA         62.7320   48.7730   16.5160 C.3      10 GLP5        0.0000 
     26 CA         66.1425   46.9535   10.7485 C.3       5 GLC5        0.0000 
     27 CA         65.5680   48.6330   10.8180 C.3      15 GLL5        0.0000 
     28 CA         66.7170   45.2740   10.6790 C.3      10 GLP5        0.0000 
     29 Zn         68.6215   53.0545   12.1210 Zn        4 ZIC7        0.0000 
     30 Zn         67.8440   52.8260   11.5430 Zn       14 ZIL7        0.0000 
     31 Zn         69.3990   53.2830   12.6990 Zn        9 ZIP7        0.0000 
     32 N          67.6135   53.5595   10.4060 N.am      2 SEC2        0.0000 
     33 N          67.8440   52.8260   11.5430 N.am     12 SEL2        0.0000 
     34 N          67.3830   54.2930    9.2690 N.am      7 SEP2        0.0000 
     35 N          64.9960   53.4855   10.1795 N.am      2 SEC2        0.0000 
     36 N          65.3360   52.9080   11.4720 N.am     12 SEL2        0.0000 
     37 N          64.6560   54.0630    8.8870 N.am      7 SEP2        0.0000 
     38 NZ         69.3575   50.5755   14.0695 N.4       3 LYC4        0.0000 
     39 NZ         68.8720   51.8010   14.0250 N.4      13 LYL4        0.0000 
     40 NZ         69.8430   49.3500   14.1140 N.4       8 LYP4        0.0000 
     41 Zn         69.1355   52.5420   13.3620 Zn        4 ZIC7        0.0000 
     42 Zn         68.8720   51.8010   14.0250 Zn       14 ZIL7        0.0000 
     43 N          69.6050   52.6900   15.0195 N.am      2 SEC2        0.0000 
     44 N          68.8720   51.8010   14.0250 N.am     12 SEL2        0.0000 
     45 N          70.3380   53.5790   16.0140 N.am      7 SEP2        0.0000 
     46 N          69.3575   50.5755   14.0695 N.am      2 SEC2        0.0000 
     47 N          69.8430   49.3500   14.1140 N.am      7 SEP2        0.0000 
     48 N          66.8040   53.2045   16.7680 N.am      2 SEC2        0.0000 
     49 N          67.2230   53.0450   15.4800 N.am     12 SEL2        0.0000 
     50 N          66.3850   53.3640   18.0560 N.am      7 SEP2        0.0000 
     51 N          68.7805   53.3120   15.7470 N.am      2 SEC2        0.0000 
     52 NZ         68.4875   49.9370   14.6950 N.4       3 LYC4        0.0000 
     53 NZ         67.1320   50.5240   15.2760 N.4      13 LYL4        0.0000 
     54 N          65.8010   50.1580   15.4535 N.am      2 SEC2        0.0000 
     55 N          67.1320   50.5240   15.2760 N.am     12 SEL2        0.0000 
     56 N          64.4700   49.7920   15.6310 N.am      7 SEP2        0.0000 
     57 CA         61.5755   46.9795   15.6520 C.3       5 GLC5        0.0000 
     58 CA         61.3880   46.0210   14.0080 C.3      15 GLL5        0.0000 
     59 CA         61.7630   47.9380   17.2960 C.3      10 GLP5        0.0000 
     60 CA         65.3257   46.4745   11.1255 C.3       5 GLC5        0.0000 
     61 CA         64.7050   45.6655    9.6557 C.3       5 GLC5        0.0000 
     62 CA         63.6230   47.1230    9.8150 C.3      15 GLL5        0.0000 
     63 CA         63.5745   50.0452   10.7957 C.3       5 GLC5        0.0000 
     64 CA         61.7720   50.7460   10.5650 C.3      10 GLP5        0.0000 
     65 CA         67.0535   49.5457   10.0252 C.3       5 GLC5        0.0000 
     66 CA         65.1860   50.0560   11.2350 C.3      15 GLL5        0.0000 
     67 CA         68.7300   49.7470    9.0240 C.3      10 GLP5        0.0000 
     68 CA         62.6154   48.9906   10.8517 C.3       5 GLC5        0.0000 
     69 CA         64.3080   47.7770   10.8100 C.3      15 GLL5        0.0000 
@<TRIPOS>BOND
@<TRIPOS>SUBSTRUCTURE
     1 ALC1       15 GROUP        1 X    ALC  0     ROOT ALC X 1
     2 SEC2        9 GROUP        1 X    SEC  0     **** SEC X 2
     3 LYC4       38 GROUP        1 X    LYC  0     **** LYC X 4
     4 ZIC7       29 GROUP        1 X    ZIC  0     **** ZIC X 5
     5 GLC5        1 GROUP        1 X    GLC  0     **** GLC X 6
     6 ALP1       17 GROUP        1 Y    ALP  0     ROOT ALP Y 8
     7 SEP2       11 GROUP        1 Y    SEP  0     **** SEP Y 9
     8 LYP4       40 GROUP        1 Y    LYP  0     **** LYP Y 11
     9 ZIP7       31 GROUP        1 Y    ZIP  0     **** ZIP Y 12
    10 GLP5        3 GROUP        1 Y    GLP  0     **** GLP Y 13
    11 ALL1       16 GROUP        1 Z    ALL  0     ROOT ALL Z 15
    12 SEL2       10 GROUP        1 Z    SEL  0     **** SEL Z 16
    13 LYL4       39 GROUP        1 Z    LYL  0     **** LYL Z 18
    14 ZIL7       30 GROUP        1 Z    ZIL  0     **** ZIL Z 19
    15 GLL5        2 GROUP        1 Z    GLL  0     **** GLL Z 20
@<TRIPOS>SET

