#    Name: 3ahd_HTL_1_ligand
#    Modification time : Tue Mar 25 11:56:09 2014

@<TRIPOS>MOLECULE
3ahd_HTL_1_ligand
   47    48     1     0     0
SMALL
NO_CHARGES


@<TRIPOS>ATOM
      1 N1'        59.8550   47.6500    6.6420 N.ar      1 HTL827      0.0000 
      2 C2'        59.0160   48.4950    7.2870 C.ar      1 HTL827      0.0000 
      3 C2A        58.1420   49.4420    6.5510 C.3       1 HTL827      0.0000 
      4 N3'        59.0070   48.5170    8.6200 N.ar      1 HTL827      0.0000 
      5 C4'        59.7410   47.6530    9.3350 C.ar      1 HTL827      0.0000 
      6 N4'        59.6510   47.6480   10.6840 N.pl3     1 HTL827      0.0000 
      7 C5'        60.6330   46.7450    8.6780 C.ar      1 HTL827      0.0000 
      8 C6'        60.6270   46.7980    7.3120 C.ar      1 HTL827      0.0000 
      9 C35        61.6010   45.6770    9.3160 C.3       1 HTL827      0.0000 
     10 N3         62.5300   46.4100   10.2440 N.pl3     1 HTL827      0.0000 
     11 C2         62.3430   46.4680   11.5950 C.2       1 HTL827      0.0000 
     12 S1         63.5610   47.5730   12.3340 S.3       1 HTL827      0.0000 
     13 C5         64.3080   47.7770   10.8100 C.2       1 HTL827      0.0000 
     14 C4         63.6230   47.1230    9.8150 C.2       1 HTL827      0.0000 
     15 C4A        64.1050   47.0510    8.3500 C.3       1 HTL827      0.0000 
     16 C5A        65.5680   48.6330   10.8180 C.3       1 HTL827      0.0000 
     17 C5B        65.1860   50.0560   11.2350 C.3       1 HTL827      0.0000 
     18 O5G        66.5230   50.7790   11.3220 O.3       1 HTL827      0.0000 
     19 P1         66.4900   52.2340   11.9030 P.3       1 HTL827      0.0000 
     20 O11        66.3240   52.0520   13.4410 O.3       1 HTL827      0.0000 
     21 O12        67.8440   52.8260   11.5430 O.co2     1 HTL827      0.0000 
     22 O13        65.3360   52.9080   11.4720 O.co2     1 HTL827      0.0000 
     23 P2         67.4630   51.8710   14.5970 P.3       1 HTL827      0.0000 
     24 O21        68.8720   51.8010   14.0250 O.co2     1 HTL827      0.0000 
     25 O22        67.2230   53.0450   15.4800 O.co2     1 HTL827      0.0000 
     26 O23        67.1320   50.5240   15.2760 O.co2     1 HTL827      0.0000 
     27 C1'        61.3650   45.7030   12.4850 C.2       1 HTL827      0.0000 
     28 O2'        60.5280   44.9100   11.9950 O.2       1 HTL827      0.0000 
     29 C3'        61.3880   46.0210   14.0080 C.3       1 HTL827      0.0000 
     30 H          60.4785   47.3832   11.1792 H         1 HTL827      0.0000 
     31 H          58.7650   47.9096   11.0668 H         1 HTL827      0.0000 
     32 H          61.2602   46.1358    6.7865 H         1 HTL827      0.0000 
     33 H          62.1460   45.2073    8.5211 H         1 HTL827      0.0000 
     34 H          61.0033   44.9679    9.8541 H         1 HTL827      0.0000 
     35 H          65.9984   48.6542    9.8287 H         1 HTL827      0.0000 
     36 H          66.2753   48.2309   11.5269 H         1 HTL827      0.0000 
     37 H          64.7219   50.0357   12.1882 H         1 HTL827      0.0000 
     38 H          64.5828   50.4980   10.4832 H         1 HTL827      0.0000 
     39 H          58.6723   50.0763    5.9885 H         1 HTL827      0.0000 
     40 H          57.5103   48.9657    5.9394 H         1 HTL827      0.0000 
     41 H          57.5872   49.9950    7.1726 H         1 HTL827      0.0000 
     42 H          64.9119   47.6213    8.1960 H         1 HTL827      0.0000 
     43 H          64.3503   46.1184    8.0851 H         1 HTL827      0.0000 
     44 H          63.4006   47.3613    7.7116 H         1 HTL827      0.0000 
     45 H          62.2829   45.8336   14.4131 H         1 HTL827      0.0000 
     46 H          61.1793   46.9819   14.1900 H         1 HTL827      0.0000 
     47 H          60.7183   45.4752   14.5115 H         1 HTL827      0.0000 
@<TRIPOS>BOND
     1    2    1 ar   
     2    8    1 ar   
     3    3    2 1    
     4    4    2 ar   
     5   39    3 1    
     6   40    3 1    
     7   41    3 1    
     8    5    4 ar   
     9    6    5 1    
    10    7    5 ar   
    11   30    6 1    
    12   31    6 1    
    13    8    7 ar   
    14    9    7 1    
    15   32    8 1    
    16   10    9 1    
    17   33    9 1    
    18   34    9 1    
    19   11   10 2    
    20   14   10 1    
    21   12   11 1    
    22   27   11 1    
    23   13   12 1    
    24   14   13 2    
    25   16   13 1    
    26   15   14 1    
    27   42   15 1    
    28   43   15 1    
    29   44   15 1    
    30   17   16 1    
    31   35   16 1    
    32   36   16 1    
    33   18   17 1    
    34   37   17 1    
    35   38   17 1    
    36   19   18 1    
    37   20   19 1    
    38   21   19 ar   
    39   22   19 ar   
    40   23   20 1    
    41   24   23 ar   
    42   25   23 ar   
    43   26   23 ar   
    44   28   27 2    
    45   29   27 1    
    46   45   29 1    
    47   46   29 1    
    48   47   29 1    
@<TRIPOS>SUBSTRUCTURE
     1 HTL827      1 GROUP   
@<TRIPOS>SET

