#    Name: 3n0n_P9B_1_INTS_M
#    Modification time : Tue Mar 25 00:29:20 2014

@<TRIPOS>MOLECULE
3n0n_P9B_1_INTS_M
   50     0    12     0     0
SMALL
NO_CHARGES


@<TRIPOS>ATOM
      1 O          -4.4700   -1.2075   16.7990 O.2       1 ALC1        0.0000 
      2 O          -5.3990   -0.3890   16.0460 O.2       9 ALL1        0.0000 
      3 O          -3.5410   -2.0260   17.5520 O.2       5 ALP1        0.0000 
      4 Zn         -6.0645   -0.9685   15.6500 Zn        3 ZIC7        0.0000 
      5 Zn         -5.3990   -0.3890   16.0460 Zn       11 ZIL7        0.0000 
      6 Zn         -6.7300   -1.5480   15.2540 Zn        7 ZIP7        0.0000 
      7 N          -3.9960    0.6795   18.5420 N.am      2 SEC2        0.0000 
      8 N          -5.3500    1.0290   18.0300 N.am     10 SEL2        0.0000 
      9 N          -2.6420    0.3300   19.0540 N.am      6 SEP2        0.0000 
     10 CA         -2.9690    2.9005   17.1410 C.3       4 GLC5        0.0000 
     11 CA         -3.7120    2.2500   15.4550 C.3      12 GLL5        0.0000 
     12 CA         -2.2260    3.5510   18.8270 C.3       8 GLP5        0.0000 
     13 CA         -2.4205    0.6600   14.9620 C.3       4 GLC5        0.0000 
     14 CA         -1.1290   -0.9300   14.4690 C.3       8 GLP5        0.0000 
     15 CA         -2.5175    4.5240   16.2865 C.3       4 GLC5        0.0000 
     16 CA         -3.1370    3.2740   14.7980 C.3      12 GLL5        0.0000 
     17 CA         -1.8980    5.7740   17.7750 C.3       8 GLP5        0.0000 
     18 CA         -1.5870    1.6655   14.7740 C.3       4 GLC5        0.0000 
     19 CA         -0.0370    0.0570   14.7500 C.3       8 GLP5        0.0000 
     20 CA         -7.9060    3.3330   15.1400 C.3       4 GLC5        0.0000 
     21 CA         -5.9350    3.3190   15.3850 C.3      12 GLL5        0.0000 
     22 CA         -9.8770    3.3470   14.8950 C.3       8 GLP5        0.0000 
     23 N          -6.5040    5.1220   11.9875 N.am      2 SEC2        0.0000 
     24 N          -5.1520    5.9930   12.3080 N.am     10 SEL2        0.0000 
     25 N          -7.8560    4.2510   11.6670 N.am      6 SEP2        0.0000 
     26 CA         -4.2495    8.9050   14.4665 C.3       4 GLC5        0.0000 
     27 CA         -2.9420    7.9460   14.9360 C.3      12 GLL5        0.0000 
     28 CA         -5.5570    9.8640   13.9970 C.3       8 GLP5        0.0000 
     29 CA         -3.6745    9.0960   16.2480 C.3       4 GLC5        0.0000 
     30 CA         -4.4070   10.2460   17.5600 C.3       8 GLP5        0.0000 
     31 CA         -1.5640   10.2955   16.7440 C.3       4 GLC5        0.0000 
     32 CA         -0.7340    8.8410   15.8680 C.3      12 GLL5        0.0000 
     33 CA         -2.3940   11.7500   17.6200 C.3       8 GLP5        0.0000 
     34 CA          0.6070    7.9745   16.2355 C.3       4 GLC5        0.0000 
     35 CA          1.9480    7.1080   16.6030 C.3       8 GLP5        0.0000 
     36 CA         -0.2125    9.1760   17.4645 C.3       4 GLC5        0.0000 
     37 CA          0.3090    9.5110   19.0610 C.3       8 GLP5        0.0000 
     38 CA          1.7365    8.1830   15.3835 C.3       4 GLC5        0.0000 
     39 CA          1.5250    9.2580   14.1640 C.3      12 GLL5        0.0000 
     40 CA         -4.8913    3.9188   16.9765 C.3       4 GLC5        0.0000 
     41 CA         -4.2370    5.0460   18.3690 C.3       8 GLP5        0.0000 
     42 CA         -4.4403    4.7250   16.4322 C.3       4 GLC5        0.0000 
     43 CA         -5.3110    4.4310   14.6390 C.3      12 GLL5        0.0000 
     44 CA          0.0945    7.1545   15.0042 C.3       4 GLC5        0.0000 
     45 CA         -1.9380    8.0970   14.0730 C.3      12 GLL5        0.0000 
     46 CA          1.5310    5.9660   15.6870 C.3       8 GLP5        0.0000 
     47 CA          0.9070    7.2918   14.3692 C.3       4 GLC5        0.0000 
     48 CA          0.3580    8.7780   13.7280 C.3      12 GLL5        0.0000 
     49 CA         -1.7440    7.0711   16.3184 C.3       4 GLC5        0.0000 
     50 CA         -0.7460    8.5890   14.5700 C.3      12 GLL5        0.0000 
@<TRIPOS>BOND
@<TRIPOS>SUBSTRUCTURE
     1 ALC1        1 GROUP        1 X    ALC  0     ROOT ALC X 1
     2 SEC2        7 GROUP        1 X    SEC  0     **** SEC X 2
     3 ZIC7        4 GROUP        1 X    ZIC  0     **** ZIC X 5
     4 GLC5       10 GROUP        1 X    GLC  0     **** GLC X 6
     5 ALP1        3 GROUP        1 Y    ALP  0     ROOT ALP Y 8
     6 SEP2        9 GROUP        1 Y    SEP  0     **** SEP Y 9
     7 ZIP7        6 GROUP        1 Y    ZIP  0     **** ZIP Y 12
     8 GLP5       12 GROUP        1 Y    GLP  0     **** GLP Y 13
     9 ALL1        2 GROUP        1 Z    ALL  0     ROOT ALL Z 15
    10 SEL2        8 GROUP        1 Z    SEL  0     **** SEL Z 16
    11 ZIL7        5 GROUP        1 Z    ZIL  0     **** ZIL Z 19
    12 GLL5       11 GROUP        1 Z    GLL  0     **** GLL Z 20
@<TRIPOS>SET

