#    Name: 3n0n_P9B_1_ligand
#    Modification time : Tue Mar 25 00:29:21 2014

@<TRIPOS>MOLECULE
3n0n_P9B_1_ligand
   32    33     1     0     0
SMALL
NO_CHARGES


@<TRIPOS>ATOM
      1 C1         -5.1560    2.2640   15.7830 C.ar      1 P9B263      0.0000 
      2 N1         -5.3990   -0.3890   16.0460 N.pl3     1 P9B263      0.0000 
      3 O1         -5.3500    1.0290   18.0300 O.2       1 P9B263      0.0000 
      4 S1         -5.8790    0.9470   16.6980 S.o2      1 P9B263      0.0000 
      5 C2         -3.7120    2.2500   15.4550 C.ar      1 P9B263      0.0000 
      6 O2         -7.2950    1.0720   16.6250 O.2       1 P9B263      0.0000 
      7 C3         -3.1370    3.2740   14.7980 C.ar      1 P9B263      0.0000 
      8 C4         -3.9760    4.3770   14.3520 C.ar      1 P9B263      0.0000 
      9 C5         -5.3110    4.4310   14.6390 C.ar      1 P9B263      0.0000 
     10 C6         -5.9350    3.3190   15.3850 C.ar      1 P9B263      0.0000 
     11 N7         -3.3560    5.4560   13.6950 N.am      1 P9B263      0.0000 
     12 C8         -4.0350    6.2540   12.7490 C.2       1 P9B263      0.0000 
     13 O8         -5.1520    5.9930   12.3080 O.2       1 P9B263      0.0000 
     14 N9         -3.2990    7.3430   12.2220 N.am      1 P9B263      0.0000 
     15 C10        -2.0410    7.7650   12.7340 C.ar      1 P9B263      0.0000 
     16 C11        -1.9380    8.0970   14.0730 C.ar      1 P9B263      0.0000 
     17 F11        -2.9420    7.9460   14.9360 F         1 P9B263      0.0000 
     18 C12        -0.7460    8.5890   14.5700 C.ar      1 P9B263      0.0000 
     19 F12        -0.7340    8.8410   15.8680 F         1 P9B263      0.0000 
     20 C13         0.3580    8.7780   13.7280 C.ar      1 P9B263      0.0000 
     21 F13         1.5250    9.2580   14.1640 F         1 P9B263      0.0000 
     22 C14         0.2080    8.4570   12.3750 C.ar      1 P9B263      0.0000 
     23 F14         1.2260    8.6330   11.5510 F         1 P9B263      0.0000 
     24 C15        -1.0020    7.9830   11.8820 C.ar      1 P9B263      0.0000 
     25 F15        -1.1810    7.6720   10.6030 F         1 P9B263      0.0000 
     26 H          -4.5626   -0.7869   16.4229 H         1 P9B263      0.0000 
     27 H          -3.1890    1.4158   15.7601 H         1 P9B263      0.0000 
     28 H          -2.1424    3.3238   14.5926 H         1 P9B263      0.0000 
     29 H          -5.9088    5.2027   14.3653 H         1 P9B263      0.0000 
     30 H          -6.9267    3.3807   15.5755 H         1 P9B263      0.0000 
     31 H          -2.3643    5.6744   13.9124 H         1 P9B263      0.0000 
     32 H          -3.7003    7.8672   11.4120 H         1 P9B263      0.0000 
@<TRIPOS>BOND
     1    4    1 1    
     2    5    1 ar   
     3   10    1 ar   
     4    4    2 1    
     5   26    2 1    
     6    4    3 2    
     7    6    4 2    
     8    7    5 ar   
     9   27    5 1    
    10    8    7 ar   
    11   28    7 1    
    12    9    8 ar   
    13   11    8 1    
    14   10    9 ar   
    15   29    9 1    
    16   30   10 1    
    17   12   11 am   
    18   31   11 1    
    19   13   12 2    
    20   14   12 am   
    21   15   14 1    
    22   32   14 1    
    23   16   15 ar   
    24   24   15 ar   
    25   17   16 1    
    26   18   16 ar   
    27   19   18 1    
    28   20   18 ar   
    29   21   20 1    
    30   22   20 ar   
    31   23   22 1    
    32   24   22 ar   
    33   25   24 1    
@<TRIPOS>SUBSTRUCTURE
     1 P9B263      1 GROUP   
@<TRIPOS>SET

