#    Name: 4hvs_647_1_INTS_M
#    Modification time : Tue Mar 25 01:50:23 2014

@<TRIPOS>MOLECULE
4hvs_647_1_INTS_M
   92     0     9     0     0
SMALL
NO_CHARGES


@<TRIPOS>ATOM
      1 CA         14.0390    4.8560   11.8845 C.3       3 GLC5        0.0000 
      2 CA         12.7410    3.1490   11.2340 C.3       9 GLL5        0.0000 
      3 CA         15.3370    6.5630   12.5350 C.3       6 GLP5        0.0000 
      4 CA         14.3370    2.4325   13.9500 C.3       3 GLC5        0.0000 
      5 CA         12.8000    2.7810   12.5790 C.3       9 GLL5        0.0000 
      6 CA         15.8740    2.0840   15.3210 C.3       6 GLP5        0.0000 
      7 N          13.3500    1.4250   14.4480 N.am      2 SEC2        0.0000 
      8 N          13.0910    1.5240   13.0330 N.am      8 SEL2        0.0000 
      9 N          13.6090    1.3260   15.8630 N.am      5 SEP2        0.0000 
     10 O          13.6355   -1.6130   13.3855 O.2       1 ALC1        0.0000 
     11 O          13.6750   -0.6850   12.2510 O.2       7 ALL1        0.0000 
     12 O          13.5960   -2.5410   14.5200 O.2       4 ALP1        0.0000 
     13 CA         15.1855   -2.6855   11.6450 C.3       3 GLC5        0.0000 
     14 CA         13.8670   -1.3110   11.0340 C.3       9 GLL5        0.0000 
     15 CA         16.5040   -4.0600   12.2560 C.3       6 GLP5        0.0000 
     16 CA         12.7785   -0.0210   14.0450 C.3       3 GLC5        0.0000 
     17 CA         13.3460    0.6300   12.0500 C.3       9 GLL5        0.0000 
     18 CA         12.2110   -0.6720   16.0400 C.3       6 GLP5        0.0000 
     19 CA         14.6100    1.3570   13.6855 C.3       3 GLC5        0.0000 
     20 CA         11.9000   -0.7850    8.4865 C.3       3 GLC5        0.0000 
     21 CA         13.8010   -0.6090    8.5210 C.3       9 GLL5        0.0000 
     22 CA          9.9990   -0.9610    8.4520 C.3       6 GLP5        0.0000 
     23 CA         13.8775    1.0660    7.5325 C.3       3 GLC5        0.0000 
     24 CA         13.9540    2.7410    6.5440 C.3       6 GLP5        0.0000 
     25 CA         17.2390   -1.9890    8.3525 C.3       3 GLC5        0.0000 
     26 CA         15.5900   -2.1770    7.6450 C.3       9 GLL5        0.0000 
     27 CA         18.8880   -1.8010    9.0600 C.3       6 GLP5        0.0000 
     28 CA         17.2845   -2.2510    6.2540 C.3       3 GLC5        0.0000 
     29 CA         18.9790   -2.3250    4.8630 C.3       6 GLP5        0.0000 
     30 CA         15.6400   -1.4540    5.7805 C.3       3 GLC5        0.0000 
     31 CA         15.6900   -0.7310    3.9160 C.3       6 GLP5        0.0000 
     32 N          17.5965   -3.0650    6.8165 N.am      2 SEC2        0.0000 
     33 N          16.1040   -3.4060    7.3560 N.am      8 SEL2        0.0000 
     34 N          19.0890   -2.7240    6.2770 N.am      5 SEP2        0.0000 
     35 CA         13.7585   -5.6460    9.7025 C.3       3 GLC5        0.0000 
     36 CA         14.0890   -4.4070    8.2120 C.3       9 GLL5        0.0000 
     37 CA         13.4280   -6.8850   11.1930 C.3       6 GLP5        0.0000 
     38 CA         22.6970   -5.1735    6.4680 C.3       3 GLC5        0.0000 
     39 CA         20.8790   -5.9930    7.1950 C.3       9 GLL5        0.0000 
     40 CA         24.5150   -4.3540    5.7410 C.3       6 GLP5        0.0000 
     41 CA         23.4490   -5.9480   11.4505 C.3       3 GLC5        0.0000 
     42 CA         22.8090   -5.4800    9.9490 C.3       9 GLL5        0.0000 
     43 CA         24.0890   -6.4160   12.9520 C.3       6 GLP5        0.0000 
     44 CA         21.4450   -4.0380    9.2190 C.3       3 GLC5        0.0000 
     45 CA         20.0810   -2.5960    8.4890 C.3       6 GLP5        0.0000 
     46 CA         22.5870   -9.3770    9.6795 C.3       3 GLC5        0.0000 
     47 CA         22.2640   -7.5730    9.9280 C.3       9 GLL5        0.0000 
     48 CA         22.9100  -11.1810    9.4310 C.3       6 GLP5        0.0000 
     49 CA         24.0325   -8.2840    9.8815 C.3       3 GLC5        0.0000 
     50 CA         25.8010   -8.9950    9.8350 C.3       6 GLP5        0.0000 
     51 CA         23.8835   -5.5205    6.9995 C.3       3 GLC5        0.0000 
     52 CA         23.2520   -6.6870    8.2580 C.3       9 GLL5        0.0000 
     53 CA         11.0252    2.3715   11.6822 C.3       3 GLC5        0.0000 
     54 CA          9.2800    1.7780   11.4580 C.3       6 GLP5        0.0000 
     55 CA         14.6777    1.9930   11.7847 C.3       3 GLC5        0.0000 
     56 CA         16.5850    1.0210   11.6630 C.3       6 GLP5        0.0000 
     57 CA         15.1818    0.0867   11.0918 C.3       3 GLC5        0.0000 
     58 CA         11.7583   -0.3605    9.3955 C.3       3 GLC5        0.0000 
     59 CA         13.6900   -0.3840   10.0070 C.3       9 GLL5        0.0000 
     60 CA         11.2724    1.4263   11.3565 C.3       3 GLC5        0.0000 
     61 CA         14.9249    1.0477   11.4590 C.3       3 GLC5        0.0000 
     62 CA         13.0220    2.1740   10.2490 C.3       9 GLL5        0.0000 
     63 CA         12.3660   -2.1858    7.2553 C.3       3 GLC5        0.0000 
     64 CA         14.3340   -1.9850    8.2080 C.3       9 GLL5        0.0000 
     65 CA         10.7680   -1.8060    6.1630 C.3       6 GLP5        0.0000 
     66 CA         13.6107   -4.2073    6.4206 C.3       3 GLC5        0.0000 
     67 CA         13.0680   -4.6110    4.6370 C.3       6 GLP5        0.0000 
     68 CA         18.4070   -4.0717    5.9555 C.3       3 GLC5        0.0000 
     69 CA         17.1980   -5.7130    6.6830 C.3       9 GLL5        0.0000 
     70 CA         19.2963   -4.3210    8.2955 C.3       3 GLC5        0.0000 
     71 CA         18.4720   -5.9240    7.4130 C.3       9 GLL5        0.0000 
     72 CA         18.6403   -8.1062    9.5010 C.3       3 GLC5        0.0000 
     73 CA         18.5510   -6.1680    8.7910 C.3       9 GLL5        0.0000 
     74 CA         18.0980   -9.9620    9.9190 C.3       6 GLP5        0.0000 
     75 CA         18.5703   -4.9522   10.7185 C.3       3 GLC5        0.0000 
     76 CA         17.9580   -3.6540   12.3540 C.3       6 GLP5        0.0000 
     77 CA         20.2340   -4.4450    8.7318 C.3       3 GLC5        0.0000 
     78 CA         19.8140   -6.3330    9.3750 C.3       9 GLL5        0.0000 
     79 CA         20.1650   -4.2558    7.7005 C.3       3 GLC5        0.0000 
     80 CA         19.9860   -4.5873    5.4035 C.3       3 GLC5        0.0000 
     81 CA         19.7230   -3.2590    3.8950 C.3       6 GLP5        0.0000 
     82 CA         22.4405   -6.6163   11.4253 C.3       3 GLC5        0.0000 
     83 CA         22.5980   -6.2140   13.3000 C.3       6 GLP5        0.0000 
     84 CA         22.1593   -8.0409    7.8411 C.3       3 GLC5        0.0000 
     85 CA         22.3020   -6.4640    9.1730 C.3       9 GLL5        0.0000 
     86 CA         21.5510   -9.2290    6.7780 C.3       6 GLP5        0.0000 
     87 CA         24.7489   -6.6443    8.7512 C.3       3 GLC5        0.0000 
     88 CA         26.5940   -6.9590    8.5930 C.3       6 GLP5        0.0000 
     89 CA         23.5979   -4.5913    8.9078 C.3       3 GLC5        0.0000 
     90 CA         24.2920   -2.8530    8.9060 C.3       6 GLP5        0.0000 
     91 CA         11.9770   -0.9211   11.5933 C.3       3 GLC5        0.0000 
     92 CA         10.3920   -1.7920   12.2460 C.3       6 GLP5        0.0000 
@<TRIPOS>BOND
@<TRIPOS>SUBSTRUCTURE
     1 ALC1       10 GROUP        1 X    ALC  0     ROOT ALC X 1
     2 SEC2        7 GROUP        1 X    SEC  0     **** SEC X 2
     3 GLC5        1 GROUP        1 X    GLC  0     **** GLC X 6
     4 ALP1       12 GROUP        1 Y    ALP  0     ROOT ALP Y 8
     5 SEP2        9 GROUP        1 Y    SEP  0     **** SEP Y 9
     6 GLP5        3 GROUP        1 Y    GLP  0     **** GLP Y 13
     7 ALL1       11 GROUP        1 Z    ALL  0     ROOT ALL Z 15
     8 SEL2        8 GROUP        1 Z    SEL  0     **** SEL Z 16
     9 GLL5        2 GROUP        1 Z    GLL  0     **** GLL Z 20
@<TRIPOS>SET

