#    Name: 4hvs_647_1_ligand
#    Modification time : Tue Mar 25 01:50:23 2014

@<TRIPOS>MOLECULE
4hvs_647_1_ligand
   45    48     1     0     0
SMALL
NO_CHARGES


@<TRIPOS>ATOM
      1 C1         12.7410    3.1490   11.2340 C.ar      1 6471001     0.0000 
      2 C3         12.8000    2.7810   12.5790 C.ar      1 6471001     0.0000 
      3 N5         13.0910    1.5240   13.0330 N.ar      1 6471001     0.0000 
      4 C6         13.0220    2.1740   10.2490 C.ar      1 6471001     0.0000 
      5 N8         13.6750   -0.6850   12.2510 N.pl3     1 6471001     0.0000 
      6 C10        13.8670   -1.3110   11.0340 C.2       1 6471001     0.0000 
      7 C12        13.6900   -0.3840   10.0070 C.2       1 6471001     0.0000 
      8 C13        13.3450    0.8640   10.6710 C.ar      1 6471001     0.0000 
      9 C14        13.3460    0.6300   12.0500 C.ar      1 6471001     0.0000 
     10 C15        13.8010   -0.6090    8.5210 C.3       1 6471001     0.0000 
     11 C18        14.3340   -1.9850    8.2080 C.ar      1 6471001     0.0000 
     12 C19        15.5900   -2.1770    7.6450 C.ar      1 6471001     0.0000 
     13 N21        16.1040   -3.4060    7.3560 N.ar      1 6471001     0.0000 
     14 C22        15.3370   -4.5150    7.6310 C.ar      1 6471001     0.0000 
     15 C23        14.0890   -4.4070    8.2120 C.ar      1 6471001     0.0000 
     16 C25        13.5940   -3.1460    8.4870 C.ar      1 6471001     0.0000 
     17 N27        15.9210   -5.7340    7.3510 N.pl3     1 6471001     0.0000 
     18 C29        17.1980   -5.7130    6.6830 C.3       1 6471001     0.0000 
     19 C32        18.4720   -5.9240    7.4130 C.ar      1 6471001     0.0000 
     20 C33        18.5510   -6.1680    8.7910 C.ar      1 6471001     0.0000 
     21 C35        19.8140   -6.3330    9.3750 C.ar      1 6471001     0.0000 
     22 C37        20.9600   -6.2550    8.5740 C.ar      1 6471001     0.0000 
     23 C38        20.8790   -5.9930    7.1950 C.ar      1 6471001     0.0000 
     24 C40        19.6190   -5.8380    6.6290 C.ar      1 6471001     0.0000 
     25 C42        22.3020   -6.4640    9.1730 C.3       1 6471001     0.0000 
     26 F43        22.8090   -5.4800    9.9490 F         1 6471001     0.0000 
     27 F44        22.2640   -7.5730    9.9280 F         1 6471001     0.0000 
     28 F45        23.2520   -6.6870    8.2580 F         1 6471001     0.0000 
     29 H          12.5018    4.0961   10.9594 H         1 6471001     0.0000 
     30 H          12.6021    3.5433   13.2964 H         1 6471001     0.0000 
     31 H          12.9926    2.4082    9.2675 H         1 6471001     0.0000 
     32 H          13.7612   -1.1150   13.1098 H         1 6471001     0.0000 
     33 H          14.0865   -2.2329   10.9083 H         1 6471001     0.0000 
     34 H          14.4679    0.1454    8.0878 H         1 6471001     0.0000 
     35 H          12.8136   -0.4892    8.0603 H         1 6471001     0.0000 
     36 H          16.1688   -1.3179    7.4338 H         1 6471001     0.0000 
     37 H          13.5425   -5.2410    8.4342 H         1 6471001     0.0000 
     38 H          12.6506   -3.0440    8.9113 H         1 6471001     0.0000 
     39 H          15.4992   -6.6106    7.5897 H         1 6471001     0.0000 
     40 H          17.2975   -4.7228    6.0995 H         1 6471001     0.0000 
     41 H          17.1747   -6.4666    5.8098 H         1 6471001     0.0000 
     42 H          17.7083   -6.2241    9.3556 H         1 6471001     0.0000 
     43 H          19.8978   -6.5089   10.3777 H         1 6471001     0.0000 
     44 H          21.7205   -5.9205    6.6355 H         1 6471001     0.0000 
     45 H          19.5319   -5.6570    5.6156 H         1 6471001     0.0000 
@<TRIPOS>BOND
     1    2    1 ar   
     2    4    1 ar   
     3   29    1 1    
     4    3    2 ar   
     5   30    2 1    
     6    9    3 ar   
     7    8    4 ar   
     8   31    4 1    
     9    6    5 1    
    10    9    5 1    
    11   32    5 1    
    12    7    6 2    
    13   33    6 1    
    14    8    7 1    
    15   10    7 1    
    16    9    8 ar   
    17   11   10 1    
    18   34   10 1    
    19   35   10 1    
    20   12   11 ar   
    21   16   11 ar   
    22   13   12 ar   
    23   36   12 1    
    24   14   13 ar   
    25   15   14 ar   
    26   17   14 1    
    27   16   15 ar   
    28   37   15 1    
    29   38   16 1    
    30   18   17 1    
    31   39   17 1    
    32   19   18 1    
    33   40   18 1    
    34   41   18 1    
    35   20   19 ar   
    36   24   19 ar   
    37   21   20 ar   
    38   42   20 1    
    39   22   21 ar   
    40   43   21 1    
    41   23   22 ar   
    42   25   22 1    
    43   24   23 ar   
    44   44   23 1    
    45   45   24 1    
    46   26   25 1    
    47   27   25 1    
    48   28   25 1    
@<TRIPOS>SUBSTRUCTURE
     1 6471001     1 GROUP   
@<TRIPOS>SET

