#    Name: 1ny3_ADP_1_INTS_M
#    Modification time : Mon Mar 24 19:06:48 2014

@<TRIPOS>MOLECULE
1ny3_ADP_1_INTS_M
   45     0    12     0     0
SMALL
NO_CHARGES


@<TRIPOS>ATOM
      1 NZ        228.5405   77.1320  183.0515 N.4       3 LYC4        0.0000 
      2 NZ        228.0950   75.6380  184.0200 N.4      11 LYL4        0.0000 
      3 NZ        228.9860   78.6260  182.0830 N.4       7 LYP4        0.0000 
      4 NZ        229.6310   79.2210  183.3130 N.4       3 LYC4        0.0000 
      5 NZ        230.2760   79.8160  184.5430 N.4      11 LYL4        0.0000 
      6 N         229.4320   78.0035  183.1585 N.am      2 SEC2        0.0000 
      7 N         229.8780   77.3810  184.2340 N.am     10 SEL2        0.0000 
      8 N         228.9860   78.6260  182.0830 N.am      6 SEP2        0.0000 
      9 CA        232.8420   77.4505  182.0295 C.3       4 GLC5        0.0000 
     10 CA        232.8740   77.1590  184.0300 C.3      12 GLL5        0.0000 
     11 CA        232.8100   77.7420  180.0290 C.3       8 GLP5        0.0000 
     12 CA        236.0885   76.7445  183.2130 C.3       4 GLC5        0.0000 
     13 CA        234.3960   77.4000  184.2600 C.3      12 GLL5        0.0000 
     14 CA        237.7810   76.0890  182.1660 C.3       8 GLP5        0.0000 
     15 CA        235.5770   81.1080  185.5445 C.3       4 GLC5        0.0000 
     16 CA        235.9120   79.1550  184.9520 C.3      12 GLL5        0.0000 
     17 CA        235.2420   83.0610  186.1370 C.3       8 GLP5        0.0000 
     18 CA        236.7445   77.6505  182.8040 C.3       4 GLC5        0.0000 
     19 CA        235.7080   79.2120  183.4420 C.3      12 GLL5        0.0000 
     20 CA        235.6055   85.2865  183.1835 C.3       4 GLC5        0.0000 
     21 CA        234.6880   83.7260  181.9050 C.3      12 GLL5        0.0000 
     22 CA        236.5230   86.8470  184.4620 C.3       8 GLP5        0.0000 
     23 O         233.7890   85.9115  180.8925 O.2       1 ALC1        0.0000 
     24 O         233.7020   84.5380  181.5130 O.2       9 ALL1        0.0000 
     25 O         233.8760   87.2850  180.2720 O.2       5 ALP1        0.0000 
     26 N         236.4455   85.5390  181.9915 N.am      2 SEC2        0.0000 
     27 N         235.9790   84.1830  181.9280 N.am     10 SEL2        0.0000 
     28 N         236.9120   86.8950  182.0550 N.am      6 SEP2        0.0000 
     29 CA        238.2775   82.7225  180.8240 C.3       4 GLC5        0.0000 
     30 CA        237.0020   83.3960  182.3260 C.3      12 GLL5        0.0000 
     31 CA        239.5530   82.0490  179.3220 C.3       8 GLP5        0.0000 
     32 CA        237.9990   84.6035  180.7215 C.3       4 GLC5        0.0000 
     33 CA        238.9960   85.8110  179.1170 C.3       8 GLP5        0.0000 
     34 CA        237.2630   85.2775  182.8370 C.3       4 GLC5        0.0000 
     35 CA        237.5240   87.1590  183.3480 C.3       8 GLP5        0.0000 
     36 CA        236.1220   83.2285  184.2315 C.3       4 GLC5        0.0000 
     37 CA        236.8750   80.7835  181.2040 C.3       4 GLC5        0.0000 
     38 CA        235.4820   81.6110  182.6900 C.3      12 GLL5        0.0000 
     39 CA        238.2680   79.9560  179.7180 C.3       8 GLP5        0.0000 
     40 CA        234.6043   80.7503  180.7575 C.3       4 GLC5        0.0000 
     41 CA        234.2670   79.4820  179.0230 C.3       8 GLP5        0.0000 
     42 CA        234.4522   83.2595  180.2007 C.3       4 GLC5        0.0000 
     43 CA        234.4010   82.4260  182.2940 C.3      12 GLL5        0.0000 
     44 CA        234.3600   83.4430  178.3020 C.3       8 GLP5        0.0000 
     45 CA        235.1276   82.7023  184.2659 C.3       4 GLC5        0.0000 
@<TRIPOS>BOND
@<TRIPOS>SUBSTRUCTURE
     1 ALC1       23 GROUP        1 X    ALC  0     ROOT ALC X 1
     2 SEC2        6 GROUP        1 X    SEC  0     **** SEC X 2
     3 LYC4        1 GROUP        1 X    LYC  0     **** LYC X 4
     4 GLC5        9 GROUP        1 X    GLC  0     **** GLC X 6
     5 ALP1       25 GROUP        1 Y    ALP  0     ROOT ALP Y 8
     6 SEP2        8 GROUP        1 Y    SEP  0     **** SEP Y 9
     7 LYP4        3 GROUP        1 Y    LYP  0     **** LYP Y 11
     8 GLP5       11 GROUP        1 Y    GLP  0     **** GLP Y 13
     9 ALL1       24 GROUP        1 Z    ALL  0     ROOT ALL Z 15
    10 SEL2        7 GROUP        1 Z    SEL  0     **** SEL Z 16
    11 LYL4        2 GROUP        1 Z    LYL  0     **** LYL Z 18
    12 GLL5       10 GROUP        1 Z    GLL  0     **** GLL Z 20
@<TRIPOS>SET

