#    Name: 1ny3_ADP_1_ligand
#    Modification time : Mon Mar 24 19:06:48 2014

@<TRIPOS>MOLECULE
1ny3_ADP_1_ligand
   39    41     1     0     0
SMALL
NO_CHARGES


@<TRIPOS>ATOM
      1 PB        229.4140   75.9300  184.6380 P.3       1 ADP401      0.0000 
      2 O1B       228.0950   75.6380  184.0200 O.co2     1 ADP401      0.0000 
      3 O2B       229.2820   76.0050  186.2380 O.co2     1 ADP401      0.0000 
      4 O3B       230.4440   74.9460  184.2180 O.co2     1 ADP401      0.0000 
      5 PA        230.7060   78.4910  184.9890 P.3       1 ADP401      0.0000 
      6 O1A       230.2760   79.8160  184.5430 O.co2     1 ADP401      0.0000 
      7 O2A       230.5240   78.3800  186.4350 O.co2     1 ADP401      0.0000 
      8 O3A       229.8780   77.3810  184.2340 O.3       1 ADP401      0.0000 
      9 O5'       232.2450   78.2640  184.6820 O.3       1 ADP401      0.0000 
     10 C5'       232.8740   77.1590  184.0300 C.3       1 ADP401      0.0000 
     11 C4'       234.3960   77.4000  184.2600 C.3       1 ADP401      0.0000 
     12 O4'       234.8740   78.0780  183.0940 O.3       1 ADP401      0.0000 
     13 C3'       234.7010   78.3660  185.4180 C.3       1 ADP401      0.0000 
     14 O3'       234.9730   77.6770  186.6500 O.3       1 ADP401      0.0000 
     15 C2'       235.9120   79.1550  184.9520 C.3       1 ADP401      0.0000 
     16 O2'       237.1630   78.6090  185.4030 O.3       1 ADP401      0.0000 
     17 C1'       235.7080   79.2120  183.4420 C.3       1 ADP401      0.0000 
     18 N9        234.9760   80.4390  182.9960 N.pl3     1 ADP401      0.0000 
     19 C8        233.6490   80.4890  182.7700 C.2       1 ADP401      0.0000 
     20 N7        233.3140   81.7050  182.3870 N.2       1 ADP401      0.0000 
     21 C5        234.4010   82.4260  182.2940 C.ar      1 ADP401      0.0000 
     22 C6        234.6880   83.7260  181.9050 C.ar      1 ADP401      0.0000 
     23 N6        233.7020   84.5380  181.5130 N.pl3     1 ADP401      0.0000 
     24 N1        235.9790   84.1830  181.9280 N.ar      1 ADP401      0.0000 
     25 C2        237.0020   83.3960  182.3260 C.ar      1 ADP401      0.0000 
     26 N3        236.7420   82.1220  182.6810 N.ar      1 ADP401      0.0000 
     27 C4        235.4820   81.6110  182.6900 C.ar      1 ADP401      0.0000 
     28 H         232.7059   77.1513  182.9727 H         1 ADP401      0.0000 
     29 H         232.6263   76.2183  184.4771 H         1 ADP401      0.0000 
     30 H         234.8871   76.4889  184.4077 H         1 ADP401      0.0000 
     31 H         233.8754   79.0473  185.4968 H         1 ADP401      0.0000 
     32 H         235.7556   80.1820  185.3192 H         1 ADP401      0.0000 
     33 H         236.6481   79.1407  182.9535 H         1 ADP401      0.0000 
     34 H         233.0408   79.7295  182.8783 H         1 ADP401      0.0000 
     35 H         232.7849   84.1397  181.4951 H         1 ADP401      0.0000 
     36 H         233.9697   85.4711  181.2727 H         1 ADP401      0.0000 
     37 H         237.9673   83.7656  182.3574 H         1 ADP401      0.0000 
     38 H         235.9403   77.8503  186.8352 H         1 ADP401      0.0000 
     39 H         237.8459   79.3021  185.1724 H         1 ADP401      0.0000 
@<TRIPOS>BOND
     1    2    1 ar   
     2    3    1 ar   
     3    4    1 ar   
     4    8    1 1    
     5    6    5 ar   
     6    7    5 ar   
     7    8    5 1    
     8    9    5 1    
     9   10    9 1    
    10   11   10 1    
    11   28   10 1    
    12   29   10 1    
    13   12   11 1    
    14   13   11 1    
    15   30   11 1    
    16   17   12 1    
    17   14   13 1    
    18   15   13 1    
    19   31   13 1    
    20   38   14 1    
    21   16   15 1    
    22   17   15 1    
    23   32   15 1    
    24   39   16 1    
    25   18   17 1    
    26   33   17 1    
    27   19   18 1    
    28   27   18 1    
    29   20   19 2    
    30   34   19 1    
    31   21   20 1    
    32   22   21 ar   
    33   27   21 ar   
    34   23   22 1    
    35   24   22 ar   
    36   35   23 1    
    37   36   23 1    
    38   25   24 ar   
    39   26   25 ar   
    40   37   25 1    
    41   27   26 ar   
@<TRIPOS>SUBSTRUCTURE
     1 ADP401      1 GROUP   
@<TRIPOS>SET

