#    Name: 2h7c_COA_6_INTS_M
#    Modification time : Tue Mar 25 15:41:26 2014

@<TRIPOS>MOLECULE
2h7c_COA_6_INTS_M
   64     0     6     0     0
SMALL
NO_CHARGES


@<TRIPOS>ATOM
      1 CA          4.1225    4.8800   30.2215 C.3       2 GLC5        0.0000 
      2 CA          5.5450    3.7520   31.3010 C.3       6 GLL5        0.0000 
      3 CA          2.7000    6.0080   29.1420 C.3       4 GLP5        0.0000 
      4 CA          7.2400    7.4820   31.8435 C.3       2 GLC5        0.0000 
      5 CA          6.9750    5.5270   30.9760 C.3       6 GLL5        0.0000 
      6 CA          7.5050    9.4370   32.7110 C.3       4 GLP5        0.0000 
      7 CA          5.7150    7.2895   30.9065 C.3       2 GLC5        0.0000 
      8 CA          4.4550    9.0520   30.8370 C.3       4 GLP5        0.0000 
      9 CA         10.4675   -0.1145   30.2250 C.3       2 GLC5        0.0000 
     10 CA          9.5360    1.0740   31.3750 C.3       6 GLL5        0.0000 
     11 CA         11.3990   -1.3030   29.0750 C.3       4 GLP5        0.0000 
     12 CA         10.6020   -0.1430   34.0980 C.3       2 GLC5        0.0000 
     13 CA          9.2620    0.5110   32.7760 C.3       6 GLL5        0.0000 
     14 CA         11.9420   -0.7970   35.4200 C.3       4 GLP5        0.0000 
     15 CA          0.0040    0.7665   29.6020 C.3       2 GLC5        0.0000 
     16 CA          0.0770    2.2210   30.2030 C.3       6 GLL5        0.0000 
     17 CA         -0.0690   -0.6880   29.0010 C.3       4 GLP5        0.0000 
     18 CA          1.3570    2.2930   33.6850 C.3       2 GLC5        0.0000 
     19 CA          0.3480    3.7170   32.2830 C.3       6 GLL5        0.0000 
     20 CA          2.3660    0.8690   35.0870 C.3       4 GLP5        0.0000 
     21 CA         -0.0735    5.2785   31.7210 C.3       2 GLC5        0.0000 
     22 CA         -0.4950    6.8400   31.1590 C.3       4 GLP5        0.0000 
     23 O           1.0260    3.6450   34.9895 O.2       1 ALC1        0.0000 
     24 O           1.2390    3.9870   33.3870 O.2       5 ALL1        0.0000 
     25 O           0.8130    3.3030   36.5920 O.2       3 ALP1        0.0000 
     26 CA         -3.3375    5.6630   33.3290 C.3       2 GLC5        0.0000 
     27 CA         -3.3130    4.4990   32.0990 C.3       6 GLL5        0.0000 
     28 CA         -3.3620    6.8270   34.5590 C.3       4 GLP5        0.0000 
     29 CA         -3.1880    2.7930   33.3285 C.3       2 GLC5        0.0000 
     30 CA         -3.0630    1.0870   34.5580 C.3       4 GLP5        0.0000 
     31 CA         -4.0135    1.6045   28.4620 C.3       2 GLC5        0.0000 
     32 CA         -5.6110    3.0410   27.9850 C.3       6 GLL5        0.0000 
     33 CA         -2.4160    0.1680   28.9390 C.3       4 GLP5        0.0000 
     34 CA         -5.6920    0.7675   26.1850 C.3       2 GLC5        0.0000 
     35 CA         -5.4290    2.9400   26.4780 C.3       6 GLL5        0.0000 
     36 CA         -5.9550   -1.4050   25.8920 C.3       4 GLP5        0.0000 
     37 CA         -5.5860    6.2065   25.5310 C.3       2 GLC5        0.0000 
     38 CA         -6.2570    4.3300   25.6420 C.3       6 GLL5        0.0000 
     39 CA         -4.9150    8.0830   25.4200 C.3       4 GLP5        0.0000 
     40 CA         -6.0755    4.4815   23.7505 C.3       2 GLC5        0.0000 
     41 CA         -5.8940    4.6330   21.8590 C.3       4 GLP5        0.0000 
     42 CA         -7.2385    5.7575   24.8455 C.3       2 GLC5        0.0000 
     43 CA         -8.2200    7.1850   24.0490 C.3       4 GLP5        0.0000 
     44 CA          8.8985    4.9501   29.5282 C.3       2 GLC5        0.0000 
     45 CA          7.8640    3.1920   31.2200 C.3       6 GLL5        0.0000 
     46 CA         10.3100    5.1820   28.0120 C.3       4 GLP5        0.0000 
     47 CA         11.1860    1.5917   31.9982 C.3       2 GLC5        0.0000 
     48 CA         12.9730    2.3910   31.9210 C.3       4 GLP5        0.0000 
     49 CA          8.7032   -1.3745   29.7287 C.3       2 GLC5        0.0000 
     50 CA          8.0460   -0.7660   31.1230 C.3       6 GLL5        0.0000 
     51 CA         10.0590   -2.0030   28.6760 C.3       4 GLP5        0.0000 
     52 CA          1.7490    1.3822   33.4698 C.3       2 GLC5        0.0000 
     53 CA          1.2850    1.2560   32.2830 C.3       6 GLL5        0.0000 
     54 CA         -0.1705    0.5663   31.4518 C.3       2 GLC5        0.0000 
     55 CA         -1.4730   -0.7630   31.0510 C.3       4 GLP5        0.0000 
     56 CA          1.3527    4.2863   30.2619 C.3       2 GLC5        0.0000 
     57 CA          2.3350    2.9750   30.8930 C.3       6 GLL5        0.0000 
     58 CA          1.2740    5.8960   29.6710 C.3       4 GLP5        0.0000 
     59 CA         -4.8418    3.4172   32.1782 C.3       2 GLC5        0.0000 
     60 CA         -3.2860    4.3320   30.5660 C.3       6 GLL5        0.0000 
     61 CA         -6.3840    2.4190   33.0240 C.3       4 GLP5        0.0000 
     62 CA         -1.8973    5.6277   31.2457 C.3       2 GLC5        0.0000 
     63 CA         -6.1365    1.6777   28.5412 C.3       2 GLC5        0.0000 
     64 CA         -6.7530    0.3650   29.8510 C.3       4 GLP5        0.0000 
@<TRIPOS>BOND
@<TRIPOS>SUBSTRUCTURE
     1 ALC1       23 GROUP        1 X    ALC  0     ROOT ALC X 1
     2 GLC5        1 GROUP        1 X    GLC  0     **** GLC X 6
     3 ALP1       25 GROUP        1 Y    ALP  0     ROOT ALP Y 8
     4 GLP5        3 GROUP        1 Y    GLP  0     **** GLP Y 13
     5 ALL1       24 GROUP        1 Z    ALL  0     ROOT ALL Z 15
     6 GLL5        2 GROUP        1 Z    GLL  0     **** GLL Z 20
@<TRIPOS>SET

