#    Name: 2h7c_COA_6_ligand
#    Modification time : Tue Mar 25 15:41:26 2014

@<TRIPOS>MOLECULE
2h7c_COA_6_ligand
   79    81     1     0     0
SMALL
NO_CHARGES


@<TRIPOS>ATOM
      1 N1A         5.7410    5.0510   31.1160 N.ar      1 COA6        0.0000 
      2 C2A         5.5450    3.7520   31.3010 C.ar      1 COA6        0.0000 
      3 N3A         6.4430    2.7810   31.3590 N.ar      1 COA6        0.0000 
      4 C4A         7.8640    3.1920   31.2200 C.ar      1 COA6        0.0000 
      5 C5A         8.1340    4.6270   31.0060 C.ar      1 COA6        0.0000 
      6 C6A         6.9750    5.5270   30.9760 C.ar      1 COA6        0.0000 
      7 N6A         7.1010    6.8340   30.7960 N.pl3     1 COA6        0.0000 
      8 N7A         9.4820    4.9020   30.8870 N.2       1 COA6        0.0000 
      9 C8A         9.9450    3.6130   31.0210 C.2       1 COA6        0.0000 
     10 N9A         9.1110    2.5210   31.2120 N.pl3     1 COA6        0.0000 
     11 C1B         9.5360    1.0740   31.3750 C.3       1 COA6        0.0000 
     12 C2B         9.2620    0.5110   32.7760 C.3       1 COA6        0.0000 
     13 O2B        10.4550   -0.0910   33.2870 O.3       1 COA6        0.0000 
     14 C3B         8.1370   -0.5330   32.6390 C.3       1 COA6        0.0000 
     15 O3B         8.5790   -1.7200   33.3450 O.3       1 COA6        0.0000 
     16 P3B         7.7030   -2.7590   34.1920 P.3       1 COA6        0.0000 
     17 O7A         6.8040   -1.9990   35.1990 O.co2     1 COA6        0.0000 
     18 O8A         8.6910   -3.7230   34.9840 O.co2     1 COA6        0.0000 
     19 O9A         6.8310   -3.5780   33.2310 O.co2     1 COA6        0.0000 
     20 C4B         8.0460   -0.7660   31.1230 C.3       1 COA6        0.0000 
     21 O4B         8.8000    0.2700   30.4480 O.3       1 COA6        0.0000 
     22 C5B         6.6490   -0.7260   30.4400 C.3       1 COA6        0.0000 
     23 O5B         5.6140   -1.6500   30.9270 O.3       1 COA6        0.0000 
     24 P1A         4.1420   -1.7190   30.2010 P.3       1 COA6        0.0000 
     25 O1A         3.7900   -0.3560   29.5650 O.co2     1 COA6        0.0000 
     26 O2A         4.3980   -2.8350   29.0900 O.co2     1 COA6        0.0000 
     27 O3A         2.9130   -2.2050   31.1050 O.3       1 COA6        0.0000 
     28 P2A         2.3620   -1.2680   32.2350 P.3       1 COA6        0.0000 
     29 O4A         1.1470   -1.9620   33.0100 O.co2     1 COA6        0.0000 
     30 O5A         3.5170   -1.0290   33.2070 O.co2     1 COA6        0.0000 
     31 O6A         1.8860    0.1400   31.5530 O.3       1 COA6        0.0000 
     32 CBP         0.9790    2.5350   31.4220 C.3       1 COA6        0.0000 
     33 CCP         1.2850    1.2560   32.2830 C.3       1 COA6        0.0000 
     34 CDP         0.0770    2.2210   30.2030 C.3       1 COA6        0.0000 
     35 CEP         2.3350    2.9750   30.8930 C.3       1 COA6        0.0000 
     36 CAP         0.3480    3.7170   32.2830 C.3       1 COA6        0.0000 
     37 OAP         1.2390    3.9870   33.3870 O.3       1 COA6        0.0000 
     38 C9P        -1.0870    3.4750   32.8690 C.2       1 COA6        0.0000 
     39 O9P        -1.0440    3.3450   34.2730 O.2       1 COA6        0.0000 
     40 N8P        -1.9550    4.6670   32.6900 N.am      1 COA6        0.0000 
     41 C7P        -3.3130    4.4990   32.0990 C.3       1 COA6        0.0000 
     42 C6P        -3.2860    4.3320   30.5660 C.3       1 COA6        0.0000 
     43 C5P        -4.6920    4.1860   29.9790 C.2       1 COA6        0.0000 
     44 O5P        -5.4150    5.3880   30.1360 O.2       1 COA6        0.0000 
     45 N4P        -4.6270    4.0010   28.5270 N.am      1 COA6        0.0000 
     46 C3P        -5.6110    3.0410   27.9850 C.3       1 COA6        0.0000 
     47 C2P        -5.4290    2.9400   26.4780 C.3       1 COA6        0.0000 
     48 S1P        -6.2570    4.3300   25.6420 S.3       1 COA6        0.0000 
     49 H           4.4884    3.4390   31.4232 H         1 COA6        0.0000 
     50 H           6.2495    7.3570   30.7581 H         1 COA6        0.0000 
     51 H           8.0361    7.1788   30.7144 H         1 COA6        0.0000 
     52 H          10.9842    3.4421   30.9770 H         1 COA6        0.0000 
     53 H          10.5941    0.9913   31.1805 H         1 COA6        0.0000 
     54 H           8.9081    1.3074   33.3911 H         1 COA6        0.0000 
     55 H           7.2556   -0.1233   32.9949 H         1 COA6        0.0000 
     56 H           8.5020   -1.7265   30.8783 H         1 COA6        0.0000 
     57 H           6.8203   -0.8826   29.3395 H         1 COA6        0.0000 
     58 H           6.2833    0.3353   30.5092 H         1 COA6        0.0000 
     59 H           1.9406    1.5834   33.1188 H         1 COA6        0.0000 
     60 H           0.3255    0.9519   32.7546 H         1 COA6        0.0000 
     61 H           0.3020    4.5950   31.6378 H         1 COA6        0.0000 
     62 H          -1.6367    5.5655   32.9600 H         1 COA6        0.0000 
     63 H          -3.9404    5.3716   32.3367 H         1 COA6        0.0000 
     64 H          -3.8074    3.6152   32.5304 H         1 COA6        0.0000 
     65 H          -2.6975    3.4460   30.3181 H         1 COA6        0.0000 
     66 H          -2.7994    5.2045   30.1247 H         1 COA6        0.0000 
     67 H          -3.9972    4.4639   27.9666 H         1 COA6        0.0000 
     68 H          -6.6251    3.3749   28.1938 H         1 COA6        0.0000 
     69 H          -5.4641    2.0558   28.4224 H         1 COA6        0.0000 
     70 H          -5.9092    2.0977   26.0406 H         1 COA6        0.0000 
     71 H          -4.4216    3.0535   26.1562 H         1 COA6        0.0000 
     72 H          -0.1091    3.0387   29.6583 H         1 COA6        0.0000 
     73 H           0.4987    1.5513   29.5917 H         1 COA6        0.0000 
     74 H          -0.8075    1.8471   30.4820 H         1 COA6        0.0000 
     75 H           2.9705    3.1912   31.6342 H         1 COA6        0.0000 
     76 H           2.7649    2.2642   30.3363 H         1 COA6        0.0000 
     77 H           2.2632    3.7920   30.3209 H         1 COA6        0.0000 
     78 H          10.1578   -0.9613   33.6799 H         1 COA6        0.0000 
     79 H           0.7659    3.6330   34.1938 H         1 COA6        0.0000 
@<TRIPOS>BOND
     1    2    1 ar   
     2    6    1 ar   
     3    3    2 ar   
     4   49    2 1    
     5    4    3 ar   
     6    5    4 ar   
     7   10    4 1    
     8    6    5 ar   
     9    8    5 1    
    10    7    6 1    
    11   50    7 1    
    12   51    7 1    
    13    9    8 2    
    14   10    9 1    
    15   52    9 1    
    16   11   10 1    
    17   12   11 1    
    18   21   11 1    
    19   53   11 1    
    20   13   12 1    
    21   14   12 1    
    22   54   12 1    
    23   78   13 1    
    24   15   14 1    
    25   20   14 1    
    26   55   14 1    
    27   16   15 1    
    28   17   16 ar   
    29   18   16 ar   
    30   19   16 ar   
    31   21   20 1    
    32   22   20 1    
    33   56   20 1    
    34   23   22 1    
    35   57   22 1    
    36   58   22 1    
    37   24   23 1    
    38   25   24 ar   
    39   26   24 ar   
    40   27   24 1    
    41   28   27 1    
    42   29   28 ar   
    43   30   28 ar   
    44   31   28 1    
    45   33   31 1    
    46   33   32 1    
    47   34   32 1    
    48   35   32 1    
    49   36   32 1    
    50   59   33 1    
    51   60   33 1    
    52   72   34 1    
    53   73   34 1    
    54   74   34 1    
    55   75   35 1    
    56   76   35 1    
    57   77   35 1    
    58   37   36 1    
    59   38   36 1    
    60   61   36 1    
    61   79   37 1    
    62   39   38 2    
    63   40   38 am   
    64   41   40 1    
    65   62   40 1    
    66   42   41 1    
    67   63   41 1    
    68   64   41 1    
    69   43   42 1    
    70   65   42 1    
    71   66   42 1    
    72   44   43 2    
    73   45   43 am   
    74   46   45 1    
    75   67   45 1    
    76   47   46 1    
    77   68   46 1    
    78   69   46 1    
    79   48   47 1    
    80   70   47 1    
    81   71   47 1    
@<TRIPOS>SUBSTRUCTURE
     1 COA6        1 GROUP   
@<TRIPOS>SET

