#    Name: 3dp9_BIG_2_INTS_M
#    Modification time : Mon Mar 24 23:57:02 2014

@<TRIPOS>MOLECULE
3dp9_BIG_2_INTS_M
   94     0     9     0     0
SMALL
NO_CHARGES


@<TRIPOS>ATOM
      1 CA         20.1205  -10.5675    9.8745 C.3       3 GLC5        0.0000 
      2 CA         21.2270   -9.0140    9.7560 C.3       9 GLL5        0.0000 
      3 CA         19.0140  -12.1210    9.9930 C.3       6 GLP5        0.0000 
      4 CA         21.5680   -8.3400    8.0600 C.3       3 GLC5        0.0000 
      5 CA         21.9090   -7.6660    6.3640 C.3       6 GLP5        0.0000 
      6 CA         21.4100   -7.1895    9.8000 C.3       3 GLC5        0.0000 
      7 CA         21.5930   -5.3650    9.8440 C.3       6 GLP5        0.0000 
      8 CA         19.8430   -8.2930   10.8180 C.3       3 GLC5        0.0000 
      9 CA         18.4590   -7.5720   11.8800 C.3       6 GLP5        0.0000 
     10 CA         22.3700   -7.0475   10.4470 C.3       3 GLC5        0.0000 
     11 CA         23.1470   -8.7300   11.0500 C.3       9 GLL5        0.0000 
     12 CA         26.4990   -8.1025   13.1835 C.3       3 GLC5        0.0000 
     13 CA         25.2460   -9.0070   11.8520 C.3       9 GLL5        0.0000 
     14 CA         27.7520   -7.1980   14.5150 C.3       6 GLP5        0.0000 
     15 N          22.0745   -6.1470   16.0925 N.am      2 SEC2        0.0000 
     16 N          20.8970   -7.3180   16.2090 N.am      8 SEL2        0.0000 
     17 N          23.2520   -4.9760   15.9760 N.am      5 SEP2        0.0000 
     18 O          20.7815   -5.6585   15.6860 O.2       1 ALC1        0.0000 
     19 O          20.8970   -7.3180   16.2090 O.2       7 ALL1        0.0000 
     20 O          20.6660   -3.9990   15.1630 O.2       4 ALP1        0.0000 
     21 O          19.9705   -6.2940   16.0545 O.2       1 ALC1        0.0000 
     22 O          19.0440   -5.2700   15.9000 O.2       4 ALP1        0.0000 
     23 CA         19.3975   -8.2535   16.1035 C.3       3 GLC5        0.0000 
     24 CA         21.0040   -8.1740   15.0720 C.3       9 GLL5        0.0000 
     25 CA         17.7910   -8.3330   17.1350 C.3       6 GLP5        0.0000 
     26 CA         18.6400  -12.7440   15.2400 C.3       3 GLC5        0.0000 
     27 CA         20.3880  -11.4340   15.4340 C.3       9 GLL5        0.0000 
     28 CA         16.8920  -14.0540   15.0460 C.3       6 GLP5        0.0000 
     29 CA         19.0895   -9.8835   16.2845 C.3       3 GLC5        0.0000 
     30 CA         23.1900  -12.5750   16.6415 C.3       3 GLC5        0.0000 
     31 CA         21.1630  -12.3430   16.7250 C.3       9 GLL5        0.0000 
     32 CA         25.2170  -12.8070   16.5580 C.3       6 GLP5        0.0000 
     33 CA         18.5000  -13.5655   16.2950 C.3       3 GLC5        0.0000 
     34 CA         20.1080  -13.0770   17.5440 C.3       9 GLL5        0.0000 
     35 CA         20.2515  -14.4970   16.1640 C.3       3 GLC5        0.0000 
     36 CA         20.3950  -15.9170   14.7840 C.3       6 GLP5        0.0000 
     37 CA         21.9420  -15.7965   17.3800 C.3       3 GLC5        0.0000 
     38 CA         21.8790  -14.2970   18.8450 C.3       9 GLL5        0.0000 
     39 CA         22.0050  -17.2960   15.9150 C.3       6 GLP5        0.0000 
     40 CA         23.5480  -13.5520   17.7015 C.3       3 GLC5        0.0000 
     41 CA         24.6365   -9.8300   15.1035 C.3       3 GLC5        0.0000 
     42 CA         23.3610   -8.7360   14.9710 C.3       9 GLL5        0.0000 
     43 CA         25.9120  -10.9240   15.2360 C.3       6 GLP5        0.0000 
     44 O          23.1745   -6.2080   15.1455 O.2       1 ALC1        0.0000 
     45 O          23.0970   -7.4400   14.3150 O.2       7 ALL1        0.0000 
     46 O          23.2520   -4.9760   15.9760 O.2       4 ALP1        0.0000 
     47 CA         22.1160   -6.0120   12.3800 C.3       3 GLC5        0.0000 
     48 CA         21.6610   -7.3700   13.9680 C.3       9 GLL5        0.0000 
     49 CA         22.5710   -4.6540   10.7920 C.3       6 GLP5        0.0000 
     50 CA         19.9550   -6.8505   13.3560 C.3       3 GLC5        0.0000 
     51 CA         18.2490   -6.3310   12.7440 C.3       6 GLP5        0.0000 
     52 CA         25.8515   -7.1915   13.8250 C.3       3 GLC5        0.0000 
     53 CA         23.9510   -7.1850   13.1350 C.3       9 GLL5        0.0000 
     54 CA         25.3055   -6.6490   11.7965 C.3       3 GLC5        0.0000 
     55 CA         26.6600   -6.1130   10.4580 C.3       6 GLP5        0.0000 
     56 O          25.8205  -10.9020    9.6825 O.2       1 ALC1        0.0000 
     57 O          25.0880   -9.8720   10.8100 O.2       7 ALL1        0.0000 
     58 O          26.5530  -11.9320    8.5550 O.2       4 ALP1        0.0000 
     59 O          26.1195  -10.7820   10.7305 O.2       1 ALC1        0.0000 
     60 O          27.1510  -11.6920   10.6510 O.2       4 ALP1        0.0000 
     61 CA         21.0525  -11.2620    9.5940 C.3       3 GLC5        0.0000 
     62 CA         23.0910  -10.4030    9.1950 C.3       9 GLL5        0.0000 
     63 CA         22.5000   -9.0345    7.7795 C.3       3 GLC5        0.0000 
     64 O          23.0185  -12.3545    7.4420 O.2       1 ALC1        0.0000 
     65 O          23.6490  -11.3660    8.4160 O.2       7 ALL1        0.0000 
     66 O          22.3880  -13.3430    6.4680 O.2       4 ALP1        0.0000 
     67 O          25.1010  -11.6490    8.4855 O.2       1 ALC1        0.0000 
     68 N          20.9270  -11.0605    8.3860 N.am      2 SEC2        0.0000 
     69 N          21.8130   -9.9810    9.0030 N.am      8 SEL2        0.0000 
     70 N          20.0410  -12.1400    7.7690 N.am      5 SEP2        0.0000 
     71 CA         24.9357   -9.3212    8.6328 C.3       3 GLC5        0.0000 
     72 CA         26.3970   -8.5590    7.5240 C.3       6 GLP5        0.0000 
     73 CA         25.5469   -7.4321   11.0843 C.3       3 GLC5        0.0000 
     74 CA         19.9870   -8.9090   14.0287 C.3       3 GLC5        0.0000 
     75 CA         21.9940   -9.2740   15.3910 C.3       9 GLL5        0.0000 
     76 CA         18.4750   -9.0940   12.8260 C.3       6 GLP5        0.0000 
     77 CA         23.2628   -9.1205   17.0875 C.3       3 GLC5        0.0000 
     78 CA         23.8480   -9.2360   18.9940 C.3       6 GLP5        0.0000 
     79 CA         23.5665  -10.6715   15.6840 C.3       3 GLC5        0.0000 
     80 CA         25.2960  -11.4290   16.3630 C.3       6 GLP5        0.0000 
     81 CA         21.4170  -11.7405   13.4213 C.3       3 GLC5        0.0000 
     82 CA         21.6800  -10.5540   14.6190 C.3       9 GLL5        0.0000 
     83 CA         21.8000  -12.4870   11.8160 C.3       6 GLP5        0.0000 
     84 CA         19.7545  -10.0440   13.9262 C.3       3 GLC5        0.0000 
     85 CA         21.1003  -13.5812   15.0862 C.3       3 GLC5        0.0000 
     86 CA         21.4250  -15.2740   14.0930 C.3       6 GLP5        0.0000 
     87 CA         18.4703  -12.6280   18.4393 C.3       3 GLC5        0.0000 
     88 CA         16.5700  -12.0010   18.6390 C.3       6 GLP5        0.0000 
     89 CA         22.5410  -12.2175   19.5510 C.3       3 GLC5        0.0000 
     90 CA         20.6330  -13.4330   18.9350 C.3       9 GLL5        0.0000 
     91 CA         23.8260  -10.5700   20.2120 C.3       6 GLP5        0.0000 
     92 CA         20.0306  -11.4078   18.7099 C.3       3 GLC5        0.0000 
     93 CA         19.4270   -9.7440   19.3850 C.3       6 GLP5        0.0000 
     94 CA         23.2973   -6.1885   11.7018 C.3       3 GLC5        0.0000 
@<TRIPOS>BOND
@<TRIPOS>SUBSTRUCTURE
     1 ALC1       18 GROUP        1 X    ALC  0     ROOT ALC X 1
     2 SEC2       15 GROUP        1 X    SEC  0     **** SEC X 2
     3 GLC5        1 GROUP        1 X    GLC  0     **** GLC X 6
     4 ALP1       20 GROUP        1 Y    ALP  0     ROOT ALP Y 8
     5 SEP2       17 GROUP        1 Y    SEP  0     **** SEP Y 9
     6 GLP5        3 GROUP        1 Y    GLP  0     **** GLP Y 13
     7 ALL1       19 GROUP        1 Z    ALL  0     ROOT ALL Z 15
     8 SEL2       16 GROUP        1 Z    SEL  0     **** SEL Z 16
     9 GLL5        2 GROUP        1 Z    GLL  0     **** GLL Z 20
@<TRIPOS>SET

