#    Name: 3dp9_BIG_2_ligand
#    Modification time : Mon Mar 24 23:57:02 2014

@<TRIPOS>MOLECULE
3dp9_BIG_2_ligand
   49    51     1     0     0
SMALL
NO_CHARGES


@<TRIPOS>ATOM
      1 C2         21.2270   -9.0140    9.7560 C.ar      1 BIG301      0.0000 
      2 C5         23.8580   -9.7640   10.2880 C.ar      1 BIG301      0.0000 
      3 C4         23.1470   -8.7300   11.0500 C.ar      1 BIG301      0.0000 
      4 C8         25.2460   -9.0070   11.8520 C.2       1 BIG301      0.0000 
      5 O3'        20.8970   -7.3180   16.2090 O.3       1 BIG301      0.0000 
      6 C3'        21.0040   -8.1740   15.0720 C.3       1 BIG301      0.0000 
      7 C4'        21.9940   -9.2740   15.3910 C.3       1 BIG301      0.0000 
      8 C5'        21.6800  -10.5540   14.6190 C.3       1 BIG301      0.0000 
      9 S5'        20.3880  -11.4340   15.4340 S.3       1 BIG301      0.0000 
     10 C20        21.1630  -12.3430   16.7250 C.3       1 BIG301      0.0000 
     11 C21        20.1080  -13.0770   17.5440 C.3       1 BIG301      0.0000 
     12 C22        20.6330  -13.4330   18.9350 C.3       1 BIG301      0.0000 
     13 C23        21.8790  -14.2970   18.8450 C.3       1 BIG301      0.0000 
     14 C1'        23.3610   -8.7360   14.9710 C.3       1 BIG301      0.0000 
     15 N1'        23.0970   -7.4400   14.3150 N.4       1 BIG301      0.0000 
     16 C2'        21.6610   -7.3700   13.9680 C.3       1 BIG301      0.0000 
     17 C10        23.9510   -7.1850   13.1350 C.3       1 BIG301      0.0000 
     18 N7         25.0880   -9.8720   10.8100 N.pl3     1 BIG301      0.0000 
     19 C6         23.0910  -10.4030    9.1950 C.ar      1 BIG301      0.0000 
     20 N6         23.6490  -11.3660    8.4160 N.pl3     1 BIG301      0.0000 
     21 N3         21.8550   -8.3880   10.7690 N.ar      1 BIG301      0.0000 
     22 C9         24.0960   -8.2610   12.0880 C.2       1 BIG301      0.0000 
     23 N1         21.8130   -9.9810    9.0030 N.ar      1 BIG301      0.0000 
     24 H          20.2247   -8.7423    9.5305 H         1 BIG301      0.0000 
     25 H          26.0642   -8.9114   12.3797 H         1 BIG301      0.0000 
     26 H          20.1109   -8.5691   14.7451 H         1 BIG301      0.0000 
     27 H          22.0029   -9.4593   16.4333 H         1 BIG301      0.0000 
     28 H          22.4883  -11.2438   14.6122 H         1 BIG301      0.0000 
     29 H          21.2851  -10.3684   13.6501 H         1 BIG301      0.0000 
     30 H          21.6792  -11.5983   17.2831 H         1 BIG301      0.0000 
     31 H          21.8219  -13.0010   16.2098 H         1 BIG301      0.0000 
     32 H          19.8208  -13.9928   17.0251 H         1 BIG301      0.0000 
     33 H          19.2253  -12.4438   17.6463 H         1 BIG301      0.0000 
     34 H          19.8570  -13.9701   19.4821 H         1 BIG301      0.0000 
     35 H          20.8663  -12.5137   19.4739 H         1 BIG301      0.0000 
     36 H          23.8117   -9.4292   14.2857 H         1 BIG301      0.0000 
     37 H          23.9679   -8.6068   15.8475 H         1 BIG301      0.0000 
     38 H          23.2885   -6.6402   15.0625 H         1 BIG301      0.0000 
     39 H          21.3097   -6.3660   14.0043 H         1 BIG301      0.0000 
     40 H          21.4734   -7.8372   13.0303 H         1 BIG301      0.0000 
     41 H          24.9900   -6.9003   13.4865 H         1 BIG301      0.0000 
     42 H          23.5927   -6.2428   12.6173 H         1 BIG301      0.0000 
     43 H          25.7853  -10.4833   10.4957 H         1 BIG301      0.0000 
     44 H          23.0853  -11.7036    7.6622 H         1 BIG301      0.0000 
     45 H          24.5742  -11.6522    8.6652 H         1 BIG301      0.0000 
     46 H          22.6186  -13.8325   18.3580 H         1 BIG301      0.0000 
     47 H          22.2299  -14.5381   19.7498 H         1 BIG301      0.0000 
     48 H          21.7024  -15.1541   18.3611 H         1 BIG301      0.0000 
     49 H          20.2151   -6.6326   15.9535 H         1 BIG301      0.0000 
@<TRIPOS>BOND
     1   21    1 ar   
     2   23    1 ar   
     3   24    1 1    
     4    3    2 ar   
     5   18    2 1    
     6   19    2 ar   
     7   21    3 ar   
     8   22    3 1    
     9   18    4 1    
    10   22    4 2    
    11   25    4 1    
    12    6    5 1    
    13   49    5 1    
    14    7    6 1    
    15   16    6 1    
    16   26    6 1    
    17    8    7 1    
    18   14    7 1    
    19   27    7 1    
    20    9    8 1    
    21   28    8 1    
    22   29    8 1    
    23   10    9 1    
    24   11   10 1    
    25   30   10 1    
    26   31   10 1    
    27   12   11 1    
    28   32   11 1    
    29   33   11 1    
    30   13   12 1    
    31   34   12 1    
    32   35   12 1    
    33   46   13 1    
    34   47   13 1    
    35   48   13 1    
    36   15   14 1    
    37   36   14 1    
    38   37   14 1    
    39   16   15 1    
    40   17   15 1    
    41   38   15 1    
    42   39   16 1    
    43   40   16 1    
    44   22   17 1    
    45   41   17 1    
    46   42   17 1    
    47   43   18 1    
    48   20   19 1    
    49   23   19 ar   
    50   44   20 1    
    51   45   20 1    
@<TRIPOS>SUBSTRUCTURE
     1 BIG301      1 GROUP   
@<TRIPOS>SET

