#    Name: 2w8g_BS2_3_INTS_M
#    Modification time : Tue Mar 25 03:45:46 2014

@<TRIPOS>MOLECULE
2w8g_BS2_3_INTS_M
   40     0     3     0     0
SMALL
NO_CHARGES


@<TRIPOS>ATOM
      1 CA         29.3985  -27.5250   32.1540 C.3       1 GLC5        0.0000 
      2 CA         31.5600  -27.4000   32.3360 C.3       3 GLL5        0.0000 
      3 CA         27.2370  -27.6500   31.9720 C.3       2 GLP5        0.0000 
      4 CA         32.8340  -23.2140   33.9475 C.3       1 GLC5        0.0000 
      5 CA         33.2130  -24.2110   32.3670 C.3       3 GLL5        0.0000 
      6 CA         32.4550  -22.2170   35.5280 C.3       2 GLP5        0.0000 
      7 CA         33.0065  -26.9660   28.3695 C.3       1 GLC5        0.0000 
      8 CA         33.6460  -26.0950   29.8560 C.3       3 GLL5        0.0000 
      9 CA         32.3670  -27.8370   26.8830 C.3       2 GLP5        0.0000 
     10 CA         33.4625  -24.6240   27.3290 C.3       1 GLC5        0.0000 
     11 CA         34.5710  -23.4940   28.9220 C.3       3 GLL5        0.0000 
     12 CA         32.3540  -25.7540   25.7360 C.3       2 GLP5        0.0000 
     13 CA         38.6340  -19.5740   29.4680 C.3       1 GLC5        0.0000 
     14 CA         36.8430  -19.9960   29.8900 C.3       3 GLL5        0.0000 
     15 CA         40.4250  -19.1520   29.0460 C.3       2 GLP5        0.0000 
     16 CA         32.8710  -20.4235   28.7775 C.3       1 GLC5        0.0000 
     17 CA         34.7410  -20.9970   29.4130 C.3       3 GLL5        0.0000 
     18 CA         31.0010  -19.8500   28.1420 C.3       2 GLP5        0.0000 
     19 CA         29.5875  -25.9480   36.5973 C.3       1 GLC5        0.0000 
     20 CA         29.2210  -27.5890   35.3160 C.3       3 GLL5        0.0000 
     21 CA         29.5850  -23.9750   37.3880 C.3       2 GLP5        0.0000 
     22 CA         34.2150  -32.3588   31.9690 C.3       1 GLC5        0.0000 
     23 CA         33.6310  -30.5470   31.5420 C.3       3 GLL5        0.0000 
     24 CA         35.1340  -33.9330   32.9590 C.3       2 GLP5        0.0000 
     25 CA         29.8533  -30.2623   30.0910 C.3       1 GLC5        0.0000 
     26 CA         31.8740  -30.3240   29.9490 C.3       3 GLL5        0.0000 
     27 CA         28.0440  -30.7840   29.9160 C.3       2 GLP5        0.0000 
     28 CA         31.2843  -25.6625   28.5750 C.3       1 GLC5        0.0000 
     29 CA         31.5990  -24.9540   30.6500 C.3       3 GLL5        0.0000 
     30 CA         30.3990  -26.4050   27.0000 C.3       2 GLP5        0.0000 
     31 CA         35.5168  -27.1313   29.9560 C.3       1 GLC5        0.0000 
     32 CA         36.8860  -28.3940   29.5220 C.3       2 GLP5        0.0000 
     33 CA         36.4273  -23.2067   28.2320 C.3       1 GLC5        0.0000 
     34 CA         37.8790  -23.5530   27.3710 C.3       2 GLP5        0.0000 
     35 CA         38.9607  -21.3193   29.6112 C.3       1 GLC5        0.0000 
     36 CA         36.7440  -22.3370   29.4450 C.3       3 GLL5        0.0000 
     37 CA         40.8020  -20.8630   29.6280 C.3       2 GLP5        0.0000 
     38 CA         35.5945  -18.4010   28.5918 C.3       1 GLC5        0.0000 
     39 CA         35.0350  -16.8720   27.3780 C.3       2 GLP5        0.0000 
     40 CA         37.4301  -22.2194   28.5566 C.3       1 GLC5        0.0000 
@<TRIPOS>BOND
@<TRIPOS>SUBSTRUCTURE
     1 GLC5        1 GROUP        1 X    GLC  0     ROOT GLC X 6
     2 GLP5        3 GROUP        1 Y    GLP  0     ROOT GLP Y 13
     3 GLL5        2 GROUP        1 Z    GLL  0     ROOT GLL Z 20
@<TRIPOS>SET

