#    Name: 2w8g_BS2_3_ligand
#    Modification time : Tue Mar 25 03:45:46 2014

@<TRIPOS>MOLECULE
2w8g_BS2_3_ligand
   63    68     1     0     0
SMALL
NO_CHARGES


@<TRIPOS>ATOM
      1 CAY        31.1390  -27.7410   33.7930 C.ar      1 BS21206     0.0000 
      2 CAL        29.8170  -27.3400   34.0810 C.ar      1 BS21206     0.0000 
      3 CAF        29.2210  -27.5890   35.3160 C.ar      1 BS21206     0.0000 
      4 CAD        29.9590  -28.2530   36.2970 C.ar      1 BS21206     0.0000 
      5 CAJ        31.2630  -28.6680   36.0190 C.ar      1 BS21206     0.0000 
      6 CAW        31.8630  -28.4190   34.7690 C.ar      1 BS21206     0.0000 
      7 CAN        33.2810  -28.9990   34.7330 C.3       1 BS21206     0.0000 
      8 CAO        34.0350  -29.0280   33.4070 C.3       1 BS21206     0.0000 
      9 CAX        33.1960  -29.4030   32.1910 C.ar      1 BS21206     0.0000 
     10 CAK        33.6310  -30.5470   31.5420 C.ar      1 BS21206     0.0000 
     11 CAE        32.9610  -31.0220   30.4160 C.ar      1 BS21206     0.0000 
     12 CAG        31.8740  -30.3240   29.9490 C.ar      1 BS21206     0.0000 
     13 CAM        31.4510  -29.1570   30.5830 C.ar      1 BS21206     0.0000 
     14 CAZ        32.1190  -28.6900   31.7110 C.ar      1 BS21206     0.0000 
     15 CBD        31.5600  -27.4000   32.3360 C.3       1 BS21206     0.0000 
     16 OAU        32.6190  -26.4580   32.2290 O.3       1 BS21206     0.0000 
     17 CBA        32.0970  -25.1900   32.0830 C.3       1 BS21206     0.0000 
     18 CAT        31.5990  -24.9540   30.6500 C.3       1 BS21206     0.0000 
     19 CAS        33.2130  -24.2110   32.3670 C.3       1 BS21206     0.0000 
     20 CBB        34.2390  -24.2040   31.2320 C.3       1 BS21206     0.0000 
     21 CAP        34.6490  -25.6420   30.9240 C.3       1 BS21206     0.0000 
     22 CAQ        33.6460  -26.0950   29.8560 C.3       1 BS21206     0.0000 
     23 CBC        32.7400  -24.8860   29.6500 C.3       1 BS21206     0.0000 
     24 NBE        33.5790  -23.7480   30.0030 N.4       1 BS21206     0.0000 
     25 CAR        34.5710  -23.4940   28.9220 C.3       1 BS21206     0.0000 
     26 CAV        35.3800  -22.2270   29.2640 C.ar      1 BS21206     0.0000 
     27 CAH        36.7440  -22.3370   29.4450 C.ar      1 BS21206     0.0000 
     28 CAB        37.4950  -21.2140   29.7440 C.ar      1 BS21206     0.0000 
     29 CAA        36.8430  -19.9960   29.8900 C.ar      1 BS21206     0.0000 
     30 CAC        35.4650  -19.8640   29.7210 C.ar      1 BS21206     0.0000 
     31 CAI        34.7410  -20.9970   29.4130 C.ar      1 BS21206     0.0000 
     32 H          29.2773  -26.8442   33.3446 H         1 BS21206     0.0000 
     33 H          28.2643  -27.2922   35.5002 H         1 BS21206     0.0000 
     34 H          29.5464  -28.4352   37.2166 H         1 BS21206     0.0000 
     35 H          31.8049  -29.1698   36.7436 H         1 BS21206     0.0000 
     36 H          33.2405  -30.0470   35.1407 H         1 BS21206     0.0000 
     37 H          33.9061  -28.4410   35.4840 H         1 BS21206     0.0000 
     38 H          34.8792  -29.7414   33.4925 H         1 BS21206     0.0000 
     39 H          34.4901  -28.0321   33.2339 H         1 BS21206     0.0000 
     40 H          34.4589  -31.0551   31.8929 H         1 BS21206     0.0000 
     41 H          33.2800  -31.8755   29.9525 H         1 BS21206     0.0000 
     42 H          31.3571  -30.6612   29.1173 H         1 BS21206     0.0000 
     43 H          30.6412  -28.6392   30.2147 H         1 BS21206     0.0000 
     44 H          30.6994  -27.1271   31.7765 H         1 BS21206     0.0000 
     45 H          31.2928  -24.9822   32.7579 H         1 BS21206     0.0000 
     46 H          31.0339  -24.0167   30.6228 H         1 BS21206     0.0000 
     47 H          30.9202  -25.7674   30.3740 H         1 BS21206     0.0000 
     48 H          33.7149  -24.4856   33.2961 H         1 BS21206     0.0000 
     49 H          32.8012  -23.2067   32.4780 H         1 BS21206     0.0000 
     50 H          35.0660  -23.6359   31.4691 H         1 BS21206     0.0000 
     51 H          34.5410  -26.2423   31.7919 H         1 BS21206     0.0000 
     52 H          35.6304  -25.6596   30.5216 H         1 BS21206     0.0000 
     53 H          33.0789  -26.9141   30.2247 H         1 BS21206     0.0000 
     54 H          34.1621  -26.3188   28.9549 H         1 BS21206     0.0000 
     55 H          32.4013  -24.8466   28.6808 H         1 BS21206     0.0000 
     56 H          32.9866  -22.9002   30.1965 H         1 BS21206     0.0000 
     57 H          34.0691  -23.3355   27.9734 H         1 BS21206     0.0000 
     58 H          35.2596  -24.3276   28.8327 H         1 BS21206     0.0000 
     59 H          37.2047  -23.2554   29.3577 H         1 BS21206     0.0000 
     60 H          38.5073  -21.2765   29.8555 H         1 BS21206     0.0000 
     61 H          37.4019  -19.1489   30.1346 H         1 BS21206     0.0000 
     62 H          35.0157  -18.9597   29.8229 H         1 BS21206     0.0000 
     63 H          33.7166  -20.9403   29.2904 H         1 BS21206     0.0000 
@<TRIPOS>BOND
     1    2    1 ar   
     2    6    1 ar   
     3   15    1 1    
     4    3    2 ar   
     5   32    2 1    
     6    4    3 ar   
     7   33    3 1    
     8    5    4 ar   
     9   34    4 1    
    10    6    5 ar   
    11   35    5 1    
    12    7    6 1    
    13    8    7 1    
    14   36    7 1    
    15   37    7 1    
    16    9    8 1    
    17   38    8 1    
    18   39    8 1    
    19   10    9 ar   
    20   14    9 ar   
    21   11   10 ar   
    22   40   10 1    
    23   12   11 ar   
    24   41   11 1    
    25   13   12 ar   
    26   42   12 1    
    27   14   13 ar   
    28   43   13 1    
    29   15   14 1    
    30   16   15 1    
    31   44   15 1    
    32   17   16 1    
    33   18   17 1    
    34   19   17 1    
    35   45   17 1    
    36   23   18 1    
    37   46   18 1    
    38   47   18 1    
    39   20   19 1    
    40   48   19 1    
    41   49   19 1    
    42   21   20 1    
    43   24   20 1    
    44   50   20 1    
    45   22   21 1    
    46   51   21 1    
    47   52   21 1    
    48   23   22 1    
    49   53   22 1    
    50   54   22 1    
    51   24   23 1    
    52   55   23 1    
    53   25   24 1    
    54   56   24 1    
    55   26   25 1    
    56   57   25 1    
    57   58   25 1    
    58   27   26 ar   
    59   31   26 ar   
    60   28   27 ar   
    61   59   27 1    
    62   29   28 ar   
    63   60   28 1    
    64   30   29 ar   
    65   61   29 1    
    66   31   30 ar   
    67   62   30 1    
    68   63   31 1    
@<TRIPOS>SUBSTRUCTURE
     1 BS21206     1 GROUP   
@<TRIPOS>SET

