#    Name: 1iiu_RTL_1_INTS_M
#    Modification time : Tue Mar 25 07:08:58 2014

@<TRIPOS>MOLECULE
1iiu_RTL_1_INTS_M
   69     0     6     0     0
SMALL
NO_CHARGES


@<TRIPOS>ATOM
      1 CA         -2.6485    6.0220   -6.9835 C.3       2 GLC5        0.0000 
      2 CA         -1.0560    5.6970   -5.8750 C.3       6 GLL5        0.0000 
      3 CA         -4.2410    6.3470   -8.0920 C.3       4 GLP5        0.0000 
      4 CA          1.2435    3.7155   -4.8910 C.3       2 GLC5        0.0000 
      5 CA         -0.3930    3.1540   -6.1500 C.3       6 GLL5        0.0000 
      6 CA          2.8800    4.2770   -3.6320 C.3       4 GLP5        0.0000 
      7 CA         -3.5380    2.8880   -5.0785 C.3       2 GLC5        0.0000 
      8 CA         -1.4410    2.4280   -5.6370 C.3       6 GLL5        0.0000 
      9 CA         -5.6350    3.3480   -4.5200 C.3       4 GLP5        0.0000 
     10 CA         -6.4115   -5.3460   -2.2180 C.3       2 GLC5        0.0000 
     11 CA         -6.5920   -3.4910   -2.3100 C.3       6 GLL5        0.0000 
     12 CA         -6.2310   -7.2010   -2.1260 C.3       4 GLP5        0.0000 
     13 CA         -5.4265   -2.9935   -0.9200 C.3       2 GLC5        0.0000 
     14 CA         -4.2610   -2.4960    0.4700 C.3       4 GLP5        0.0000 
     15 N          -7.0765   -2.4565   -0.3240 N.am      1 SEC2        0.0000 
     16 N          -7.7300   -3.3660   -1.4860 N.am      5 SEL2        0.0000 
     17 N          -6.4230   -1.5470    0.8380 N.am      3 SEP2        0.0000 
     18 CA          2.4650    4.2240   -5.6595 C.3       2 GLC5        0.0000 
     19 CA          2.0500    4.1710   -7.6870 C.3       6 GLL5        0.0000 
     20 CA          2.9690    2.1200   -7.6450 C.3       2 GLC5        0.0000 
     21 CA          3.8880    0.0690   -7.6030 C.3       4 GLP5        0.0000 
     22 CA          1.7195    2.6180   -9.0530 C.3       2 GLC5        0.0000 
     23 CA          1.3890    1.0650  -10.4190 C.3       4 GLP5        0.0000 
     24 CA          0.6860    2.6370   -9.7345 C.3       2 GLC5        0.0000 
     25 CA         -0.0170    4.2090   -9.0500 C.3       6 GLL5        0.0000 
     26 CA          0.8345    4.9580  -10.8705 C.3       2 GLC5        0.0000 
     27 CA          1.6860    5.7070  -12.6910 C.3       4 GLP5        0.0000 
     28 CA         -0.6525    7.3415   -2.9680 C.3       2 GLC5        0.0000 
     29 CA         -0.7360    5.8820   -4.3780 C.3       6 GLL5        0.0000 
     30 CA         -0.5690    8.8010   -1.5580 C.3       4 GLP5        0.0000 
     31 CA         -0.7905    5.2115   -2.6090 C.3       2 GLC5        0.0000 
     32 CA         -0.8450    4.5410   -0.8400 C.3       4 GLP5        0.0000 
     33 CA         -0.5605    0.6220   -2.7025 C.3       2 GLC5        0.0000 
     34 CA         -0.1200    0.5280   -4.5780 C.3       6 GLL5        0.0000 
     35 CA         -1.0010    0.7160   -0.8270 C.3       4 GLP5        0.0000 
     36 CA         -4.8850   -5.3800   -3.8035 C.3       2 GLC5        0.0000 
     37 CA         -4.0770   -3.4840   -4.0710 C.3       6 GLL5        0.0000 
     38 CA         -5.6930   -7.2760   -3.5360 C.3       4 GLP5        0.0000 
     39 CA         -3.5380   -4.2720   -5.4870 C.3       2 GLC5        0.0000 
     40 CA         -2.9990   -5.0600   -6.9030 C.3       4 GLP5        0.0000 
     41 CA         -0.6680    7.7090   -9.5290 C.3       2 GLC5        0.0000 
     42 CA          0.8280    6.3200   -8.2840 C.3       6 GLL5        0.0000 
     43 CA         -1.7850    8.5280  -11.1160 C.3       4 GLP5        0.0000 
     44 CA          1.4930    8.4575   -8.7190 C.3       2 GLC5        0.0000 
     45 CA          0.0700    7.4600   -7.6000 C.3       6 GLL5        0.0000 
     46 CA          2.5370   10.0250   -9.4960 C.3       4 GLP5        0.0000 
     47 CA         -0.4025    9.1728   -6.7242 C.3       2 GLC5        0.0000 
     48 CA         -0.4060   11.0430   -6.4430 C.3       4 GLP5        0.0000 
     49 CA         -2.3200    6.8247   -7.5488 C.3       2 GLC5        0.0000 
     50 CA         -0.1353   -0.7730   -6.0585 C.3       2 GLC5        0.0000 
     51 CA         -1.3730    1.0560   -5.3620 C.3       6 GLL5        0.0000 
     52 CA          0.4760   -2.3380   -7.1470 C.3       4 GLP5        0.0000 
     53 CA         -2.9665    1.2027   -6.8604 C.3       2 GLC5        0.0000 
     54 CA         -2.6770    0.6430   -4.8720 C.3       6 GLL5        0.0000 
     55 CA         -3.8910    1.2130   -8.5350 C.3       4 GLP5        0.0000 
     56 CA         -1.9317    0.3678   -2.7630 C.3       2 GLC5        0.0000 
     57 CA         -4.1370   -0.4143   -6.2828 C.3       2 GLC5        0.0000 
     58 CA         -3.0480   -0.6040   -4.5260 C.3       6 GLL5        0.0000 
     59 CA         -4.5900   -0.0990   -8.2510 C.3       4 GLP5        0.0000 
     60 CA         -4.2856    0.9066   -3.2130 C.3       2 GLC5        0.0000 
     61 CA         -4.3200   -0.8550   -4.1030 C.3       6 GLL5        0.0000 
     62 CA         -4.9800    2.2310   -2.0250 C.3       4 GLP5        0.0000 
     63 CA         -4.8200   -2.3360   -1.3847 C.3       2 GLC5        0.0000 
     64 CA         -4.7930   -2.1540   -3.6640 C.3       6 GLL5        0.0000 
     65 CA         -8.1297   -1.9118   -2.3282 C.3       2 GLC5        0.0000 
     66 CA         -5.9650   -2.1980   -2.8150 C.3       6 GLL5        0.0000 
     67 CA         -9.9810   -0.9790   -2.0940 C.3       4 GLP5        0.0000 
     68 CA          0.9855    5.7599   -4.5759 C.3       2 GLC5        0.0000 
     69 CA          2.6720    6.0020   -3.8500 C.3       4 GLP5        0.0000 
@<TRIPOS>BOND
@<TRIPOS>SUBSTRUCTURE
     1 SEC2       15 GROUP        1 X    SEC  0     ROOT SEC X 2
     2 GLC5        1 GROUP        1 X    GLC  0     **** GLC X 6
     3 SEP2       17 GROUP        1 Y    SEP  0     ROOT SEP Y 9
     4 GLP5        3 GROUP        1 Y    GLP  0     **** GLP Y 13
     5 SEL2       16 GROUP        1 Z    SEL  0     ROOT SEL Z 16
     6 GLL5        2 GROUP        1 Z    GLL  0     **** GLL Z 20
@<TRIPOS>SET

