#    Name: 1iiu_RTL_1_ligand
#    Modification time : Tue Mar 25 07:08:58 2014

@<TRIPOS>MOLECULE
1iiu_RTL_1_ligand
   51    51     1     0     0
SMALL
NO_CHARGES


@<TRIPOS>ATOM
      1 C1          0.6330    4.8620   -7.8030 C.3       1 RTL176      0.0000 
      2 C2          0.8280    6.3200   -8.2840 C.3       1 RTL176      0.0000 
      3 C3          0.0700    7.4600   -7.6000 C.3       1 RTL176      0.0000 
      4 C4         -0.8680    7.1450   -6.4110 C.3       1 RTL176      0.0000 
      5 C5         -1.0560    5.6970   -5.8750 C.2       1 RTL176      0.0000 
      6 C6         -0.2760    4.6100   -6.5760 C.2       1 RTL176      0.0000 
      7 C7         -0.3930    3.1540   -6.1500 C.2       1 RTL176      0.0000 
      8 C8         -1.4410    2.4280   -5.6370 C.2       1 RTL176      0.0000 
      9 C9         -1.3730    1.0560   -5.3620 C.2       1 RTL176      0.0000 
     10 C10        -2.6770    0.6430   -4.8720 C.2       1 RTL176      0.0000 
     11 C11        -3.0480   -0.6040   -4.5260 C.2       1 RTL176      0.0000 
     12 C12        -4.3200   -0.8550   -4.1030 C.2       1 RTL176      0.0000 
     13 C13        -4.7930   -2.1540   -3.6640 C.2       1 RTL176      0.0000 
     14 C14        -5.9650   -2.1980   -2.8150 C.2       1 RTL176      0.0000 
     15 C15        -6.5920   -3.4910   -2.3100 C.3       1 RTL176      0.0000 
     16 O1         -7.7300   -3.3660   -1.4860 O.3       1 RTL176      0.0000 
     17 C16         2.0500    4.1710   -7.6870 C.3       1 RTL176      0.0000 
     18 C17        -0.0170    4.2090   -9.0500 C.3       1 RTL176      0.0000 
     19 C18        -0.7360    5.8820   -4.3780 C.3       1 RTL176      0.0000 
     20 C19        -0.1200    0.5280   -4.5780 C.3       1 RTL176      0.0000 
     21 C20        -4.0770   -3.4840   -4.0710 C.3       1 RTL176      0.0000 
     22 H           0.5956    6.3509   -9.3874 H         1 RTL176      0.0000 
     23 H           1.9313    6.5507   -8.2402 H         1 RTL176      0.0000 
     24 H          -0.5333    8.0038   -8.3792 H         1 RTL176      0.0000 
     25 H           0.8176    8.2271   -7.2543 H         1 RTL176      0.0000 
     26 H          -1.8966    7.5518   -6.6628 H         1 RTL176      0.0000 
     27 H          -0.5502    7.7939   -5.5365 H         1 RTL176      0.0000 
     28 H           0.5613    2.6262   -6.2983 H         1 RTL176      0.0000 
     29 H          -2.3515    2.9210   -5.4354 H         1 RTL176      0.0000 
     30 H          -3.3892    1.4430   -4.7920 H         1 RTL176      0.0000 
     31 H          -2.3632   -1.3895   -4.5791 H         1 RTL176      0.0000 
     32 H          -5.0314   -0.0778   -4.0808 H         1 RTL176      0.0000 
     33 H          -6.4195   -1.3282   -2.5213 H         1 RTL176      0.0000 
     34 H          -5.7731   -4.0672   -1.7882 H         1 RTL176      0.0000 
     35 H          -6.8157   -4.1208   -3.2200 H         1 RTL176      0.0000 
     36 H           2.5279    4.1539   -8.5653 H         1 RTL176      0.0000 
     37 H           2.6440    4.6482   -7.0393 H         1 RTL176      0.0000 
     38 H           1.9769    3.2238   -7.3747 H         1 RTL176      0.0000 
     39 H           0.6372    4.1070   -9.7994 H         1 RTL176      0.0000 
     40 H          -0.3754    3.2976   -8.8477 H         1 RTL176      0.0000 
     41 H          -0.7800    4.7531   -9.3990 H         1 RTL176      0.0000 
     42 H           0.2379    6.0493   -4.2243 H         1 RTL176      0.0000 
     43 H          -1.2320    6.6564   -3.9851 H         1 RTL176      0.0000 
     44 H          -0.9826    5.0740   -3.8429 H         1 RTL176      0.0000 
     45 H           0.7309    0.7131   -5.0697 H         1 RTL176      0.0000 
     46 H          -0.0375    0.9560   -3.6780 H         1 RTL176      0.0000 
     47 H          -0.1639   -0.4600   -4.4298 H         1 RTL176      0.0000 
     48 H          -3.1285   -3.5069   -3.7549 H         1 RTL176      0.0000 
     49 H          -4.5341   -4.2851   -3.6847 H         1 RTL176      0.0000 
     50 H          -4.0584   -3.6072   -5.0632 H         1 RTL176      0.0000 
     51 H          -7.9537   -2.5697   -2.0482 H         1 RTL176      0.0000 
@<TRIPOS>BOND
     1    2    1 1    
     2    6    1 1    
     3   17    1 1    
     4   18    1 1    
     5    3    2 1    
     6   22    2 1    
     7   23    2 1    
     8    4    3 1    
     9   24    3 1    
    10   25    3 1    
    11    5    4 1    
    12   26    4 1    
    13   27    4 1    
    14    6    5 2    
    15   19    5 1    
    16    7    6 1    
    17    8    7 2    
    18   28    7 1    
    19    9    8 1    
    20   29    8 1    
    21   10    9 2    
    22   20    9 1    
    23   11   10 1    
    24   30   10 1    
    25   12   11 2    
    26   31   11 1    
    27   13   12 1    
    28   32   12 1    
    29   14   13 2    
    30   21   13 1    
    31   15   14 1    
    32   33   14 1    
    33   16   15 1    
    34   34   15 1    
    35   35   15 1    
    36   51   16 1    
    37   36   17 1    
    38   37   17 1    
    39   38   17 1    
    40   39   18 1    
    41   40   18 1    
    42   41   18 1    
    43   42   19 1    
    44   43   19 1    
    45   44   19 1    
    46   45   20 1    
    47   46   20 1    
    48   47   20 1    
    49   48   21 1    
    50   49   21 1    
    51   50   21 1    
@<TRIPOS>SUBSTRUCTURE
     1 RTL176      1 GROUP   
@<TRIPOS>SET

