#    Name: 3vbg_03M_3_INTS_M
#    Modification time : Tue Mar 25 00:28:10 2014

@<TRIPOS>MOLECULE
3vbg_03M_3_INTS_M
   59     0     9     0     0
SMALL
NO_CHARGES


@<TRIPOS>ATOM
      1 CA         22.6645  -38.6200  -37.3790 C.3       3 GLC5        0.0000 
      2 CA         22.7080  -36.6410  -37.2790 C.3       9 GLL5        0.0000 
      3 CA         22.6210  -40.5990  -37.4790 C.3       6 GLP5        0.0000 
      4 CA         26.0840  -33.0535  -35.3185 C.3       3 GLC5        0.0000 
      5 CA         24.9100  -34.3250  -35.5690 C.3       9 GLL5        0.0000 
      6 CA         27.2580  -31.7820  -35.0680 C.3       6 GLP5        0.0000 
      7 CA         23.9785  -38.6125  -35.4915 C.3       3 GLC5        0.0000 
      8 CA         24.7010  -36.8030  -34.8920 C.3       9 GLL5        0.0000 
      9 CA         23.2560  -40.4220  -36.0910 C.3       6 GLP5        0.0000 
     10 CA         25.7835  -37.2415  -36.2590 C.3       3 GLC5        0.0000 
     11 CA         26.8660  -37.6800  -37.6260 C.3       6 GLP5        0.0000 
     12 CA         26.3290  -41.6005  -28.2940 C.3       3 GLC5        0.0000 
     13 CA         25.7570  -39.5920  -28.7080 C.3       9 GLL5        0.0000 
     14 CA         26.9010  -43.6090  -27.8800 C.3       6 GLP5        0.0000 
     15 CA         20.1970  -37.2375  -39.1745 C.3       3 GLC5        0.0000 
     16 CA         21.8890  -36.3310  -38.3380 C.3       9 GLL5        0.0000 
     17 CA         18.5050  -38.1440  -40.0110 C.3       6 GLP5        0.0000 
     18 CA         22.7300  -38.3625  -38.4990 C.3       3 GLC5        0.0000 
     19 CA         23.5710  -40.3940  -38.6600 C.3       6 GLP5        0.0000 
     20 O          24.9880  -32.3110  -37.2565 O.2       1 ALC1        0.0000 
     21 O          24.3100  -33.5390  -36.5300 O.2       7 ALL1        0.0000 
     22 O          25.6660  -31.0830  -37.9830 O.2       4 ALP1        0.0000 
     23 CA         26.8320  -37.1525  -35.2975 C.3       3 GLC5        0.0000 
     24 CA         25.8430  -36.9000  -33.9430 C.3       9 GLL5        0.0000 
     25 CA         27.8210  -37.4050  -36.6520 C.3       6 GLP5        0.0000 
     26 N          28.3575  -34.6845  -32.9725 N.am      2 SEC2        0.0000 
     27 N          28.5680  -35.8960  -32.2850 N.am      8 SEL2        0.0000 
     28 N          28.1470  -33.4730  -33.6600 N.am      5 SEP2        0.0000 
     29 CA         27.0000  -35.7930  -25.9650 C.3       3 GLC5        0.0000 
     30 CA         27.8730  -37.1270  -27.0190 C.3       9 GLL5        0.0000 
     31 CA         26.1270  -34.4590  -24.9110 C.3       6 GLP5        0.0000 
     32 CA         28.9835  -36.2625  -25.8750 C.3       3 GLC5        0.0000 
     33 CA         30.0940  -35.3980  -24.7310 C.3       6 GLP5        0.0000 
     34 CA         25.9520  -36.5610  -25.6860 C.3       3 GLC5        0.0000 
     35 CA         25.7770  -38.6630  -26.4610 C.3       9 GLL5        0.0000 
     36 CA         21.8605  -31.4330  -40.3345 C.3       3 GLC5        0.0000 
     37 CA         22.5810  -32.5910  -38.9390 C.3       9 GLL5        0.0000 
     38 CA         21.1400  -30.2750  -41.7300 C.3       6 GLP5        0.0000 
     39 CA         19.6270  -36.4425  -40.0810 C.3       3 GLC5        0.0000 
     40 CA         20.7490  -34.7410  -40.1510 C.3       9 GLL5        0.0000 
     41 CA         20.8890  -35.5315  -41.8860 C.3       3 GLC5        0.0000 
     42 CA         21.0290  -36.3220  -43.6210 C.3       6 GLP5        0.0000 
     43 CA         20.6127  -37.0820  -36.8948 C.3       3 GLC5        0.0000 
     44 CA         18.9270  -37.6780  -35.9810 C.3       6 GLP5        0.0000 
     45 CA         24.3765  -40.0910  -29.8805 C.3       3 GLC5        0.0000 
     46 CA         26.2970  -39.5800  -29.9660 C.3       9 GLL5        0.0000 
     47 CA         22.7260  -40.5960  -30.4240 C.3       6 GLP5        0.0000 
     48 CA         22.6085  -36.4338  -40.1635 C.3       3 GLC5        0.0000 
     49 CA         23.3450  -37.1910  -41.7520 C.3       6 GLP5        0.0000 
     50 CA         24.9062  -34.3253  -38.7368 C.3       3 GLC5        0.0000 
     51 CA         22.6210  -33.9810  -38.3180 C.3       9 GLL5        0.0000 
     52 CA         26.7820  -34.5140  -39.6860 C.3       6 GLP5        0.0000 
     53 CA         27.5874  -35.9700  -28.1591 C.3       3 GLC5        0.0000 
     54 CA         27.3500  -37.9040  -27.9690 C.3       9 GLL5        0.0000 
     55 CA         27.4220  -34.4260  -28.5110 C.3       6 GLP5        0.0000 
     56 CA         24.7780  -40.1889  -26.7443 C.3       3 GLC5        0.0000 
     57 CA         23.6550  -41.4680  -26.1520 C.3       6 GLP5        0.0000 
     58 CA         24.3785  -37.8124  -27.2698 C.3       3 GLC5        0.0000 
     59 CA         22.8560  -36.7150  -27.2030 C.3       6 GLP5        0.0000 
@<TRIPOS>BOND
@<TRIPOS>SUBSTRUCTURE
     1 ALC1       20 GROUP        1 X    ALC  0     ROOT ALC X 1
     2 SEC2       26 GROUP        1 X    SEC  0     **** SEC X 2
     3 GLC5        1 GROUP        1 X    GLC  0     **** GLC X 6
     4 ALP1       22 GROUP        1 Y    ALP  0     ROOT ALP Y 8
     5 SEP2       28 GROUP        1 Y    SEP  0     **** SEP Y 9
     6 GLP5        3 GROUP        1 Y    GLP  0     **** GLP Y 13
     7 ALL1       21 GROUP        1 Z    ALL  0     ROOT ALL Z 15
     8 SEL2       27 GROUP        1 Z    SEL  0     **** SEL Z 16
     9 GLL5        2 GROUP        1 Z    GLL  0     **** GLL Z 20
@<TRIPOS>SET

