#    Name: 3vbg_03M_3_ligand
#    Modification time : Tue Mar 25 00:28:10 2014

@<TRIPOS>MOLECULE
3vbg_03M_3_ligand
   42    45     1     0     0
SMALL
NO_CHARGES


@<TRIPOS>ATOM
      1 C4         22.7080  -36.6410  -37.2790 C.ar      1 03M1        0.0000 
      2 C6         24.9100  -34.3250  -35.5690 C.2       1 03M1        0.0000 
      3 C7         24.3570  -35.5810  -35.7050 C.2       1 03M1        0.0000 
      4 C8         23.4610  -35.5910  -36.7590 C.ar      1 03M1        0.0000 
      5 C10        24.7010  -36.8030  -34.8920 C.2       1 03M1        0.0000 
      6 N12        26.7340  -35.9030  -33.6780 N.am      1 03M1        0.0000 
      7 C13        27.5770  -36.5100  -32.8040 C.2       1 03M1        0.0000 
      8 C15        26.2320  -38.0520  -33.1540 C.2       1 03M1        0.0000 
      9 C20        26.2970  -39.5800  -29.9660 C.ar      1 03M1        0.0000 
     10 C21        25.7570  -39.5920  -28.7080 C.ar      1 03M1        0.0000 
     11 C22        26.2930  -38.7210  -27.7160 C.ar      1 03M1        0.0000 
     12 C24        27.9150  -37.8980  -29.2220 C.ar      1 03M1        0.0000 
     13 C1         21.8890  -36.3310  -38.3380 C.ar      1 03M1        0.0000 
     14 C2         21.8550  -35.0220  -38.8120 C.ar      1 03M1        0.0000 
     15 C3         22.6210  -33.9810  -38.3180 C.ar      1 03M1        0.0000 
     16 N5         24.3100  -33.5390  -36.5300 N.pl3     1 03M1        0.0000 
     17 C9         23.4400  -34.2920  -37.2570 C.ar      1 03M1        0.0000 
     18 C11        25.8430  -36.9000  -33.9430 C.2       1 03M1        0.0000 
     19 N14        27.3400  -37.7880  -32.4820 N.am      1 03M1        0.0000 
     20 O16        28.5680  -35.8960  -32.2850 O.2       1 03M1        0.0000 
     21 O17        25.6300  -39.1770  -33.1610 O.2       1 03M1        0.0000 
     22 C18        28.0880  -38.6460  -31.5510 C.3       1 03M1        0.0000 
     23 C19        27.3950  -38.7390  -30.2070 C.ar      1 03M1        0.0000 
     24 C23        27.3500  -37.9040  -27.9690 C.ar      1 03M1        0.0000 
     25 F25        27.8730  -37.1270  -27.0190 F         1 03M1        0.0000 
     26 F26        25.7770  -38.6630  -26.4610 F         1 03M1        0.0000 
     27 C27        22.5810  -32.5910  -38.9390 C.3       1 03M1        0.0000 
     28 CL         20.7490  -34.7410  -40.1510 Cl        1 03M1        0.0000 
     29 H          22.7666  -37.5670  -36.8961 H         1 03M1        0.0000 
     30 H          25.5622  -34.0593  -34.9484 H         1 03M1        0.0000 
     31 H          24.0959  -37.6284  -35.0073 H         1 03M1        0.0000 
     32 H          26.7553  -35.0445  -34.0072 H         1 03M1        0.0000 
     33 H          25.9252  -40.1577  -30.7156 H         1 03M1        0.0000 
     34 H          24.9817  -40.2063  -28.4592 H         1 03M1        0.0000 
     35 H          28.7082  -37.2873  -29.4398 H         1 03M1        0.0000 
     36 H          21.3060  -37.0497  -38.7802 H         1 03M1        0.0000 
     37 H          24.4869  -32.5990  -36.6593 H         1 03M1        0.0000 
     38 H          29.1013  -38.2497  -31.3959 H         1 03M1        0.0000 
     39 H          28.1902  -39.6597  -31.9632 H         1 03M1        0.0000 
     40 H          23.1902  -31.9550  -38.4654 H         1 03M1        0.0000 
     41 H          22.8607  -32.6049  -39.8990 H         1 03M1        0.0000 
     42 H          21.6628  -32.1962  -38.9070 H         1 03M1        0.0000 
@<TRIPOS>BOND
     1    4    1 ar   
     2   13    1 ar   
     3   29    1 1    
     4    3    2 2    
     5   16    2 1    
     6   30    2 1    
     7    4    3 1    
     8    5    3 1    
     9   17    4 ar   
    10   18    5 2    
    11   31    5 1    
    12    7    6 am   
    13   18    6 1    
    14   32    6 1    
    15   19    7 am   
    16   20    7 2    
    17   18    8 1    
    18   19    8 am   
    19   21    8 2    
    20   10    9 ar   
    21   23    9 ar   
    22   33    9 1    
    23   11   10 ar   
    24   34   10 1    
    25   24   11 ar   
    26   26   11 1    
    27   23   12 ar   
    28   24   12 ar   
    29   35   12 1    
    30   14   13 ar   
    31   36   13 1    
    32   15   14 ar   
    33   28   14 1    
    34   17   15 ar   
    35   27   15 1    
    36   17   16 1    
    37   37   16 1    
    38   22   19 1    
    39   23   22 1    
    40   38   22 1    
    41   39   22 1    
    42   25   24 1    
    43   40   27 1    
    44   41   27 1    
    45   42   27 1    
@<TRIPOS>SUBSTRUCTURE
     1 03M1        1 GROUP   
@<TRIPOS>SET

