#    Name: 2nnq_T4B_1_INTS_M
#    Modification time : Tue Mar 25 21:24:30 2014

@<TRIPOS>MOLECULE
2nnq_T4B_1_INTS_M
   74     0     9     0     0
SMALL
NO_CHARGES


@<TRIPOS>ATOM
      1 CA          5.2840   13.7215   14.4000 C.3       3 GLC5        0.0000 
      2 CA          4.9160   11.7070   14.8380 C.3       9 GLL5        0.0000 
      3 CA          5.6520   15.7360   13.9620 C.3       6 GLP5        0.0000 
      4 CA          3.9815   14.1200   13.8840 C.3       3 GLC5        0.0000 
      5 CA          3.7310   12.2490   14.2720 C.3       9 GLL5        0.0000 
      6 CA          4.2320   15.9910   13.4960 C.3       6 GLP5        0.0000 
      7 CA          7.5045    4.8180   18.4200 C.3       3 GLC5        0.0000 
      8 CA          6.9200    5.7870   16.8350 C.3       9 GLL5        0.0000 
      9 CA          8.0890    3.8490   20.0050 C.3       6 GLP5        0.0000 
     10 CA          9.0760    5.9515   17.2275 C.3       3 GLC5        0.0000 
     11 CA         11.2320    6.1160   17.6200 C.3       6 GLP5        0.0000 
     12 CA          8.0695    3.9705   16.2745 C.3       3 GLC5        0.0000 
     13 CA          9.2190    2.1540   15.7140 C.3       6 GLP5        0.0000 
     14 CA          3.5065    7.2500   12.4695 C.3       3 GLC5        0.0000 
     15 CA          3.3590    6.9490   14.4400 C.3       9 GLL5        0.0000 
     16 CA          3.6540    7.5510   10.4990 C.3       6 GLP5        0.0000 
     17 CA          2.0485    8.1675   19.3835 C.3       3 GLC5        0.0000 
     18 CA          3.0490    6.9750   17.9580 C.3       9 GLL5        0.0000 
     19 CA          1.0480    9.3600   20.8090 C.3       6 GLP5        0.0000 
     20 CA          2.2020    2.9935   20.9295 C.3       3 GLC5        0.0000 
     21 CA          2.9070    3.2440   18.9290 C.3       9 GLL5        0.0000 
     22 CA          1.4970    2.7430   22.9300 C.3       6 GLP5        0.0000 
     23 NZ          5.2685    2.9320   15.9830 N.4       2 LYC4        0.0000 
     24 NZ          5.9360    4.1630   15.2630 N.4       8 LYL4        0.0000 
     25 NZ          5.8150    1.1890   16.8650 N.4       5 LYP4        0.0000 
     26 N           6.4025    2.9700   15.7860 N.am      1 SEC2        0.0000 
     27 N           5.9360    4.1630   15.2630 N.am      7 SEL2        0.0000 
     28 N           6.8690    1.7770   16.3090 N.am      4 SEP2        0.0000 
     29 N           5.2685    2.9320   15.9830 N.am      1 SEC2        0.0000 
     30 N           4.6010    1.7010   16.7030 N.am      4 SEP2        0.0000 
     31 N           5.2385    4.0530   14.1770 N.am      1 SEC2        0.0000 
     32 N           4.5410    3.9430   13.0910 N.am      4 SEP2        0.0000 
     33 CA          5.8525    6.8385   25.0035 C.3       3 GLC5        0.0000 
     34 CA          5.4470    7.0620   22.8580 C.3       9 GLL5        0.0000 
     35 CA          6.2580    6.6150   27.1490 C.3       6 GLP5        0.0000 
     36 CA          1.0570    2.2800   20.6405 C.3       3 GLC5        0.0000 
     37 CA          1.5210    2.9690   18.7680 C.3       9 GLL5        0.0000 
     38 CA          0.5930    1.5910   22.5130 C.3       6 GLP5        0.0000 
     39 CA         -1.1890    3.9155   17.1405 C.3       3 GLC5        0.0000 
     40 CA          0.6320    3.9900   18.3350 C.3       9 GLL5        0.0000 
     41 CA         -3.0100    3.8410   15.9460 C.3       6 GLP5        0.0000 
     42 CA         -1.0420    3.8830   19.4780 C.3       3 GLC5        0.0000 
     43 CA         -2.7160    3.7760   20.6210 C.3       6 GLP5        0.0000 
     44 CA          1.1450    9.8863   14.1747 C.3       3 GLC5        0.0000 
     45 CA          2.3600   10.6210   15.5130 C.3       9 GLL5        0.0000 
     46 CA         -0.1180    8.6070   13.2890 C.3       6 GLP5        0.0000 
     47 CA          0.6560   11.6943   16.1788 C.3       3 GLC5        0.0000 
     48 CA         -1.0960   12.2230   17.2970 C.3       6 GLP5        0.0000 
     49 CA          9.6163    7.3518   17.4715 C.3       3 GLC5        0.0000 
     50 CA          7.5930    8.1560   16.9270 C.3       9 GLL5        0.0000 
     51 CA         10.0845    9.9962   17.7837 C.3       3 GLC5        0.0000 
     52 CA          8.4080    9.0190   17.7190 C.3       9 GLL5        0.0000 
     53 CA         11.9260   10.2830   17.7870 C.3       6 GLP5        0.0000 
     54 CA          1.6220    5.4447   14.7150 C.3       3 GLC5        0.0000 
     55 CA          0.4260    3.8260   14.4590 C.3       6 GLP5        0.0000 
     56 CA          1.3500    7.8353   14.1300 C.3       3 GLC5        0.0000 
     57 CA          2.2770    7.1780   15.5020 C.3       9 GLL5        0.0000 
     58 CA          1.7033    4.2378   16.5637 C.3       3 GLC5        0.0000 
     59 CA          1.1270    5.2900   18.0640 C.3       9 GLL5        0.0000 
     60 CA          1.5790    3.0400   14.9850 C.3       6 GLP5        0.0000 
     61 CA          2.3695    3.4668   16.8885 C.3       3 GLC5        0.0000 
     62 CA          3.4130    4.5430   18.6550 C.3       9 GLL5        0.0000 
     63 CA          5.0708    5.0725   23.4992 C.3       3 GLC5        0.0000 
     64 CA          4.1060    6.6740   22.5750 C.3       9 GLL5        0.0000 
     65 CA          5.3650    3.2770   24.2820 C.3       6 GLP5        0.0000 
     66 CA          3.9972    7.8560   24.2018 C.3       3 GLC5        0.0000 
     67 CA          3.2180    8.8440   25.6870 C.3       6 GLP5        0.0000 
     68 CA          2.5663    8.2677   20.9564 C.3       3 GLC5        0.0000 
     69 CA          3.7859   11.8590   12.6348 C.3       3 GLC5        0.0000 
     70 CA          2.4560   11.7100   14.6080 C.3       9 GLL5        0.0000 
     71 CA          4.1820   11.8740   10.6880 C.3       6 GLP5        0.0000 
     72 CA         -0.1713    2.1193   18.5493 C.3       3 GLC5        0.0000 
     73 CA         -1.4190    0.7590   18.5470 C.3       6 GLP5        0.0000 
     74 CA          1.3277    3.2598   16.7683 C.3       3 GLC5        0.0000 
@<TRIPOS>BOND
@<TRIPOS>SUBSTRUCTURE
     1 SEC2       26 GROUP        1 X    SEC  0     ROOT SEC X 2
     2 LYC4       23 GROUP        1 X    LYC  0     **** LYC X 4
     3 GLC5        1 GROUP        1 X    GLC  0     **** GLC X 6
     4 SEP2       28 GROUP        1 Y    SEP  0     ROOT SEP Y 9
     5 LYP4       25 GROUP        1 Y    LYP  0     **** LYP Y 11
     6 GLP5        3 GROUP        1 Y    GLP  0     **** GLP Y 13
     7 SEL2       27 GROUP        1 Z    SEL  0     ROOT SEL Z 16
     8 LYL4       24 GROUP        1 Z    LYL  0     **** LYL Z 18
     9 GLL5        2 GROUP        1 Z    GLL  0     **** GLL Z 20
@<TRIPOS>SET

