#    Name: 2nnq_T4B_1_ligand
#    Modification time : Tue Mar 25 21:24:30 2014

@<TRIPOS>MOLECULE
2nnq_T4B_1_ligand
   61    65     1     0     0
SMALL
NO_CHARGES


@<TRIPOS>ATOM
      1 C1          2.3600   10.6210   15.5130 C.ar      1 T4B293      0.0000 
      2 C2          6.0970   10.0740   16.3860 C.ar      1 T4B293      0.0000 
      3 C3          6.4370    8.6900   16.2580 C.ar      1 T4B293      0.0000 
      4 C7          4.9160   11.7070   14.8380 C.ar      1 T4B293      0.0000 
      5 C8          3.7310   12.2490   14.2720 C.ar      1 T4B293      0.0000 
      6 C9          6.9200    5.7870   16.8350 C.3       1 T4B293      0.0000 
      7 C10         6.7200    5.2070   15.4380 C.2       1 T4B293      0.0000 
      8 C11         7.5930    8.1560   16.9270 C.ar      1 T4B293      0.0000 
      9 C12         8.4080    9.0190   17.7190 C.ar      1 T4B293      0.0000 
     10 C13         8.0780   10.4000   17.8420 C.ar      1 T4B293      0.0000 
     11 C14         6.9260   10.9280   17.1780 C.ar      1 T4B293      0.0000 
     12 C15         3.3590    6.9490   14.4400 C.3       1 T4B293      0.0000 
     13 C16         2.5280    5.5810   18.2210 C.ar      1 T4B293      0.0000 
     14 C19         3.0490    6.9750   17.9580 C.2       1 T4B293      0.0000 
     15 C20         2.8930    7.7040   16.8070 C.2       1 T4B293      0.0000 
     16 C21         2.2770    7.1780   15.5020 C.3       1 T4B293      0.0000 
     17 C22         2.9070    3.2440   18.9290 C.ar      1 T4B293      0.0000 
     18 C24         4.1060    6.6740   22.5750 C.ar      1 T4B293      0.0000 
     19 C27         4.3410    7.5550   20.2760 C.ar      1 T4B293      0.0000 
     20 C30         1.1270    5.2900   18.0640 C.ar      1 T4B293      0.0000 
     21 C           2.4560   11.7100   14.6080 C.ar      1 T4B293      0.0000 
     22 C4          5.6860    7.9410   20.5700 C.ar      1 T4B293      0.0000 
     23 C5          3.5450   10.0610   16.0900 C.ar      1 T4B293      0.0000 
     24 C6          4.8400   10.6120   15.7530 C.ar      1 T4B293      0.0000 
     25 O           7.2750    5.7190   14.4680 O.co2     1 T4B293      0.0000 
     26 O1          5.9360    4.1630   15.2630 O.co2     1 T4B293      0.0000 
     27 O2          7.9380    6.8180   16.8020 O.3       1 T4B293      0.0000 
     28 C17         3.4130    4.5430   18.6550 C.ar      1 T4B293      0.0000 
     29 N           3.4580    8.9580   16.9990 N.pl3     1 T4B293      0.0000 
     30 N1          3.9960    9.0000   18.3230 N.2       1 T4B293      0.0000 
     31 C18         3.7940    7.8620   18.9220 C.2       1 T4B293      0.0000 
     32 C23         3.5500    6.9180   21.2880 C.ar      1 T4B293      0.0000 
     33 C25         5.4470    7.0620   22.8580 C.ar      1 T4B293      0.0000 
     34 C26         6.2380    7.6950   21.8610 C.ar      1 T4B293      0.0000 
     35 C28         1.5210    2.9690   18.7680 C.ar      1 T4B293      0.0000 
     36 C29         0.6320    3.9900   18.3350 C.ar      1 T4B293      0.0000 
     37 H           1.4513   10.2339   15.7556 H         1 T4B293      0.0000 
     38 H           5.8582    8.0756   15.6896 H         1 T4B293      0.0000 
     39 H           5.8241   12.0974   14.5932 H         1 T4B293      0.0000 
     40 H           3.7920   13.0318   13.6185 H         1 T4B293      0.0000 
     41 H           7.2054    4.9701   17.5053 H         1 T4B293      0.0000 
     42 H           5.9610    6.1883   17.1777 H         1 T4B293      0.0000 
     43 H           9.2257    8.6472   18.1963 H         1 T4B293      0.0000 
     44 H           8.6627   11.0150   18.4039 H         1 T4B293      0.0000 
     45 H           6.6964   11.9143   17.2700 H         1 T4B293      0.0000 
     46 H           1.7661    6.2390   15.7018 H         1 T4B293      0.0000 
     47 H           1.5569    7.9030   15.1298 H         1 T4B293      0.0000 
     48 H           3.5379    2.5074   19.2415 H         1 T4B293      0.0000 
     49 H           3.5456    6.2220   23.2942 H         1 T4B293      0.0000 
     50 H           0.4969    6.0279   17.7565 H         1 T4B293      0.0000 
     51 H           1.6135   12.1083   14.1970 H         1 T4B293      0.0000 
     52 H           6.2499    8.3931   19.8534 H         1 T4B293      0.0000 
     53 H           4.4045    4.7404   18.7659 H         1 T4B293      0.0000 
     54 H           2.5947    6.6431   21.0819 H         1 T4B293      0.0000 
     55 H           5.8409    6.8839   23.7822 H         1 T4B293      0.0000 
     56 H           7.1935    7.9718   22.0660 H         1 T4B293      0.0000 
     57 H           1.1633    2.0338   18.9644 H         1 T4B293      0.0000 
     58 H          -0.3588    3.7858   18.2202 H         1 T4B293      0.0000 
     59 H           3.8528    7.7916   14.2252 H         1 T4B293      0.0000 
     60 H           4.0384    6.2795   14.7404 H         1 T4B293      0.0000 
     61 H           2.9720    6.6094   13.5827 H         1 T4B293      0.0000 
@<TRIPOS>BOND
     1   21    1 ar   
     2   23    1 ar   
     3   37    1 1    
     4    3    2 ar   
     5   11    2 ar   
     6   24    2 1    
     7    8    3 ar   
     8   38    3 1    
     9    5    4 ar   
    10   24    4 ar   
    11   39    4 1    
    12   21    5 ar   
    13   40    5 1    
    14    7    6 1    
    15   27    6 1    
    16   41    6 1    
    17   42    6 1    
    18   25    7 ar   
    19   26    7 ar   
    20    9    8 ar   
    21   27    8 1    
    22   10    9 ar   
    23   43    9 1    
    24   11   10 ar   
    25   44   10 1    
    26   45   11 1    
    27   16   12 1    
    28   59   12 1    
    29   60   12 1    
    30   61   12 1    
    31   14   13 1    
    32   20   13 ar   
    33   28   13 ar   
    34   15   14 2    
    35   31   14 1    
    36   16   15 1    
    37   29   15 1    
    38   46   16 1    
    39   47   16 1    
    40   28   17 ar   
    41   35   17 ar   
    42   48   17 1    
    43   32   18 ar   
    44   33   18 ar   
    45   49   18 1    
    46   22   19 ar   
    47   31   19 1    
    48   32   19 ar   
    49   36   20 ar   
    50   50   20 1    
    51   51   21 1    
    52   34   22 ar   
    53   52   22 1    
    54   24   23 ar   
    55   29   23 1    
    56   53   28 1    
    57   30   29 1    
    58   31   30 2    
    59   54   32 1    
    60   34   33 ar   
    61   55   33 1    
    62   56   34 1    
    63   36   35 ar   
    64   57   35 1    
    65   58   36 1    
@<TRIPOS>SUBSTRUCTURE
     1 T4B293      1 GROUP   
@<TRIPOS>SET

