#    Name: 2rgh_FAD_1_INTS_M
#    Modification time : Mon Mar 24 23:54:34 2014

@<TRIPOS>MOLECULE
2rgh_FAD_1_INTS_M
  140     0     9     0     0
SMALL
NO_CHARGES


@<TRIPOS>ATOM
      1 N          25.1010   24.5460   65.2890 N.am      2 SEC2        0.0000 
      2 N          24.0120   23.6890   65.4360 N.am      8 SEL2        0.0000 
      3 N          26.1900   25.4030   65.1420 N.am      5 SEP2        0.0000 
      4 N          25.4870   24.5725   62.6990 N.am      2 SEC2        0.0000 
      5 N          24.1660   24.1490   62.9530 N.am      8 SEL2        0.0000 
      6 N          26.8080   24.9960   62.4450 N.am      5 SEP2        0.0000 
      7 N          24.6450   23.9310   61.7510 N.am      2 SEC2        0.0000 
      8 N          25.1240   23.7130   60.5490 N.am      5 SEP2        0.0000 
      9 CA         21.6185   21.8215   65.7255 C.3       3 GLC5        0.0000 
     10 CA         21.0450   23.6940   65.1090 C.3       9 GLL5        0.0000 
     11 CA         22.1920   19.9490   66.3420 C.3       6 GLP5        0.0000 
     12 CA         21.6140   23.9880   67.0380 C.3       3 GLC5        0.0000 
     13 CA         22.1830   24.2820   68.9670 C.3       6 GLP5        0.0000 
     14 CA         18.3845   24.4985   64.2720 C.3       3 GLC5        0.0000 
     15 CA         20.1320   24.8740   64.9960 C.3       9 GLL5        0.0000 
     16 CA         16.6370   24.1230   63.5480 C.3       6 GLP5        0.0000 
     17 CA         22.7725   26.7015   65.4715 C.3       3 GLC5        0.0000 
     18 CA         20.8720   26.1230   65.5280 C.3       9 GLL5        0.0000 
     19 CA         24.6730   27.2800   65.4150 C.3       6 GLP5        0.0000 
     20 O          19.8810   27.3830   64.0670 O.2       1 ALC1        0.0000 
     21 O          21.0400   27.1460   64.5160 O.2       7 ALL1        0.0000 
     22 O          18.7220   27.6200   63.6180 O.2       4 ALP1        0.0000 
     23 N          21.2105   28.7925   67.4775 N.am      2 SEC2        0.0000 
     24 N          20.0850   27.9670   66.9530 N.am      8 SEL2        0.0000 
     25 N          22.3360   29.6180   68.0020 N.am      5 SEP2        0.0000 
     26 O          19.5140   28.6170   66.0035 O.2       1 ALC1        0.0000 
     27 O          20.0850   27.9670   66.9530 O.2       7 ALL1        0.0000 
     28 O          18.9430   29.2670   65.0540 O.2       4 ALP1        0.0000 
     29 CA         17.6500   25.0625   64.9880 C.3       3 GLC5        0.0000 
     30 CA         18.6630   26.0020   66.4280 C.3       9 GLL5        0.0000 
     31 CA         18.0150   27.7715   67.6230 C.3       3 GLC5        0.0000 
     32 CA         17.3670   29.5410   68.8180 C.3       6 GLP5        0.0000 
     33 CA         15.5695   23.5960   69.6360 C.3       3 GLC5        0.0000 
     34 CA         16.0350   25.6590   68.9340 C.3       9 GLL5        0.0000 
     35 CA         15.1040   21.5330   70.3380 C.3       6 GLP5        0.0000 
     36 CA         14.1070   27.4505   70.2280 C.3       3 GLC5        0.0000 
     37 CA         14.7070   25.8870   69.2070 C.3       9 GLL5        0.0000 
     38 CA         13.5070   29.0140   71.2490 C.3       6 GLP5        0.0000 
     39 CA         12.6805   25.4550   69.0950 C.3       3 GLC5        0.0000 
     40 CA         10.6540   25.0230   68.9830 C.3       6 GLP5        0.0000 
     41 O          12.8585   25.8275   71.0195 O.2       1 ALC1        0.0000 
     42 O          14.2230   25.5320   70.4070 O.2       7 ALL1        0.0000 
     43 O          11.4940   26.1230   71.6320 O.2       4 ALP1        0.0000 
     44 N          12.6055   26.9125   68.7465 N.am      2 SEC2        0.0000 
     45 N          13.8550   26.4690   68.3020 N.am      8 SEL2        0.0000 
     46 N          11.3560   27.3560   69.1910 N.am      5 SEP2        0.0000 
     47 CA         13.7910   25.0145   66.8695 C.3       3 GLC5        0.0000 
     48 CA         14.2850   26.8510   67.0660 C.3       9 GLL5        0.0000 
     49 CA         13.2970   23.1780   66.6730 C.3       6 GLP5        0.0000 
     50 CA         12.5915   26.6415   65.7705 C.3       3 GLC5        0.0000 
     51 CA         10.8980   26.4320   64.4750 C.3       6 GLP5        0.0000 
     52 CA         14.8610   27.8325   65.4375 C.3       3 GLC5        0.0000 
     53 CA         15.4370   28.8140   63.8090 C.3       6 GLP5        0.0000 
     54 CA         15.1345   28.4835   67.7715 C.3       3 GLC5        0.0000 
     55 CA         15.9840   30.1160   68.4770 C.3       6 GLP5        0.0000 
     56 CA         13.3110   28.2145   68.0320 C.3       3 GLC5        0.0000 
     57 CA         12.3370   29.5780   68.9980 C.3       6 GLP5        0.0000 
     58 CA         12.4695   25.9370   68.0245 C.3       3 GLC5        0.0000 
     59 N          15.7010   28.1605   66.4025 N.am      2 SEC2        0.0000 
     60 N          15.5850   26.6490   66.7370 N.am      8 SEL2        0.0000 
     61 N          15.8170   29.6720   66.0680 N.am      5 SEP2        0.0000 
     62 CA         16.9140   27.8060   68.2240 C.3       3 GLC5        0.0000 
     63 CA         16.4610   26.0710   67.6300 C.3       9 GLL5        0.0000 
     64 N          30.3210   18.5960   59.3360 N.am      2 SEC2        0.0000 
     65 N          31.8820   19.0120   59.9450 N.am      8 SEL2        0.0000 
     66 N          28.7600   18.1800   58.7270 N.am      5 SEP2        0.0000 
     67 N          32.4375   16.9430   58.2875 N.am      2 SEC2        0.0000 
     68 N          31.6150   18.3770   57.7950 N.am      8 SEL2        0.0000 
     69 N          33.2600   15.5090   58.7800 N.am      5 SEP2        0.0000 
     70 N          30.5225   17.9475   56.8880 N.am      2 SEC2        0.0000 
     71 N          29.4300   17.5180   55.9810 N.am      5 SEP2        0.0000 
     72 N          31.8325   17.7230   56.2780 N.am      2 SEC2        0.0000 
     73 N          32.0500   17.0690   54.7610 N.am      5 SEP2        0.0000 
     74 O          34.0970   19.9160   57.0560 O.2       1 ALC1        0.0000 
     75 O          33.6330   19.3860   58.3520 O.2       7 ALL1        0.0000 
     76 O          34.5610   20.4460   55.7600 O.2       4 ALP1        0.0000 
     77 N          35.1060   22.0680   61.3240 N.am      2 SEC2        0.0000 
     78 N          34.7430   20.5590   61.7370 N.am      8 SEL2        0.0000 
     79 N          35.4690   23.5770   60.9110 N.am      5 SEP2        0.0000 
     80 CA         36.3050   22.1280   62.1805 C.3       3 GLC5        0.0000 
     81 CA         34.9350   21.6550   63.9000 C.3       9 GLL5        0.0000 
     82 CA         37.6750   22.6010   60.4610 C.3       6 GLP5        0.0000 
     83 CA         35.8040   22.9250   67.7705 C.3       3 GLC5        0.0000 
     84 CA         35.2150   22.8330   66.1380 C.3       9 GLL5        0.0000 
     85 CA         36.3930   23.0170   69.4030 C.3       6 GLP5        0.0000 
     86 CA         37.4265   22.5540   65.9730 C.3       3 GLC5        0.0000 
     87 CA         39.6380   22.2750   65.8080 C.3       6 GLP5        0.0000 
     88 CA         31.9275   23.8330   67.5850 C.3       3 GLC5        0.0000 
     89 CA         32.3490   22.0080   66.7790 C.3       9 GLL5        0.0000 
     90 CA         31.5060   25.6580   68.3910 C.3       6 GLP5        0.0000 
     91 CA         31.1400   22.2695   68.3220 C.3       3 GLC5        0.0000 
     92 CA         29.9310   22.5310   69.8650 C.3       6 GLP5        0.0000 
     93 CA         32.4925   20.3720   67.2145 C.3       3 GLC5        0.0000 
     94 CA         32.6360   18.7360   67.6500 C.3       6 GLP5        0.0000 
     95 CA         32.7435   21.9015   61.9870 C.3       3 GLC5        0.0000 
     96 CA         32.8610   20.4880   63.2580 C.3       9 GLL5        0.0000 
     97 CA         32.6260   23.3150   60.7160 C.3       6 GLP5        0.0000 
     98 CA         28.1005   19.1380   64.3345 C.3       3 GLC5        0.0000 
     99 CA         28.3130   19.8280   62.4560 C.3       9 GLL5        0.0000 
    100 CA         27.8880   18.4480   66.2130 C.3       6 GLP5        0.0000 
    101 O          26.2150   22.8405   61.0745 O.2       1 ALC1        0.0000 
    102 O          27.3060   21.9680   61.6000 O.2       7 ALL1        0.0000 
    103 O          25.1240   23.7130   60.5490 O.2       4 ALP1        0.0000 
    104 CA         26.6040   21.7345   63.8665 C.3       3 GLC5        0.0000 
    105 CA         25.8160   20.2590   62.5170 C.3       9 GLL5        0.0000 
    106 CA         27.3920   23.2100   65.2160 C.3       6 GLP5        0.0000 
    107 CA         26.2145   18.9915   64.1230 C.3       3 GLC5        0.0000 
    108 CA         26.6130   17.7240   65.7290 C.3       6 GLP5        0.0000 
    109 N          22.0300   21.2290   60.1060 N.am      2 SEC2        0.0000 
    110 N          22.3910   21.6120   61.4420 N.am      8 SEL2        0.0000 
    111 N          21.6690   20.8460   58.7700 N.am      5 SEP2        0.0000 
    112 N          22.5185   19.1240   61.7615 N.am      2 SEC2        0.0000 
    113 N          22.8380   19.6400   62.9850 N.am      8 SEL2        0.0000 
    114 N          22.1990   18.6080   60.5380 N.am      5 SEP2        0.0000 
    115 N          21.6725   19.0120   63.4885 N.am      2 SEC2        0.0000 
    116 N          20.5070   18.3840   63.9920 N.am      5 SEP2        0.0000 
    117 CA         19.6098   22.8065   65.7253 C.3       3 GLC5        0.0000 
    118 CA         18.6310   21.3290   66.3980 C.3       6 GLP5        0.0000 
    119 CA         21.7972   25.7525   67.3170 C.3       3 GLC5        0.0000 
    120 CA         23.1330   25.1780   68.4930 C.3       6 GLP5        0.0000 
    121 CA         16.3680   27.2075   69.8152 C.3       3 GLC5        0.0000 
    122 CA         17.3650   28.6420   70.5600 C.3       6 GLP5        0.0000 
    123 CA         14.6065   24.5500   67.5116 C.3       3 GLC5        0.0000 
    124 CA         33.9205   22.7075   62.6197 C.3       3 GLC5        0.0000 
    125 CA         34.1830   20.9010   62.9650 C.3       9 GLL5        0.0000 
    126 CA         33.2820   24.1370   61.8070 C.3       6 GLP5        0.0000 
    127 CA         30.6307   21.9398   65.2100 C.3       3 GLC5        0.0000 
    128 CA         32.2890   20.8740   64.5410 C.3       9 GLL5        0.0000 
    129 CA         28.7750   22.5340   65.0920 C.3       6 GLP5        0.0000 
    130 CA         33.1364   22.7432   63.3646 C.3       3 GLC5        0.0000 
    131 CA         32.8134   20.0428   66.2861 C.3       3 GLC5        0.0000 
    132 CA         34.3660   22.0240   65.1560 C.3       9 GLL5        0.0000 
    133 CA         29.0663   17.9686   61.2236 C.3       3 GLC5        0.0000 
    134 CA         28.8780   16.1760   60.1140 C.3       6 GLP5        0.0000 
    135 CA         25.5680   20.7533   60.2568 C.3       3 GLC5        0.0000 
    136 CA         27.1220   20.5260   61.7320 C.3       9 GLL5        0.0000 
    137 CA         24.6670   21.1140   58.3890 C.3       6 GLP5        0.0000 
    138 CA         28.4150   21.3866   63.5117 C.3       3 GLC5        0.0000 
    139 CA         28.3465   20.7746   60.1998 C.3       3 GLC5        0.0000 
    140 CA         28.6380   21.3100   58.4680 C.3       6 GLP5        0.0000 
@<TRIPOS>BOND
@<TRIPOS>SUBSTRUCTURE
     1 ALC1       20 GROUP        1 X    ALC  0     ROOT ALC X 1
     2 SEC2        1 GROUP        1 X    SEC  0     **** SEC X 2
     3 GLC5        9 GROUP        1 X    GLC  0     **** GLC X 6
     4 ALP1       22 GROUP        1 Y    ALP  0     ROOT ALP Y 8
     5 SEP2        3 GROUP        1 Y    SEP  0     **** SEP Y 9
     6 GLP5       11 GROUP        1 Y    GLP  0     **** GLP Y 13
     7 ALL1       21 GROUP        1 Z    ALL  0     ROOT ALL Z 15
     8 SEL2        2 GROUP        1 Z    SEL  0     **** SEL Z 16
     9 GLL5       10 GROUP        1 Z    GLL  0     **** GLL Z 20
@<TRIPOS>SET

