#    Name: 2rgh_FAD_1_ligand
#    Modification time : Mon Mar 24 23:54:35 2014

@<TRIPOS>MOLECULE
2rgh_FAD_1_ligand
   84    89     1     0     0
SMALL
NO_CHARGES


@<TRIPOS>ATOM
      1 PA         23.4530   23.5180   64.0830 P.3       1 FAD609      0.0000 
      2 O1A        24.0120   23.6890   65.4360 O.co2     1 FAD609      0.0000 
      3 O2A        24.1660   24.1490   62.9530 O.co2     1 FAD609      0.0000 
      4 O5B        22.0160   24.0990   64.1340 O.3       1 FAD609      0.0000 
      5 C5B        21.0450   23.6940   65.1090 C.3       1 FAD609      0.0000 
      6 C4B        20.1320   24.8740   64.9960 C.3       1 FAD609      0.0000 
      7 O4B        18.8300   24.8040   65.6350 O.3       1 FAD609      0.0000 
      8 C3B        20.8720   26.1230   65.5280 C.3       1 FAD609      0.0000 
      9 O3B        21.0400   27.1460   64.5160 O.3       1 FAD609      0.0000 
     10 C2B        20.0510   26.5310   66.7540 C.3       1 FAD609      0.0000 
     11 O2B        20.0850   27.9670   66.9530 O.3       1 FAD609      0.0000 
     12 C1B        18.6630   26.0020   66.4280 C.3       1 FAD609      0.0000 
     13 N9A        17.7790   25.7500   67.6060 N.pl3     1 FAD609      0.0000 
     14 C8A        18.1060   25.1960   68.7980 C.2       1 FAD609      0.0000 
     15 N7A        17.0390   25.1300   69.6330 N.2       1 FAD609      0.0000 
     16 C5A        16.0350   25.6590   68.9340 C.ar      1 FAD609      0.0000 
     17 C6A        14.7070   25.8870   69.2070 C.ar      1 FAD609      0.0000 
     18 N6A        14.2230   25.5320   70.4070 N.pl3     1 FAD609      0.0000 
     19 N1A        13.8550   26.4690   68.3020 N.ar      1 FAD609      0.0000 
     20 C2A        14.2850   26.8510   67.0660 C.ar      1 FAD609      0.0000 
     21 N3A        15.5850   26.6490   66.7370 N.ar      1 FAD609      0.0000 
     22 C4A        16.4610   26.0710   67.6300 C.ar      1 FAD609      0.0000 
     23 N1         31.8820   19.0120   59.9450 N.2       1 FAD609      0.0000 
     24 C2         32.3380   18.8960   58.6700 C.2       1 FAD609      0.0000 
     25 O2         31.6150   18.3770   57.7950 O.2       1 FAD609      0.0000 
     26 N3         33.6330   19.3860   58.3520 N.am      1 FAD609      0.0000 
     27 C4         34.4540   19.9590   59.3680 C.2       1 FAD609      0.0000 
     28 O4         35.5620   20.4820   59.0490 O.2       1 FAD609      0.0000 
     29 C4X        33.9740   20.0450   60.7010 C.2       1 FAD609      0.0000 
     30 N5         34.7430   20.5590   61.7370 N.2       1 FAD609      0.0000 
     31 C5X        34.1830   20.9010   62.9650 C.ar      1 FAD609      0.0000 
     32 C6         34.9350   21.6550   63.9000 C.ar      1 FAD609      0.0000 
     33 C7         34.3660   22.0240   65.1560 C.ar      1 FAD609      0.0000 
     34 C7M        35.2150   22.8330   66.1380 C.3       1 FAD609      0.0000 
     35 C8         33.0190   21.6260   65.4510 C.ar      1 FAD609      0.0000 
     36 C8M        32.3490   22.0080   66.7790 C.3       1 FAD609      0.0000 
     37 C9         32.2890   20.8740   64.5410 C.ar      1 FAD609      0.0000 
     38 C9A        32.8610   20.4880   63.2580 C.ar      1 FAD609      0.0000 
     39 N10        32.1430   19.6600   62.3060 N.pl3     1 FAD609      0.0000 
     40 C10        32.6320   19.5650   60.9680 C.2       1 FAD609      0.0000 
     41 C1'        30.7290   19.3120   62.6150 C.3       1 FAD609      0.0000 
     42 C2'        29.6630   20.0770   61.8060 C.3       1 FAD609      0.0000 
     43 O2'        29.9960   21.4800   61.8050 O.3       1 FAD609      0.0000 
     44 C3'        28.3130   19.8280   62.4560 C.3       1 FAD609      0.0000 
     45 O3'        28.0610   18.4260   62.4780 O.3       1 FAD609      0.0000 
     46 C4'        27.1220   20.5260   61.7320 C.3       1 FAD609      0.0000 
     47 O4'        27.3060   21.9680   61.6000 O.3       1 FAD609      0.0000 
     48 C5'        25.8160   20.2590   62.5170 C.3       1 FAD609      0.0000 
     49 O5'        24.7000   20.8600   61.8500 O.3       1 FAD609      0.0000 
     50 P          23.2230   20.9700   62.4860 P.3       1 FAD609      0.0000 
     51 O1P        22.3910   21.6120   61.4420 O.co2     1 FAD609      0.0000 
     52 O2P        22.8380   19.6400   62.9850 O.co2     1 FAD609      0.0000 
     53 O3P        23.3260   21.9060   63.7840 O.3       1 FAD609      0.0000 
     54 H          21.4514   23.6556   66.0806 H         1 FAD609      0.0000 
     55 H          20.5303   22.8219   64.8170 H         1 FAD609      0.0000 
     56 H          19.9909   25.0908   63.9054 H         1 FAD609      0.0000 
     57 H          21.8338   25.7561   65.9020 H         1 FAD609      0.0000 
     58 H          20.4303   25.9836   67.5894 H         1 FAD609      0.0000 
     59 H          18.1765   26.7661   65.7841 H         1 FAD609      0.0000 
     60 H          19.0092   24.8790   69.0314 H         1 FAD609      0.0000 
     61 H          14.8829   25.1443   71.0505 H         1 FAD609      0.0000 
     62 H          13.2455   25.6869   70.5506 H         1 FAD609      0.0000 
     63 H          13.6325   27.2844   66.3973 H         1 FAD609      0.0000 
     64 H          33.9790   19.3291   57.3951 H         1 FAD609      0.0000 
     65 H          35.8903   21.9383   63.6781 H         1 FAD609      0.0000 
     66 H          31.3315   20.5713   64.7466 H         1 FAD609      0.0000 
     67 H          30.5248   19.4856   63.6949 H         1 FAD609      0.0000 
     68 H          30.5635   18.2241   62.4510 H         1 FAD609      0.0000 
     69 H          29.6535   19.6694   60.8152 H         1 FAD609      0.0000 
     70 H          28.3414   20.2155   63.4738 H         1 FAD609      0.0000 
     71 H          27.0089   20.0624   60.7589 H         1 FAD609      0.0000 
     72 H          25.9545   20.6626   63.5272 H         1 FAD609      0.0000 
     73 H          25.7039   19.1715   62.6031 H         1 FAD609      0.0000 
     74 H          36.0494   22.3460   66.3963 H         1 FAD609      0.0000 
     75 H          35.4961   23.7109   65.7503 H         1 FAD609      0.0000 
     76 H          34.7180   23.0314   66.9828 H         1 FAD609      0.0000 
     77 H          32.8466   21.6411   67.5650 H         1 FAD609      0.0000 
     78 H          32.3012   22.9996   66.8991 H         1 FAD609      0.0000 
     79 H          31.4131   21.6604   66.8363 H         1 FAD609      0.0000 
     80 H          20.2981   26.9892   63.8640 H         1 FAD609      0.0000 
     81 H          20.0574   28.3565   66.0324 H         1 FAD609      0.0000 
     82 H          29.1218   21.9533   61.6963 H         1 FAD609      0.0000 
     83 H          27.1350   18.3239   62.1144 H         1 FAD609      0.0000 
     84 H          26.6961   22.2395   60.8554 H         1 FAD609      0.0000 
@<TRIPOS>BOND
     1    2    1 ar   
     2    3    1 ar   
     3    4    1 1    
     4   53    1 1    
     5    5    4 1    
     6    6    5 1    
     7   54    5 1    
     8   55    5 1    
     9    7    6 1    
    10    8    6 1    
    11   56    6 1    
    12   12    7 1    
    13    9    8 1    
    14   10    8 1    
    15   57    8 1    
    16   80    9 1    
    17   11   10 1    
    18   12   10 1    
    19   58   10 1    
    20   81   11 1    
    21   13   12 1    
    22   59   12 1    
    23   14   13 1    
    24   22   13 1    
    25   15   14 2    
    26   60   14 1    
    27   16   15 1    
    28   17   16 ar   
    29   22   16 ar   
    30   18   17 1    
    31   19   17 ar   
    32   61   18 1    
    33   62   18 1    
    34   20   19 ar   
    35   21   20 ar   
    36   63   20 1    
    37   22   21 ar   
    38   24   23 1    
    39   40   23 2    
    40   25   24 2    
    41   26   24 am   
    42   27   26 am   
    43   64   26 1    
    44   28   27 2    
    45   29   27 1    
    46   30   29 2    
    47   40   29 1    
    48   31   30 1    
    49   32   31 ar   
    50   38   31 ar   
    51   33   32 ar   
    52   65   32 1    
    53   34   33 1    
    54   35   33 ar   
    55   74   34 1    
    56   75   34 1    
    57   76   34 1    
    58   36   35 1    
    59   37   35 ar   
    60   77   36 1    
    61   78   36 1    
    62   79   36 1    
    63   38   37 ar   
    64   66   37 1    
    65   39   38 1    
    66   40   39 1    
    67   41   39 1    
    68   42   41 1    
    69   67   41 1    
    70   68   41 1    
    71   43   42 1    
    72   44   42 1    
    73   69   42 1    
    74   82   43 1    
    75   45   44 1    
    76   46   44 1    
    77   70   44 1    
    78   83   45 1    
    79   47   46 1    
    80   48   46 1    
    81   71   46 1    
    82   84   47 1    
    83   49   48 1    
    84   72   48 1    
    85   73   48 1    
    86   50   49 1    
    87   51   50 ar   
    88   52   50 ar   
    89   53   50 1    
@<TRIPOS>SUBSTRUCTURE
     1 FAD609      1 GROUP   
@<TRIPOS>SET

