#    Name: 2rgo_FAD_2_INTS_M
#    Modification time : Mon Mar 24 23:56:27 2014

@<TRIPOS>MOLECULE
2rgo_FAD_2_INTS_M
  133     0     9     0     0
SMALL
NO_CHARGES


@<TRIPOS>ATOM
      1 N         -68.9460  -38.1140   -9.8115 N.am      2 SEC2        0.0000 
      2 N         -69.8520  -36.9700  -10.0420 N.am      8 SEL2        0.0000 
      3 N         -68.0400  -39.2580   -9.5810 N.am      5 SEP2        0.0000 
      4 N         -68.1640  -38.8445  -12.2000 N.am      2 SEC2        0.0000 
      5 N         -68.7870  -37.5480  -12.2870 N.am      8 SEL2        0.0000 
      6 N         -67.5410  -40.1410  -12.1130 N.am      5 SEP2        0.0000 
      7 N         -68.4720  -38.1415  -13.4345 N.am      2 SEC2        0.0000 
      8 N         -68.1570  -38.7350  -14.5820 N.am      5 SEP2        0.0000 
      9 CA        -68.5130  -34.4725  -12.6995 C.3       3 GLC5        0.0000 
     10 CA        -69.8680  -34.1090  -10.9550 C.3       9 GLL5        0.0000 
     11 CA        -67.1580  -34.8360  -14.4440 C.3       6 GLP5        0.0000 
     12 CA        -71.8500  -34.7445  -10.8600 C.3       3 GLC5        0.0000 
     13 CA        -73.8320  -35.3800  -10.7650 C.3       6 GLP5        0.0000 
     14 CA        -68.9515  -31.4340  -11.3330 C.3       3 GLC5        0.0000 
     15 CA        -68.8680  -33.1560  -10.2930 C.3       9 GLL5        0.0000 
     16 CA        -69.0350  -29.7120  -12.3730 C.3       6 GLP5        0.0000 
     17 CA        -69.6795  -33.9860   -8.4105 C.3       3 GLC5        0.0000 
     18 CA        -70.4910  -34.8160   -6.5280 C.3       6 GLP5        0.0000 
     19 CA        -67.2105  -35.7530   -8.9790 C.3       3 GLC5        0.0000 
     20 CA        -68.0510  -33.8260   -9.1840 C.3       9 GLL5        0.0000 
     21 CA        -66.3700  -37.6800   -8.7740 C.3       6 GLP5        0.0000 
     22 CA        -68.7150  -34.7460   -7.8165 C.3       3 GLC5        0.0000 
     23 CA        -69.3790  -35.6660   -6.4490 C.3       6 GLP5        0.0000 
     24 O         -65.6325  -32.8340   -9.3040 O.2       1 ALC1        0.0000 
     25 O         -66.7320  -34.1050   -9.6610 O.2       7 ALL1        0.0000 
     26 O         -64.5330  -31.5630   -8.9470 O.2       4 ALP1        0.0000 
     27 O         -66.1270  -32.9195  -10.2930 O.2       1 ALC1        0.0000 
     28 O         -65.5220  -31.7340  -10.9250 O.2       4 ALP1        0.0000 
     29 N         -65.9305  -33.5450   -6.8630 N.am      2 SEC2        0.0000 
     30 N         -66.6350  -32.5540   -7.7000 N.am      8 SEL2        0.0000 
     31 N         -65.2260  -34.5360   -6.0260 N.am      5 SEP2        0.0000 
     32 O         -65.5840  -32.0585   -8.3235 O.2       1 ALC1        0.0000 
     33 O         -66.6350  -32.5540   -7.7000 O.2       7 ALL1        0.0000 
     34 CA        -68.7865  -30.6150  -10.5725 C.3       3 GLC5        0.0000 
     35 CA        -68.5380  -31.5180   -8.7720 C.3       9 GLL5        0.0000 
     36 CA        -68.3315  -29.2715   -5.3040 C.3       3 GLC5        0.0000 
     37 CA        -69.6080  -28.7650   -6.6460 C.3       9 GLL5        0.0000 
     38 CA        -67.0550  -29.7780   -3.9620 C.3       6 GLP5        0.0000 
     39 CA        -70.2915  -26.7835   -8.1955 C.3       3 GLC5        0.0000 
     40 CA        -69.4490  -27.4270   -6.3040 C.3       9 GLL5        0.0000 
     41 CA        -71.1340  -26.1400  -10.0870 C.3       6 GLP5        0.0000 
     42 CA        -67.6030  -28.1280   -6.2315 C.3       3 GLC5        0.0000 
     43 CA        -65.7570  -28.8290   -6.1590 C.3       6 GLP5        0.0000 
     44 CA        -68.1870  -26.3330   -4.8795 C.3       3 GLC5        0.0000 
     45 CA        -66.9250  -25.2390   -3.4550 C.3       6 GLP5        0.0000 
     46 CA        -69.6925  -25.3465   -6.8690 C.3       3 GLC5        0.0000 
     47 CA        -69.9360  -23.2660   -7.4340 C.3       6 GLP5        0.0000 
     48 O         -70.1175  -25.4150   -4.8600 O.2       1 ALC1        0.0000 
     49 O         -70.0870  -26.9050   -5.2620 O.2       7 ALL1        0.0000 
     50 O         -70.1480  -23.9250   -4.4580 O.2       4 ALP1        0.0000 
     51 N         -68.2200  -25.2535   -6.6390 N.am      2 SEC2        0.0000 
     52 N         -68.5760  -26.6800   -6.9940 N.am      8 SEL2        0.0000 
     53 N         -67.8640  -23.8270   -6.2840 N.am      5 SEP2        0.0000 
     54 CA        -69.4995  -26.6685   -9.0330 C.3       3 GLC5        0.0000 
     55 CA        -67.8650  -27.1970   -7.9790 C.3       9 GLL5        0.0000 
     56 CA        -66.2245  -27.7250   -9.3765 C.3       3 GLC5        0.0000 
     57 CA        -64.5840  -28.2530  -10.7740 C.3       6 GLP5        0.0000 
     58 CA        -66.8110  -28.0130   -7.0690 C.3       3 GLC5        0.0000 
     59 CA        -66.7585  -25.9340   -6.8170 C.3       3 GLC5        0.0000 
     60 CA        -65.6520  -24.6710   -5.6550 C.3       6 GLP5        0.0000 
     61 CA        -68.9005  -25.2315   -7.7065 C.3       3 GLC5        0.0000 
     62 N         -66.4330  -28.4070   -8.3455 N.am      2 SEC2        0.0000 
     63 N         -67.9850  -28.4670   -8.3240 N.am      8 SEL2        0.0000 
     64 N         -64.8810  -28.3470   -8.3670 N.am      5 SEP2        0.0000 
     65 CA        -67.2990  -29.0525   -6.9220 C.3       3 GLC5        0.0000 
     66 CA        -68.8410  -29.2760   -7.6850 C.3       9 GLL5        0.0000 
     67 N         -74.8255  -46.4740  -19.3610 N.am      2 SEC2        0.0000 
     68 N         -73.4960  -45.8110  -18.4760 N.am      8 SEL2        0.0000 
     69 N         -76.1550  -47.1370  -20.2460 N.am      5 SEP2        0.0000 
     70 N         -72.9065  -44.7230  -19.5130 N.am      2 SEC2        0.0000 
     71 N         -72.3170  -43.6350  -20.5500 N.am      5 SEP2        0.0000 
     72 N         -73.8455  -45.6625  -19.9400 N.am      2 SEC2        0.0000 
     73 N         -74.1950  -45.5140  -21.4040 N.am      5 SEP2        0.0000 
     74 CA        -71.6305  -49.0295   -7.1970 C.3       3 GLC5        0.0000 
     75 CA        -71.4190  -48.4600   -9.0190 C.3       9 GLL5        0.0000 
     76 CA        -71.8420  -49.5990   -5.3750 C.3       6 GLP5        0.0000 
     77 CA        -71.1630  -43.7485   -9.7250 C.3       3 GLC5        0.0000 
     78 CA        -71.7200  -45.5480   -8.9730 C.3       9 GLL5        0.0000 
     79 CA        -70.6060  -41.9490  -10.4770 C.3       6 GLP5        0.0000 
     80 CA        -70.3890  -45.1540   -7.4180 C.3       3 GLC5        0.0000 
     81 CA        -69.0580  -44.7600   -5.8630 C.3       6 GLP5        0.0000 
     82 CA        -72.1085  -44.3370   -7.3620 C.3       3 GLC5        0.0000 
     83 CA        -72.4970  -43.1260   -5.7510 C.3       6 GLP5        0.0000 
     84 CA        -71.3795  -43.7825  -10.9695 C.3       3 GLC5        0.0000 
     85 CA        -72.1530  -45.6160  -11.4620 C.3       9 GLL5        0.0000 
     86 CA        -74.3410  -45.4665  -13.4115 C.3       3 GLC5        0.0000 
     87 CA        -72.8870  -44.1550  -13.7820 C.3       9 GLL5        0.0000 
     88 CA        -75.7950  -46.7780  -13.0410 C.3       6 GLP5        0.0000 
     89 CA        -71.1720  -42.9650  -16.1930 C.3       3 GLC5        0.0000 
     90 CA        -71.8510  -43.1560  -14.3060 C.3       9 GLL5        0.0000 
     91 CA        -70.4930  -42.7740  -18.0800 C.3       6 GLP5        0.0000 
     92 CA        -73.6040  -41.5435  -12.3005 C.3       3 GLC5        0.0000 
     93 CA        -72.3150  -41.7550  -13.8890 C.3       9 GLL5        0.0000 
     94 CA        -74.8930  -41.3320  -10.7120 C.3       6 GLP5        0.0000 
     95 CA        -70.9555  -41.6845  -16.2060 C.3       3 GLC5        0.0000 
     96 CA        -71.4180  -40.5950  -14.3320 C.3       9 GLL5        0.0000 
     97 O         -69.1220  -39.7655  -14.2155 O.2       1 ALC1        0.0000 
     98 O         -70.0870  -40.7960  -13.8490 O.2       7 ALL1        0.0000 
     99 O         -68.1570  -38.7350  -14.5820 O.2       4 ALP1        0.0000 
    100 CA        -71.0120  -39.9130  -11.9405 C.3       3 GLC5        0.0000 
    101 CA        -71.9590  -39.2660  -13.7910 C.3       9 GLL5        0.0000 
    102 CA        -70.0650  -40.5600  -10.0900 C.3       6 GLP5        0.0000 
    103 CA        -73.6700  -39.7300  -12.6935 C.3       3 GLC5        0.0000 
    104 CA        -75.3810  -40.1940  -11.5960 C.3       6 GLP5        0.0000 
    105 N         -72.9270  -35.9755  -15.3050 N.am      2 SEC2        0.0000 
    106 N         -72.8560  -36.2700  -13.9130 N.am      8 SEL2        0.0000 
    107 N         -72.9980  -35.6810  -16.6970 N.am      5 SEP2        0.0000 
    108 N         -70.2785  -35.5490  -15.8870 N.am      2 SEC2        0.0000 
    109 N         -70.3870  -35.8140  -14.3560 N.am      8 SEL2        0.0000 
    110 N         -70.1700  -35.2840  -17.4180 N.am      5 SEP2        0.0000 
    111 CA        -71.0460  -32.6728  -10.5510 C.3       3 GLC5        0.0000 
    112 CA        -72.7240  -31.7130  -10.4780 C.3       6 GLP5        0.0000 
    113 CA        -67.6983  -31.8253   -6.4700 C.3       3 GLC5        0.0000 
    114 CA        -67.1290  -31.5060   -4.5160 C.3       6 GLP5        0.0000 
    115 CA        -69.3792  -33.4802   -7.4760 C.3       3 GLC5        0.0000 
    116 CA        -67.9970  -32.7710   -8.0760 C.3       9 GLL5        0.0000 
    117 CA        -71.5573  -28.0575   -6.6680 C.3       3 GLC5        0.0000 
    118 CA        -73.5860  -28.0190   -6.8610 C.3       6 GLP5        0.0000 
    119 CA        -71.0240  -49.6905  -12.5590 C.3       3 GLC5        0.0000 
    120 CA        -72.0510  -47.6720  -12.6930 C.3       9 GLL5        0.0000 
    121 CA        -70.1390  -51.3610  -13.0100 C.3       6 GLP5        0.0000 
    122 CA        -73.3580  -47.0312   -9.2765 C.3       3 GLC5        0.0000 
    123 CA        -71.6790  -47.6870  -10.3150 C.3       9 GLL5        0.0000 
    124 CA        -75.1670  -45.9890   -8.8860 C.3       6 GLP5        0.0000 
    125 CA        -69.8955  -47.0154  -11.4010 C.3       3 GLC5        0.0000 
    126 CA        -71.8630  -46.3080  -10.2910 C.3       9 GLL5        0.0000 
    127 CA        -67.9980  -46.8630  -12.1970 C.3       6 GLP5        0.0000 
    128 CA        -70.3821  -46.2614  -12.7555 C.3       3 GLC5        0.0000 
    129 CA        -68.6110  -46.2230  -13.4390 C.3       6 GLP5        0.0000 
    130 CA        -73.5696  -45.8805   -9.7165 C.3       3 GLC5        0.0000 
    131 CA        -70.7683  -39.1132  -15.7623 C.3       3 GLC5        0.0000 
    132 CA        -69.8480  -38.2960  -17.4630 C.3       6 GLP5        0.0000 
    133 CA        -71.1782  -41.7371  -12.3459 C.3       3 GLC5        0.0000 
@<TRIPOS>BOND
@<TRIPOS>SUBSTRUCTURE
     1 ALC1       24 GROUP        1 X    ALC  0     ROOT ALC X 1
     2 SEC2        1 GROUP        1 X    SEC  0     **** SEC X 2
     3 GLC5        9 GROUP        1 X    GLC  0     **** GLC X 6
     4 ALP1       26 GROUP        1 Y    ALP  0     ROOT ALP Y 8
     5 SEP2        3 GROUP        1 Y    SEP  0     **** SEP Y 9
     6 GLP5       11 GROUP        1 Y    GLP  0     **** GLP Y 13
     7 ALL1       25 GROUP        1 Z    ALL  0     ROOT ALL Z 15
     8 SEL2        2 GROUP        1 Z    SEL  0     **** SEL Z 16
     9 GLL5       10 GROUP        1 Z    GLL  0     **** GLL Z 20
@<TRIPOS>SET

