#    Name: 2rgo_FAD_2_ligand
#    Modification time : Mon Mar 24 23:56:27 2014

@<TRIPOS>MOLECULE
2rgo_FAD_2_ligand
   84    89     1     0     0
SMALL
NO_CHARGES


@<TRIPOS>ATOM
      1 PA        -69.6970  -36.6980  -11.4890 P.3       1 FAD1001     0.0000 
      2 O1A       -69.8520  -36.9700  -10.0420 O.co2     1 FAD1001     0.0000 
      3 O2A       -68.7870  -37.5480  -12.2870 O.co2     1 FAD1001     0.0000 
      4 O5B       -69.2370  -35.1650  -11.6890 O.3       1 FAD1001     0.0000 
      5 C5B       -69.8680  -34.1090  -10.9550 C.3       1 FAD1001     0.0000 
      6 C4B       -68.8680  -33.1560  -10.2930 C.3       1 FAD1001     0.0000 
      7 O4B       -69.5360  -32.0570   -9.6500 O.3       1 FAD1001     0.0000 
      8 C3B       -68.0510  -33.8260   -9.1840 C.3       1 FAD1001     0.0000 
      9 O3B       -66.7320  -34.1050   -9.6610 O.3       1 FAD1001     0.0000 
     10 C2B       -67.9970  -32.7710   -8.0760 C.3       1 FAD1001     0.0000 
     11 O2B       -66.6350  -32.5540   -7.7000 O.3       1 FAD1001     0.0000 
     12 C1B       -68.5380  -31.5180   -8.7720 C.3       1 FAD1001     0.0000 
     13 N9A       -69.1380  -30.5670   -7.8040 N.pl3     1 FAD1001     0.0000 
     14 C8A       -70.0580  -30.8540   -6.8840 C.2       1 FAD1001     0.0000 
     15 N7A       -70.3500  -29.7640   -6.1750 N.2       1 FAD1001     0.0000 
     16 C5A       -69.6080  -28.7650   -6.6460 C.ar      1 FAD1001     0.0000 
     17 C6A       -69.4490  -27.4270   -6.3040 C.ar      1 FAD1001     0.0000 
     18 N6A       -70.0870  -26.9050   -5.2620 N.pl3     1 FAD1001     0.0000 
     19 N1A       -68.5760  -26.6800   -6.9940 N.ar      1 FAD1001     0.0000 
     20 C2A       -67.8650  -27.1970   -7.9790 C.ar      1 FAD1001     0.0000 
     21 N3A       -67.9850  -28.4670   -8.3240 N.ar      1 FAD1001     0.0000 
     22 C4A       -68.8410  -29.2760   -7.6850 C.ar      1 FAD1001     0.0000 
     23 N1        -73.0390  -45.6590  -16.2400 N.2       1 FAD1001     0.0000 
     24 C2        -73.2320  -46.3870  -17.4220 C.2       1 FAD1001     0.0000 
     25 O2        -73.4960  -45.8110  -18.4760 O.2       1 FAD1001     0.0000 
     26 N3        -73.0950  -47.7810  -17.4100 N.am      1 FAD1001     0.0000 
     27 C4        -72.7640  -48.4360  -16.2180 C.2       1 FAD1001     0.0000 
     28 O4        -72.7080  -49.6650  -16.1800 O.2       1 FAD1001     0.0000 
     29 C4X       -72.5680  -47.7040  -15.0530 C.2       1 FAD1001     0.0000 
     30 N5        -72.2120  -48.3850  -13.8850 N.2       1 FAD1001     0.0000 
     31 C5X       -72.0510  -47.6720  -12.6930 C.ar      1 FAD1001     0.0000 
     32 C6        -71.7670  -48.3680  -11.5230 C.ar      1 FAD1001     0.0000 
     33 C7        -71.6790  -47.6870  -10.3150 C.ar      1 FAD1001     0.0000 
     34 C7M       -71.4190  -48.4600   -9.0190 C.3       1 FAD1001     0.0000 
     35 C8        -71.8630  -46.3080  -10.2910 C.ar      1 FAD1001     0.0000 
     36 C8M       -71.7200  -45.5480   -8.9730 C.3       1 FAD1001     0.0000 
     37 C9        -72.1530  -45.6160  -11.4620 C.ar      1 FAD1001     0.0000 
     38 C9A       -72.2560  -46.2950  -12.6710 C.ar      1 FAD1001     0.0000 
     39 N10       -72.6060  -45.6110  -13.8450 N.pl3     1 FAD1001     0.0000 
     40 C10       -72.7030  -46.3190  -15.0510 C.2       1 FAD1001     0.0000 
     41 C1'       -72.8870  -44.1550  -13.7820 C.3       1 FAD1001     0.0000 
     42 C2'       -71.8510  -43.1560  -14.3060 C.3       1 FAD1001     0.0000 
     43 O2'       -70.5770  -43.4300  -13.7160 O.3       1 FAD1001     0.0000 
     44 C3'       -72.3150  -41.7550  -13.8890 C.3       1 FAD1001     0.0000 
     45 O3'       -73.6520  -41.5200  -14.3380 O.3       1 FAD1001     0.0000 
     46 C4'       -71.4180  -40.5950  -14.3320 C.3       1 FAD1001     0.0000 
     47 O4'       -70.0870  -40.7960  -13.8490 O.3       1 FAD1001     0.0000 
     48 C5'       -71.9590  -39.2660  -13.7910 C.3       1 FAD1001     0.0000 
     49 O5'       -71.1780  -38.1510  -14.2360 O.3       1 FAD1001     0.0000 
     50 P         -71.4360  -36.6430  -13.7220 P.3       1 FAD1001     0.0000 
     51 O1P       -72.8560  -36.2700  -13.9130 O.co2     1 FAD1001     0.0000 
     52 O2P       -70.3870  -35.8140  -14.3560 O.co2     1 FAD1001     0.0000 
     53 O3P       -71.1780  -36.7060  -12.1320 O.3       1 FAD1001     0.0000 
     54 H         -70.5231  -34.5099  -10.1545 H         1 FAD1001     0.0000 
     55 H         -70.5235  -33.4987  -11.6096 H         1 FAD1001     0.0000 
     56 H         -68.1766  -32.7900  -11.0342 H         1 FAD1001     0.0000 
     57 H         -68.5715  -34.6638   -8.8357 H         1 FAD1001     0.0000 
     58 H         -68.6308  -33.0425   -7.3062 H         1 FAD1001     0.0000 
     59 H         -67.7460  -31.0796   -9.3210 H         1 FAD1001     0.0000 
     60 H         -70.4620  -31.7392   -6.7481 H         1 FAD1001     0.0000 
     61 H         -70.6987  -27.5217   -4.7665 H         1 FAD1001     0.0000 
     62 H         -69.8979  -25.9425   -5.0673 H         1 FAD1001     0.0000 
     63 H         -67.1815  -26.5792   -8.5060 H         1 FAD1001     0.0000 
     64 H         -73.2364  -48.3180  -18.2694 H         1 FAD1001     0.0000 
     65 H         -71.6224  -49.3854  -11.5523 H         1 FAD1001     0.0000 
     66 H         -72.2921  -44.5954  -11.4334 H         1 FAD1001     0.0000 
     67 H         -73.1207  -43.8678  -12.7106 H         1 FAD1001     0.0000 
     68 H         -73.8628  -43.9414  -14.3180 H         1 FAD1001     0.0000 
     69 H         -71.8331  -43.2063  -15.3654 H         1 FAD1001     0.0000 
     70 H         -72.3205  -41.7405  -12.7700 H         1 FAD1001     0.0000 
     71 H         -71.4377  -40.5477  -15.4106 H         1 FAD1001     0.0000 
     72 H         -71.9717  -39.3373  -12.6894 H         1 FAD1001     0.0000 
     73 H         -73.0104  -39.1793  -14.1163 H         1 FAD1001     0.0000 
     74 H         -70.5533  -48.9595   -9.0518 H         1 FAD1001     0.0000 
     75 H         -71.3768  -47.8521   -8.2261 H         1 FAD1001     0.0000 
     76 H         -72.1377  -49.1308   -8.8361 H         1 FAD1001     0.0000 
     77 H         -70.8051  -45.6506   -8.5825 H         1 FAD1001     0.0000 
     78 H         -71.8805  -44.5679   -9.0901 H         1 FAD1001     0.0000 
     79 H         -72.3701  -45.8713   -8.2854 H         1 FAD1001     0.0000 
     80 H         -66.4193  -33.2489  -10.0725 H         1 FAD1001     0.0000 
     81 H         -66.2130  -32.1198   -8.4958 H         1 FAD1001     0.0000 
     82 H         -70.1202  -42.5420  -13.6629 H         1 FAD1001     0.0000 
     83 H         -73.5640  -40.8450  -15.0705 H         1 FAD1001     0.0000 
     84 H         -69.5606  -40.0283  -14.2143 H         1 FAD1001     0.0000 
@<TRIPOS>BOND
     1    2    1 ar   
     2    3    1 ar   
     3    4    1 1    
     4   53    1 1    
     5    5    4 1    
     6    6    5 1    
     7   54    5 1    
     8   55    5 1    
     9    7    6 1    
    10    8    6 1    
    11   56    6 1    
    12   12    7 1    
    13    9    8 1    
    14   10    8 1    
    15   57    8 1    
    16   80    9 1    
    17   11   10 1    
    18   12   10 1    
    19   58   10 1    
    20   81   11 1    
    21   13   12 1    
    22   59   12 1    
    23   14   13 1    
    24   22   13 1    
    25   15   14 2    
    26   60   14 1    
    27   16   15 1    
    28   17   16 ar   
    29   22   16 ar   
    30   18   17 1    
    31   19   17 ar   
    32   61   18 1    
    33   62   18 1    
    34   20   19 ar   
    35   21   20 ar   
    36   63   20 1    
    37   22   21 ar   
    38   24   23 1    
    39   40   23 2    
    40   25   24 2    
    41   26   24 am   
    42   27   26 am   
    43   64   26 1    
    44   28   27 2    
    45   29   27 1    
    46   30   29 2    
    47   40   29 1    
    48   31   30 1    
    49   32   31 ar   
    50   38   31 ar   
    51   33   32 ar   
    52   65   32 1    
    53   34   33 1    
    54   35   33 ar   
    55   74   34 1    
    56   75   34 1    
    57   76   34 1    
    58   36   35 1    
    59   37   35 ar   
    60   77   36 1    
    61   78   36 1    
    62   79   36 1    
    63   38   37 ar   
    64   66   37 1    
    65   39   38 1    
    66   40   39 1    
    67   41   39 1    
    68   42   41 1    
    69   67   41 1    
    70   68   41 1    
    71   43   42 1    
    72   44   42 1    
    73   69   42 1    
    74   82   43 1    
    75   45   44 1    
    76   46   44 1    
    77   70   44 1    
    78   83   45 1    
    79   47   46 1    
    80   48   46 1    
    81   71   46 1    
    82   84   47 1    
    83   49   48 1    
    84   72   48 1    
    85   73   48 1    
    86   50   49 1    
    87   51   50 ar   
    88   52   50 ar   
    89   53   50 1    
@<TRIPOS>SUBSTRUCTURE
     1 FAD1001     1 GROUP   
@<TRIPOS>SET

