#    Name: 4fxf_ATP_2_INTS_M
#    Modification time : Mon Mar 24 21:00:50 2014

@<TRIPOS>MOLECULE
4fxf_ATP_2_INTS_M
   59     0    12     0     0
SMALL
NO_CHARGES


@<TRIPOS>ATOM
      1 NZ          0.2725  -27.8325  124.9340 N.4       2 LYC4        0.0000 
      2 NZ         -0.2510  -27.8750  126.6650 N.4      10 LYL4        0.0000 
      3 NZ          0.7960  -27.7900  123.2030 N.4       6 LYP4        0.0000 
      4 Zn          2.4235  -26.5375  126.9015 Zn        3 ZIC7        0.0000 
      5 Zn          1.5550  -26.3910  127.6200 Zn       11 ZIL7        0.0000 
      6 Zn          3.2920  -26.6840  126.1830 Zn        7 ZIP7        0.0000 
      7 Zn         -0.7245  -24.2435  127.6465 Zn        3 ZIC7        0.0000 
      8 Zn         -0.7130  -25.4280  126.9720 Zn       11 ZIL7        0.0000 
      9 Zn         -0.7360  -23.0590  128.3210 Zn        7 ZIP7        0.0000 
     10 NZ          0.0130  -28.1155  131.4605 N.4       2 LYC4        0.0000 
     11 NZ         -0.8640  -26.4030  131.3720 N.4      10 LYL4        0.0000 
     12 NZ          0.8900  -29.8280  131.5490 N.4       6 LYP4        0.0000 
     13 N          -1.9670  -27.5055  131.7635 N.am      1 SEC2        0.0000 
     14 N          -0.8640  -26.4030  131.3720 N.am      9 SEL2        0.0000 
     15 N          -3.0700  -28.6080  132.1550 N.am      5 SEP2        0.0000 
     16 Zn         -0.6030  -23.7790  128.9910 Zn        3 ZIC7        0.0000 
     17 Zn         -0.4700  -24.4990  129.6610 Zn       11 ZIL7        0.0000 
     18 N          -1.8910  -27.5520  128.6485 N.am      1 SEC2        0.0000 
     19 N          -0.4640  -26.9560  128.9380 N.am      9 SEL2        0.0000 
     20 N          -3.3180  -28.1480  128.3590 N.am      5 SEP2        0.0000 
     21 NZ         -4.2155  -25.4900  126.1780 N.4       2 LYC4        0.0000 
     22 NZ         -4.4400  -25.6230  127.9500 N.4      10 LYL4        0.0000 
     23 NZ         -3.9910  -25.3570  124.4060 N.4       6 LYP4        0.0000 
     24 Zn         -1.6455  -23.4520  128.2430 Zn        3 ZIC7        0.0000 
     25 Zn         -2.5550  -23.8450  128.1650 Zn       11 ZIL7        0.0000 
     26 N          -3.3030  -24.3040  126.8760 N.am      1 SEC2        0.0000 
     27 N          -2.5550  -23.8450  128.1650 N.am      9 SEL2        0.0000 
     28 N          -4.0510  -24.7630  125.5870 N.am      5 SEP2        0.0000 
     29 CA         -5.6295  -22.8830  133.7925 C.3       4 GLC5        0.0000 
     30 CA         -4.4930  -23.8850  132.3060 C.3      12 GLL5        0.0000 
     31 CA         -6.7660  -21.8810  135.2790 C.3       8 GLP5        0.0000 
     32 N          -2.6200  -24.7195  134.8710 N.am      1 SEC2        0.0000 
     33 N          -2.8790  -25.1440  133.6350 N.am      9 SEL2        0.0000 
     34 N          -2.3610  -24.2950  136.1070 N.am      5 SEP2        0.0000 
     35 N          -3.7655  -24.9485  135.4890 N.am      1 SEC2        0.0000 
     36 N          -5.1700  -25.6020  134.8710 N.am      9 SEL2        0.0000 
     37 CA         -7.6560  -24.1995  131.3720 C.3       4 GLC5        0.0000 
     38 CA         -6.4120  -25.1510  132.8440 C.3      12 GLL5        0.0000 
     39 CA         -8.9000  -23.2480  129.9000 C.3       8 GLP5        0.0000 
     40 CA         -6.5890  -23.5160  134.0615 C.3       4 GLC5        0.0000 
     41 CA        -10.3290  -27.5500  133.2440 C.3       4 GLC5        0.0000 
     42 CA         -8.9870  -28.7730  133.6130 C.3      12 GLL5        0.0000 
     43 CA        -11.6710  -26.3270  132.8750 C.3       8 GLP5        0.0000 
     44 CA         -7.4680  -29.8195  132.7245 C.3       4 GLC5        0.0000 
     45 CA         -5.9490  -30.8660  131.8360 C.3       8 GLP5        0.0000 
     46 CA         -6.3125  -28.5645  132.2435 C.3       4 GLC5        0.0000 
     47 CA         -7.8250  -27.1690  132.3350 C.3      12 GLL5        0.0000 
     48 CA         -4.8000  -29.9600  132.1520 C.3       8 GLP5        0.0000 
     49 CA         -5.1925  -21.9805  131.0610 C.3       4 GLC5        0.0000 
     50 CA         -6.2390  -20.3070  130.4550 C.3       8 GLP5        0.0000 
     51 CA         -4.2790  -27.4160  132.2285 C.3       4 GLC5        0.0000 
     52 CA         -4.0060  -25.2510  132.7630 C.3      12 GLL5        0.0000 
     53 CA         -3.9500  -29.2820  131.3440 C.3       8 GLP5        0.0000 
     54 CA        -10.3777  -27.3237  130.6202 C.3       4 GLC5        0.0000 
     55 CA         -8.2670  -27.8500  131.1020 C.3      12 GLL5        0.0000 
     56 CA        -12.0630  -26.1940  130.0560 C.3       8 GLP5        0.0000 
     57 CA         -7.3208  -29.6598  131.5102 C.3       4 GLC5        0.0000 
     58 CA         -9.1180  -29.0570  131.2670 C.3      12 GLL5        0.0000 
     59 CA         -9.9649  -27.0691  132.3174 C.3       4 GLC5        0.0000 
@<TRIPOS>BOND
@<TRIPOS>SUBSTRUCTURE
     1 SEC2       13 GROUP        1 X    SEC  0     ROOT SEC X 2
     2 LYC4        1 GROUP        1 X    LYC  0     **** LYC X 4
     3 ZIC7        4 GROUP        1 X    ZIC  0     **** ZIC X 5
     4 GLC5       29 GROUP        1 X    GLC  0     **** GLC X 6
     5 SEP2       15 GROUP        1 Y    SEP  0     ROOT SEP Y 9
     6 LYP4        3 GROUP        1 Y    LYP  0     **** LYP Y 11
     7 ZIP7        6 GROUP        1 Y    ZIP  0     **** ZIP Y 12
     8 GLP5       31 GROUP        1 Y    GLP  0     **** GLP Y 13
     9 SEL2       14 GROUP        1 Z    SEL  0     ROOT SEL Z 16
    10 LYL4        2 GROUP        1 Z    LYL  0     **** LYL Z 18
    11 ZIL7        5 GROUP        1 Z    ZIL  0     **** ZIL Z 19
    12 GLL5       30 GROUP        1 Z    GLL  0     **** GLL Z 20
@<TRIPOS>SET

