#    Name: 4fxf_ATP_2_ligand
#    Modification time : Mon Mar 24 21:00:50 2014

@<TRIPOS>MOLECULE
4fxf_ATP_2_ligand
   43    45     1     0     0
SMALL
NO_CHARGES


@<TRIPOS>ATOM
      1 PG          0.0720  -26.6280  127.4450 P.3       1 ATP604      0.0000 
      2 O1G        -0.2510  -27.8750  126.6650 O.co2     1 ATP604      0.0000 
      3 O2G         1.5550  -26.3910  127.6200 O.co2     1 ATP604      0.0000 
      4 O3G        -0.7130  -25.4280  126.9720 O.co2     1 ATP604      0.0000 
      5 PB         -1.0470  -25.8600  129.9750 P.3       1 ATP604      0.0000 
      6 O1B        -0.8640  -26.4030  131.3720 O.co2     1 ATP604      0.0000 
      7 O2B        -0.4700  -24.4990  129.6610 O.co2     1 ATP604      0.0000 
      8 O3B        -0.4640  -26.9560  128.9380 O.3       1 ATP604      0.0000 
      9 PA         -3.4840  -24.8410  128.8120 P.3       1 ATP604      0.0000 
     10 O1A        -4.4400  -25.6230  127.9500 O.co2     1 ATP604      0.0000 
     11 O2A        -2.5550  -23.8450  128.1650 O.co2     1 ATP604      0.0000 
     12 O3A        -2.6400  -25.9040  129.6900 O.3       1 ATP604      0.0000 
     13 O5'        -4.3840  -24.0670  129.8990 O.3       1 ATP604      0.0000 
     14 C5'        -3.7990  -23.4230  131.0280 C.3       1 ATP604      0.0000 
     15 C4'        -4.4930  -23.8850  132.3060 C.3       1 ATP604      0.0000 
     16 O4'        -5.9090  -24.0180  132.1200 O.3       1 ATP604      0.0000 
     17 C3'        -4.0060  -25.2510  132.7630 C.3       1 ATP604      0.0000 
     18 O3'        -2.8790  -25.1440  133.6350 O.3       1 ATP604      0.0000 
     19 C2'        -5.2100  -25.8490  133.4630 C.3       1 ATP604      0.0000 
     20 O2'        -5.1700  -25.6020  134.8710 O.3       1 ATP604      0.0000 
     21 C1'        -6.4120  -25.1510  132.8440 C.3       1 ATP604      0.0000 
     22 N9         -7.0830  -26.1250  131.9410 N.pl3     1 ATP604      0.0000 
     23 C8         -7.0350  -26.1280  130.5930 C.2       1 ATP604      0.0000 
     24 N7         -7.7490  -27.1590  130.0700 N.2       1 ATP604      0.0000 
     25 C5         -8.2670  -27.8500  131.1020 C.ar      1 ATP604      0.0000 
     26 C6         -9.1180  -29.0570  131.2670 C.ar      1 ATP604      0.0000 
     27 N6         -9.5720  -29.7480  130.1920 N.pl3     1 ATP604      0.0000 
     28 N1         -9.4280  -29.4450  132.5290 N.ar      1 ATP604      0.0000 
     29 C2         -8.9870  -28.7730  133.6130 C.ar      1 ATP604      0.0000 
     30 N3         -8.2120  -27.6730  133.5380 N.ar      1 ATP604      0.0000 
     31 C4         -7.8250  -27.1690  132.3350 C.ar      1 ATP604      0.0000 
     32 H          -3.8964  -22.3317  130.9704 H         1 ATP604      0.0000 
     33 H          -2.7315  -23.6581  131.1234 H         1 ATP604      0.0000 
     34 H          -4.2839  -23.1789  133.0975 H         1 ATP604      0.0000 
     35 H          -3.8077  -25.8363  131.8883 H         1 ATP604      0.0000 
     36 H          -5.2661  -26.8839  133.2217 H         1 ATP604      0.0000 
     37 H          -7.0669  -24.8624  133.6306 H         1 ATP604      0.0000 
     38 H          -6.5454  -25.4682  130.0509 H         1 ATP604      0.0000 
     39 H          -9.3136  -29.3872  129.2959 H         1 ATP604      0.0000 
     40 H         -10.1250  -30.5572  130.3906 H         1 ATP604      0.0000 
     41 H          -9.2661  -29.1308  134.5767 H         1 ATP604      0.0000 
     42 H          -2.2513  -24.5190  133.1709 H         1 ATP604      0.0000 
     43 H          -4.2141  -25.3844  135.0684 H         1 ATP604      0.0000 
@<TRIPOS>BOND
     1    2    1 ar   
     2    3    1 ar   
     3    4    1 ar   
     4    8    1 1    
     5    6    5 ar   
     6    7    5 ar   
     7    8    5 1    
     8   12    5 1    
     9   10    9 ar   
    10   11    9 ar   
    11   12    9 1    
    12   13    9 1    
    13   14   13 1    
    14   15   14 1    
    15   32   14 1    
    16   33   14 1    
    17   16   15 1    
    18   17   15 1    
    19   34   15 1    
    20   21   16 1    
    21   18   17 1    
    22   19   17 1    
    23   35   17 1    
    24   42   18 1    
    25   20   19 1    
    26   21   19 1    
    27   36   19 1    
    28   43   20 1    
    29   22   21 1    
    30   37   21 1    
    31   23   22 1    
    32   31   22 1    
    33   24   23 2    
    34   38   23 1    
    35   25   24 1    
    36   26   25 ar   
    37   31   25 ar   
    38   27   26 1    
    39   28   26 ar   
    40   39   27 1    
    41   40   27 1    
    42   29   28 ar   
    43   30   29 ar   
    44   41   29 1    
    45   31   30 ar   
@<TRIPOS>SUBSTRUCTURE
     1 ATP604      1 GROUP   
@<TRIPOS>SET

