#    Name: 3e7t_B14_2_INTS_M
#    Modification time : Tue Mar 25 01:04:25 2014

@<TRIPOS>MOLECULE
3e7t_B14_2_INTS_M
   50     0     9     0     0
SMALL
NO_CHARGES


@<TRIPOS>ATOM
      1 CA        128.9605  113.1565   31.5585 C.3       3 GLC5        0.0000 
      2 CA        126.8560  112.9910   31.0580 C.3       9 GLL5        0.0000 
      3 CA        131.0650  113.3220   32.0590 C.3       6 GLP5        0.0000 
      4 O         122.7420  116.3075   33.6750 O.2       1 ALC1        0.0000 
      5 O         123.8500  115.5220   33.8270 O.2       7 ALL1        0.0000 
      6 O         121.6340  117.0930   33.5230 O.2       4 ALP1        0.0000 
      7 CA        127.5050  117.1265   30.1675 C.3       3 GLC5        0.0000 
      8 CA        126.7530  115.3130   30.7920 C.3       9 GLL5        0.0000 
      9 CA        128.2570  118.9400   29.5430 C.3       6 GLP5        0.0000 
     10 CA        126.5035  109.6745   32.9960 C.3       3 GLC5        0.0000 
     11 CA        124.8960  110.7790   33.1440 C.3       9 GLL5        0.0000 
     12 CA        128.1110  108.5700   32.8480 C.3       6 GLP5        0.0000 
     13 CA        125.5645  112.4335   35.7495 C.3       3 GLC5        0.0000 
     14 CA        125.0360  114.4160   35.7120 C.3       9 GLL5        0.0000 
     15 CA        126.0930  110.4510   35.7870 C.3       6 GLP5        0.0000 
     16 CA        124.8545  117.8580   36.3525 C.3       3 GLC5        0.0000 
     17 CA        124.9760  115.6340   36.6330 C.3       9 GLL5        0.0000 
     18 CA        124.7330  120.0820   36.0720 C.3       6 GLP5        0.0000 
     19 CA        123.1775  117.8170   35.8405 C.3       3 GLC5        0.0000 
     20 CA        122.6570  115.8020   36.5090 C.3       9 GLL5        0.0000 
     21 CA        123.6980  119.8320   35.1720 C.3       6 GLP5        0.0000 
     22 N         124.9950  117.8275   39.9610 N.am      2 SEC2        0.0000 
     23 N         124.7600  116.7290   39.1070 N.am      8 SEL2        0.0000 
     24 N         125.2300  118.9260   40.8150 N.am      5 SEP2        0.0000 
     25 O         125.2325  117.3900   30.6760 O.2       1 ALC1        0.0000 
     26 O         124.4620  116.5490   31.8660 O.2       7 ALL1        0.0000 
     27 O         126.0030  118.2310   29.4860 O.2       4 ALP1        0.0000 
     28 O         123.0480  116.8210   32.6945 O.2       1 ALC1        0.0000 
     29 O         123.2815  117.3965   31.7965 O.2       1 ALC1        0.0000 
     30 O         122.1010  118.2440   31.7270 O.2       4 ALP1        0.0000 
     31 CA        124.5700  115.1360   40.3260 C.3       3 GLC5        0.0000 
     32 CA        122.6340  115.9760   39.5960 C.3       9 GLL5        0.0000 
     33 CA        126.5060  114.2960   41.0560 C.3       6 GLP5        0.0000 
     34 CA        118.9965  115.8230   44.1800 C.3       3 GLC5        0.0000 
     35 CA        119.3020  115.5990   42.0750 C.3       9 GLL5        0.0000 
     36 CA        118.6910  116.0470   46.2850 C.3       6 GLP5        0.0000 
     37 CA        118.0915  116.9405   43.0450 C.3       3 GLC5        0.0000 
     38 CA        116.8810  118.2820   44.0150 C.3       6 GLP5        0.0000 
     39 CA        127.2140  116.3388   31.9402 C.3       3 GLC5        0.0000 
     40 CA        127.9110  117.9020   32.8080 C.3       6 GLP5        0.0000 
     41 CA        125.9622  116.1798   33.2463 C.3       3 GLC5        0.0000 
     42 CA        125.1800  114.2930   32.2660 C.3       9 GLL5        0.0000 
     43 CA        127.0820  117.4680   34.0380 C.3       6 GLP5        0.0000 
     44 CA        128.1049  114.9124   30.1234 C.3       3 GLC5        0.0000 
     45 CA        129.5490  115.3610   29.2480 C.3       6 GLP5        0.0000 
     46 CA        125.5933  111.0374   34.3115 C.3       3 GLC5        0.0000 
     47 CA        124.7270  113.1030   32.9340 C.3       9 GLL5        0.0000 
     48 CA        126.0440  116.2465   35.1052 C.3       3 GLC5        0.0000 
     49 CA        123.5922  116.7065   41.6380 C.3       3 GLC5        0.0000 
     50 CA        124.7320  116.8960   43.2430 C.3       6 GLP5        0.0000 
@<TRIPOS>BOND
@<TRIPOS>SUBSTRUCTURE
     1 ALC1        4 GROUP        1 X    ALC  0     ROOT ALC X 1
     2 SEC2       22 GROUP        1 X    SEC  0     **** SEC X 2
     3 GLC5        1 GROUP        1 X    GLC  0     **** GLC X 6
     4 ALP1        6 GROUP        1 Y    ALP  0     ROOT ALP Y 8
     5 SEP2       24 GROUP        1 Y    SEP  0     **** SEP Y 9
     6 GLP5        3 GROUP        1 Y    GLP  0     **** GLP Y 13
     7 ALL1        5 GROUP        1 Z    ALL  0     ROOT ALL Z 15
     8 SEL2       23 GROUP        1 Z    SEL  0     **** SEL Z 16
     9 GLL5        2 GROUP        1 Z    GLL  0     **** GLL Z 20
@<TRIPOS>SET

