#    Name: 3e7t_B14_2_ligand
#    Modification time : Tue Mar 25 01:04:25 2014

@<TRIPOS>MOLECULE
3e7t_B14_2_ligand
   44    47     1     0     0
SMALL
NO_CHARGES


@<TRIPOS>ATOM
      1 C1        125.3370  111.8580   32.5830 C.ar      1 B14906      0.0000 
      2 C2        126.3740  111.8100   31.6610 C.ar      1 B14906      0.0000 
      3 C3        126.8560  112.9910   31.0580 C.ar      1 B14906      0.0000 
      4 C4        126.2810  114.2380   31.3530 C.ar      1 B14906      0.0000 
      5 C4A       125.1800  114.2930   32.2660 C.ar      1 B14906      0.0000 
      6 C5        124.5050  115.4900   32.6430 C.2       1 B14906      0.0000 
      7 N6        123.8500  115.5220   33.8270 N.pl3     1 B14906      0.0000 
      8 C7        123.7790  114.4020   34.7930 C.3       1 B14906      0.0000 
      9 N8        123.7870  113.2090   33.8960 N.3       1 B14906      0.0000 
     10 C8A       124.7270  113.1030   32.9340 C.ar      1 B14906      0.0000 
     11 F9        126.7530  115.3130   30.7920 F         1 B14906      0.0000 
     12 F10       124.8960  110.7790   33.1440 F         1 B14906      0.0000 
     13 C11       125.0360  114.4160   35.7120 C.3       1 B14906      0.0000 
     14 C12       124.9760  115.6340   36.6330 C.3       1 B14906      0.0000 
     15 N13       123.7540  115.4750   37.4690 N.am      1 B14906      0.0000 
     16 C14       122.6570  115.8020   36.5090 C.3       1 B14906      0.0000 
     17 C15       122.4800  114.5500   35.6260 C.3       1 B14906      0.0000 
     18 C16       123.7690  116.0920   38.7180 C.2       1 B14906      0.0000 
     19 O17       124.7600  116.7290   39.1070 O.2       1 B14906      0.0000 
     20 N18       124.4620  116.5490   31.8660 N.pl3     1 B14906      0.0000 
     21 C19       122.6340  115.9760   39.5960 C.ar      1 B14906      0.0000 
     22 C20       122.2710  117.0580   40.4700 C.ar      1 B14906      0.0000 
     23 N21       121.1430  116.8880   41.2880 N.ar      1 B14906      0.0000 
     24 C22       120.3870  115.7120   41.2670 C.ar      1 B14906      0.0000 
     25 C23       120.7340  114.6610   40.4260 C.ar      1 B14906      0.0000 
     26 C24       121.8550  114.7850   39.5920 C.ar      1 B14906      0.0000 
     27 C25       119.3020  115.5990   42.0750 C.1       1 B14906      0.0000 
     28 N26       118.2260  115.4910   42.8440 N.1       1 B14906      0.0000 
     29 H         126.8023  110.9081   31.4081 H         1 B14906      0.0000 
     30 H         127.6396  112.9350   30.3934 H         1 B14906      0.0000 
     31 H         123.3325  116.3933   34.1317 H         1 B14906      0.0000 
     32 H         125.9176  114.4685   35.0916 H         1 B14906      0.0000 
     33 H         125.0444  113.5114   36.3005 H         1 B14906      0.0000 
     34 H         124.9108  116.5243   36.0328 H         1 B14906      0.0000 
     35 H         125.8571  115.6506   37.2499 H         1 B14906      0.0000 
     36 H         122.9323  116.6279   35.8852 H         1 B14906      0.0000 
     37 H         121.7401  115.9891   37.0299 H         1 B14906      0.0000 
     38 H         122.3583  113.6887   36.2457 H         1 B14906      0.0000 
     39 H         121.6521  114.6909   34.9663 H         1 B14906      0.0000 
     40 H         123.9914  117.3490   32.2382 H         1 B14906      0.0000 
     41 H         124.9038  116.4581   30.9735 H         1 B14906      0.0000 
     42 H         122.8155  117.8997   40.4833 H         1 B14906      0.0000 
     43 H         120.1798  113.8014   40.4112 H         1 B14906      0.0000 
     44 H         122.1232  114.0150   38.9701 H         1 B14906      0.0000 
@<TRIPOS>BOND
     1    2    1 ar   
     2   10    1 ar   
     3   12    1 1    
     4    3    2 ar   
     5   29    2 1    
     6    4    3 ar   
     7   30    3 1    
     8    5    4 ar   
     9   11    4 1    
    10    6    5 1    
    11   10    5 ar   
    12    7    6 1    
    13   20    6 2    
    14    8    7 1    
    15   31    7 1    
    16    9    8 1    
    17   13    8 1    
    18   17    8 1    
    19   10    9 1    
    20   14   13 1    
    21   32   13 1    
    22   33   13 1    
    23   15   14 1    
    24   34   14 1    
    25   35   14 1    
    26   16   15 1    
    27   18   15 am   
    28   17   16 1    
    29   36   16 1    
    30   37   16 1    
    31   38   17 1    
    32   39   17 1    
    33   19   18 2    
    34   21   18 1    
    35   40   20 1    
    36   41   20 1    
    37   22   21 ar   
    38   26   21 ar   
    39   23   22 ar   
    40   42   22 1    
    41   24   23 ar   
    42   25   24 ar   
    43   27   24 1    
    44   26   25 ar   
    45   43   25 1    
    46   44   26 1    
    47   28   27 3    
@<TRIPOS>SUBSTRUCTURE
     1 B14906      1 GROUP   
@<TRIPOS>SET

