#    Name: 1d1x_4BT_2_INTS_M
#    Modification time : Mon Mar 24 21:16:55 2014

@<TRIPOS>MOLECULE
1d1x_4BT_2_INTS_M
   41     0     6     0     0
SMALL
NO_CHARGES


@<TRIPOS>ATOM
      1 CA          2.6255    6.7220   69.7765 C.3       2 GLC5        0.0000 
      2 CA          1.2010    7.8960   69.2350 C.3       6 GLL5        0.0000 
      3 CA          4.0500    5.5480   70.3180 C.3       4 GLP5        0.0000 
      4 CA          0.8230    8.4380   71.3120 C.3       2 GLC5        0.0000 
      5 CA          0.4450    8.9800   73.3890 C.3       4 GLP5        0.0000 
      6 CA         -2.7360    4.3630   67.8100 C.3       2 GLC5        0.0000 
      7 CA         -1.3840    5.9520   67.1110 C.3       6 GLL5        0.0000 
      8 CA         -4.0880    2.7740   68.5090 C.3       4 GLP5        0.0000 
      9 CA         -1.4275    6.3680   70.1170 C.3       2 GLC5        0.0000 
     10 CA         -0.7910    6.6890   68.1470 C.3       6 GLL5        0.0000 
     11 CA         -2.0640    6.0470   72.0870 C.3       4 GLP5        0.0000 
     12 O           1.3060   -0.2390   67.2785 O.2       1 ALC1        0.0000 
     13 O           1.7360    0.7030   65.9530 O.2       5 ALL1        0.0000 
     14 O           0.8760   -1.1810   68.6040 O.2       3 ALP1        0.0000 
     15 O           0.1980   -0.1135   67.6230 O.2       1 ALC1        0.0000 
     16 O          -0.4800    0.9540   66.6420 O.2       5 ALL1        0.0000 
     17 O          -0.6725   12.7850   67.0700 O.2       1 ALC1        0.0000 
     18 O          -0.4210   11.6780   66.3280 O.2       5 ALL1        0.0000 
     19 O          -0.9240   13.8920   67.8120 O.2       3 ALP1        0.0000 
     20 O          -1.0000   11.6275   65.1015 O.2       1 ALC1        0.0000 
     21 O          -1.5790   11.5770   63.8750 O.2       3 ALP1        0.0000 
     22 CA          0.6850   11.5355   70.2310 C.3       2 GLC5        0.0000 
     23 CA          0.6690   10.5990   68.5170 C.3       6 GLL5        0.0000 
     24 CA          0.7010   12.4720   71.9450 C.3       4 GLP5        0.0000 
     25 O          -0.8290    9.4100   65.0210 O.2       1 ALC1        0.0000 
     26 O          -0.1300    9.4350   66.2640 O.2       5 ALL1        0.0000 
     27 O          -1.5280    9.3850   63.7780 O.2       3 ALP1        0.0000 
     28 CA         -0.0335    4.7877   67.5570 C.3       2 GLC5        0.0000 
     29 CA          0.9400    3.7990   68.5830 C.3       4 GLP5        0.0000 
     30 CA         -2.2117    7.8572   68.2080 C.3       2 GLC5        0.0000 
     31 CA         -3.3360    9.3940   68.7870 C.3       4 GLP5        0.0000 
     32 CA          0.4941    5.4455   68.4889 C.3       2 GLC5        0.0000 
     33 CA          0.9855    5.0898   67.4758 C.3       2 GLC5        0.0000 
     34 CA          1.3340    6.7500   66.8850 C.3       6 GLL5        0.0000 
     35 CA         -0.1422    3.9540   66.7202 C.3       2 GLC5        0.0000 
     36 CA         -1.2510    4.7890   64.7850 C.3       6 GLL5        0.0000 
     37 CA          0.7215    2.8978   66.9685 C.3       2 GLC5        0.0000 
     38 CA          0.4370    2.6800   64.8150 C.3       6 GLL5        0.0000 
     39 CA         -1.2800   10.6115   68.5838 C.3       2 GLC5        0.0000 
     40 CA         -0.0190   10.5730   66.9120 C.3       6 GLL5        0.0000 
     41 CA         -2.8850   10.6370   69.4530 C.3       4 GLP5        0.0000 
@<TRIPOS>BOND
@<TRIPOS>SUBSTRUCTURE
     1 ALC1       12 GROUP        1 X    ALC  0     ROOT ALC X 1
     2 GLC5        1 GROUP        1 X    GLC  0     **** GLC X 6
     3 ALP1       14 GROUP        1 Y    ALP  0     ROOT ALP Y 8
     4 GLP5        3 GROUP        1 Y    GLP  0     **** GLP Y 13
     5 ALL1       13 GROUP        1 Z    ALL  0     ROOT ALL Z 15
     6 GLL5        2 GROUP        1 Z    GLL  0     **** GLL Z 20
@<TRIPOS>SET

