#    Name: 1d1x_4BT_2_ligand
#    Modification time : Mon Mar 24 21:16:55 2014

@<TRIPOS>MOLECULE
1d1x_4BT_2_ligand
   38    38     1     0     0
SMALL
NO_CHARGES


@<TRIPOS>ATOM
      1 CA          1.7910    9.2260   68.7550 C.3       1 4BT831      0.0000 
      2 CB          1.2010    7.8960   69.2350 C.3       1 4BT831      0.0000 
      3 C4         -0.6300    5.6010   65.9510 C.ar      1 4BT831      0.0000 
      4 C5         -1.3840    5.9520   67.1110 C.ar      1 4BT831      0.0000 
      5 C6         -0.7910    6.6890   68.1470 C.ar      1 4BT831      0.0000 
      6 C1          0.5740    7.0940   68.0500 C.ar      1 4BT831      0.0000 
      7 C2          1.3340    6.7500   66.8850 C.ar      1 4BT831      0.0000 
      8 C3          0.7280    6.0110   65.8520 C.ar      1 4BT831      0.0000 
      9 CD         -1.2510    4.7890   64.7850 C.3       1 4BT831      0.0000 
     10 CC         -1.1980    3.4290   64.9300 C.3       1 4BT831      0.0000 
     11 N1'         1.7360    0.7030   65.9530 N.pl3     1 4BT831      0.0000 
     12 C'          0.5690    1.3130   65.8930 C.2       1 4BT831      0.0000 
     13 S'          0.4370    2.6800   64.8150 S.3       1 4BT831      0.0000 
     14 N2'        -0.4800    0.9540   66.6420 N.pl3     1 4BT831      0.0000 
     15 N1         -0.4210   11.6780   66.3280 N.pl3     1 4BT831      0.0000 
     16 C          -0.0190   10.5730   66.9120 C.2       1 4BT831      0.0000 
     17 S           0.6690   10.5990   68.5170 S.3       1 4BT831      0.0000 
     18 N2         -0.1300    9.4350   66.2640 N.pl3     1 4BT831      0.0000 
     19 H           2.2768    9.1403   67.7749 H         1 4BT831      0.0000 
     20 H           2.5271    9.6365   69.4575 H         1 4BT831      0.0000 
     21 H           0.4249    8.0848   69.9715 H         1 4BT831      0.0000 
     22 H           1.9827    7.2904   69.6849 H         1 4BT831      0.0000 
     23 H          -2.3620    5.6593   67.1771 H         1 4BT831      0.0000 
     24 H          -1.3290    6.9419   68.9779 H         1 4BT831      0.0000 
     25 H           2.3042    7.0433   66.8160 H         1 4BT831      0.0000 
     26 H           1.2667    5.7620   65.0154 H         1 4BT831      0.0000 
     27 H          -0.7307    5.1485   63.8545 H         1 4BT831      0.0000 
     28 H          -2.3020    5.1746   64.6733 H         1 4BT831      0.0000 
     29 H          -1.7381    2.8255   64.1648 H         1 4BT831      0.0000 
     30 H          -1.5259    3.0202   65.9132 H         1 4BT831      0.0000 
     31 H           1.8095   -0.0419   66.6161 H         1 4BT831      0.0000 
     32 H           2.4416    1.0407   65.3300 H         1 4BT831      0.0000 
     33 H          -0.3261    0.2024   67.2834 H         1 4BT831      0.0000 
     34 H          -1.3239    1.4695   66.4933 H         1 4BT831      0.0000 
     35 H          -0.3442   12.5150   66.8697 H         1 4BT831      0.0000 
     36 H          -0.7672   11.5816   65.3948 H         1 4BT831      0.0000 
     37 H           0.1743    8.6181   66.7540 H         1 4BT831      0.0000 
     38 H          -0.5087    9.4899   65.3401 H         1 4BT831      0.0000 
@<TRIPOS>BOND
     1    2    1 1    
     2   17    1 1    
     3   19    1 1    
     4   20    1 1    
     5    6    2 1    
     6   21    2 1    
     7   22    2 1    
     8    4    3 ar   
     9    8    3 ar   
    10    9    3 1    
    11    5    4 ar   
    12   23    4 1    
    13    6    5 ar   
    14   24    5 1    
    15    7    6 ar   
    16    8    7 ar   
    17   25    7 1    
    18   26    8 1    
    19   10    9 1    
    20   27    9 1    
    21   28    9 1    
    22   13   10 1    
    23   29   10 1    
    24   30   10 1    
    25   12   11 2    
    26   31   11 1    
    27   32   11 1    
    28   13   12 1    
    29   14   12 1    
    30   33   14 1    
    31   34   14 1    
    32   16   15 2    
    33   35   15 1    
    34   36   15 1    
    35   17   16 1    
    36   18   16 1    
    37   37   18 1    
    38   38   18 1    
@<TRIPOS>SUBSTRUCTURE
     1 4BT831      1 GROUP   
@<TRIPOS>SET

