#    Name: 3vrw_YS5_1_INTS_M
#    Modification time : Tue Mar 25 01:21:54 2014

@<TRIPOS>MOLECULE
3vrw_YS5_1_INTS_M
  127     0     9     0     0
SMALL
NO_CHARGES


@<TRIPOS>ATOM
      1 CA        -17.0250   31.3080    2.8235 C.3       3 GLC5        0.0000 
      2 CA        -17.0580   29.7140    1.6800 C.3       9 GLL5        0.0000 
      3 CA        -16.9920   32.9020    3.9670 C.3       6 GLP5        0.0000 
      4 CA        -18.4410   31.3125    1.0425 C.3       3 GLC5        0.0000 
      5 CA        -19.8240   32.9110    0.4050 C.3       6 GLP5        0.0000 
      6 N         -19.1685   30.3710    2.7380 N.am      2 SEC2        0.0000 
      7 N         -18.4610   29.8360    1.6620 N.am      8 SEL2        0.0000 
      8 N         -19.8760   30.9060    3.8140 N.am      5 SEP2        0.0000 
      9 O         -18.9570   30.8380    0.6115 O.2       1 ALC1        0.0000 
     10 O         -18.4610   29.8360    1.6620 O.2       7 ALL1        0.0000 
     11 O         -19.4530   31.8400   -0.4390 O.2       4 ALP1        0.0000 
     12 CA        -16.5065   30.8105    3.7990 C.3       3 GLC5        0.0000 
     13 CA        -16.0210   28.7190    3.6310 C.3       9 GLL5        0.0000 
     14 CA        -14.5110   30.0305    2.9085 C.3       3 GLC5        0.0000 
     15 CA        -13.0010   31.3420    2.1860 C.3       6 GLP5        0.0000 
     16 CA        -18.2265   26.1135    2.6625 C.3       3 GLC5        0.0000 
     17 CA        -16.8740   27.3260    1.8350 C.3       9 GLL5        0.0000 
     18 CA        -19.5790   24.9010    3.4900 C.3       6 GLP5        0.0000 
     19 CA        -18.7935   27.4290    1.0185 C.3       3 GLC5        0.0000 
     20 CA        -20.7130   27.5320    0.2020 C.3       6 GLP5        0.0000 
     21 N         -16.7030   26.1295    4.0950 N.am      2 SEC2        0.0000 
     22 N         -16.3680   26.3250    2.7020 N.am      8 SEL2        0.0000 
     23 N         -17.0380   25.9340    5.4880 N.am      5 SEP2        0.0000 
     24 O         -15.1785   25.8100    2.5715 O.2       1 ALC1        0.0000 
     25 O         -16.3680   26.3250    2.7020 O.2       7 ALL1        0.0000 
     26 O         -13.9890   25.2950    2.4410 O.2       4 ALP1        0.0000 
     27 CA        -14.2530   27.8280    0.6965 C.3       3 GLC5        0.0000 
     28 CA        -16.1550   27.2480    0.4500 C.3       9 GLL5        0.0000 
     29 CA        -12.3510   28.4080    0.9430 C.3       6 GLP5        0.0000 
     30 CA        -16.4815   25.0930    0.2275 C.3       3 GLC5        0.0000 
     31 CA        -16.8080   22.9380    0.0050 C.3       6 GLP5        0.0000 
     32 CA        -18.4050   29.1580   -2.5965 C.3       3 GLC5        0.0000 
     33 CA        -16.8280   28.2850   -1.6890 C.3       9 GLL5        0.0000 
     34 CA        -19.9820   30.0310   -3.5040 C.3       6 GLP5        0.0000 
     35 CA        -18.3950   27.8400   -4.5845 C.3       3 GLC5        0.0000 
     36 CA        -16.6050   26.8300   -3.7790 C.3       9 GLL5        0.0000 
     37 CA        -20.1850   28.8500   -5.3900 C.3       6 GLP5        0.0000 
     38 CA        -18.0540   28.9375   -5.1260 C.3       3 GLC5        0.0000 
     39 CA        -16.7910   27.9200   -4.6130 C.3       9 GLL5        0.0000 
     40 CA        -19.3170   29.9550   -5.6390 C.3       6 GLP5        0.0000 
     41 CA        -17.2070   29.0680   -6.2655 C.3       3 GLC5        0.0000 
     42 CA        -15.6380   28.0100   -5.6040 C.3       9 GLL5        0.0000 
     43 CA        -18.7760   30.1260   -6.9270 C.3       6 GLP5        0.0000 
     44 CA        -15.1075   30.0045   -6.1270 C.3       3 GLC5        0.0000 
     45 CA        -14.5770   31.9990   -6.6500 C.3       6 GLP5        0.0000 
     46 CA        -12.4495   27.4225   -4.8355 C.3       3 GLC5        0.0000 
     47 CA        -13.8870   25.8920   -4.1980 C.3       9 GLL5        0.0000 
     48 CA        -11.0120   28.9530   -5.4730 C.3       6 GLP5        0.0000 
     49 CA        -13.2835   27.3475   -2.8640 C.3       3 GLC5        0.0000 
     50 CA        -12.6800   28.8030   -1.5300 C.3       6 GLP5        0.0000 
     51 CA        -12.8800   24.3880   -3.4685 C.3       3 GLC5        0.0000 
     52 CA        -11.8730   22.8840   -2.7390 C.3       6 GLP5        0.0000 
     53 CA        -16.6575   23.6115   -1.8400 C.3       3 GLC5        0.0000 
     54 CA        -16.5070   24.2850   -3.6850 C.3       9 GLL5        0.0000 
     55 CA        -15.9095   21.3680   -4.0645 C.3       3 GLC5        0.0000 
     56 CA        -15.5660   23.3010   -4.4870 C.3       9 GLL5        0.0000 
     57 CA        -16.2530   19.4350   -3.6420 C.3       6 GLP5        0.0000 
     58 CA        -11.9345   26.1860   -7.5385 C.3       3 GLC5        0.0000 
     59 CA        -13.1000   24.4760   -7.3190 C.3       9 GLL5        0.0000 
     60 CA        -10.7690   27.8960   -7.7580 C.3       6 GLP5        0.0000 
     61 CA        -14.2720   25.0835   -9.0075 C.3       3 GLC5        0.0000 
     62 CA        -15.4440   25.6910  -10.6960 C.3       6 GLP5        0.0000 
     63 CA        -11.6470   24.7450   -8.7480 C.3       3 GLC5        0.0000 
     64 CA        -10.1940   25.0140  -10.1770 C.3       6 GLP5        0.0000 
     65 CA        -12.1660   20.6315   -8.6890 C.3       3 GLC5        0.0000 
     66 CA        -11.7340   20.2500   -6.5280 C.3       9 GLL5        0.0000 
     67 CA        -12.5980   21.0130  -10.8500 C.3       6 GLP5        0.0000 
     68 CA        -10.1375   17.8990   -6.8700 C.3       3 GLC5        0.0000 
     69 CA        -10.2080   20.1110   -6.5340 C.3       9 GLL5        0.0000 
     70 CA        -10.0670   15.6870   -7.2060 C.3       6 GLP5        0.0000 
     71 CA         -8.1505   21.8695   -7.4035 C.3       3 GLC5        0.0000 
     72 CA         -9.5530   21.4420   -6.1500 C.3       9 GLL5        0.0000 
     73 CA         -6.7480   22.2970   -8.6570 C.3       6 GLP5        0.0000 
     74 CA         -8.4610   22.4370   -4.8360 C.3       3 GLC5        0.0000 
     75 CA         -7.3690   23.4320   -3.5220 C.3       6 GLP5        0.0000 
     76 CA        -10.7130   22.1630   -4.4445 C.3       3 GLC5        0.0000 
     77 CA         -7.6305   20.5215   -6.1180 C.3       3 GLC5        0.0000 
     78 CA         -5.7080   19.6010   -6.0860 C.3       6 GLP5        0.0000 
     79 N         -12.3575   19.5420   -8.8345 N.am      2 SEC2        0.0000 
     80 N         -12.1730   19.2780   -7.4570 N.am      8 SEL2        0.0000 
     81 N         -12.5420   19.8060  -10.2120 N.am      5 SEP2        0.0000 
     82 N         -13.1780   18.4150   -7.1315 N.am      2 SEC2        0.0000 
     83 N         -14.1830   17.5520   -6.8060 N.am      5 SEP2        0.0000 
     84 CA        -12.0965   21.4080   -3.9375 C.3       3 GLC5        0.0000 
     85 CA        -12.3200   19.9320   -5.1360 C.3       9 GLL5        0.0000 
     86 CA        -14.2865   19.6835   -4.3890 C.3       3 GLC5        0.0000 
     87 CA        -13.8090   18.7855   -6.3695 C.3       3 GLC5        0.0000 
     88 CA        -15.2980   17.6390   -7.6030 C.3       6 GLP5        0.0000 
     89 CA        -11.8060   19.7495   -2.9315 C.3       3 GLC5        0.0000 
     90 CA        -11.7910   18.5850   -4.6030 C.3       9 GLL5        0.0000 
     91 CA        -11.8210   20.9140   -1.2600 C.3       6 GLP5        0.0000 
     92 CA        -10.9290   17.1360   -5.9045 C.3       3 GLC5        0.0000 
     93 CA        -11.9705   17.5150   -3.0780 C.3       3 GLC5        0.0000 
     94 CA        -12.1500   16.4450   -1.5530 C.3       6 GLP5        0.0000 
     95 CA        -17.5550   19.4800   -5.9070 C.3       3 GLC5        0.0000 
     96 CA        -17.8020   20.5860   -7.8100 C.3       9 GLL5        0.0000 
     97 CA        -17.3080   18.3740   -4.0040 C.3       6 GLP5        0.0000 
     98 CA        -19.2795   20.3410   -7.1200 C.3       3 GLC5        0.0000 
     99 CA        -20.7570   20.0960   -6.4300 C.3       6 GLP5        0.0000 
    100 CA        -14.8962   30.5190    1.5705 C.3       3 GLC5        0.0000 
    101 CA        -16.5250   29.6780    0.2300 C.3       9 GLL5        0.0000 
    102 CA        -14.5867   28.9203   -0.7945 C.3       3 GLC5        0.0000 
    103 CA        -16.3193   31.4235    0.5360 C.3       3 GLC5        0.0000 
    104 CA        -15.8470   33.1510    0.1170 C.3       6 GLP5        0.0000 
    105 CA        -17.9390   28.9798    4.0675 C.3       3 GLC5        0.0000 
    106 CA        -19.4360   29.0270    5.3010 C.3       6 GLP5        0.0000 
    107 CA        -18.1642   27.3942   -0.4875 C.3       3 GLC5        0.0000 
    108 CA        -20.0200   26.9660   -1.0260 C.3       6 GLP5        0.0000 
    109 CA        -14.6202   28.2317   -1.7935 C.3       3 GLC5        0.0000 
    110 CA        -18.3014   27.1056   -1.9720 C.3       3 GLC5        0.0000 
    111 CA        -16.2930   27.0360   -2.4250 C.3       9 GLL5        0.0000 
    112 CA        -15.5335   27.6100   -7.6340 C.3       3 GLC5        0.0000 
    113 CA        -15.6390   27.8950   -9.3640 C.3       6 GLP5        0.0000 
    114 CA        -13.5875   23.2958   -3.9138 C.3       3 GLC5        0.0000 
    115 CA        -15.0380   24.1140   -5.6900 C.3       9 GLL5        0.0000 
    116 CA        -12.3701   22.5798   -4.7094 C.3       3 GLC5        0.0000 
    117 CA        -12.1300   21.6790   -6.9640 C.3       9 GLL5        0.0000 
    118 CA        -13.1194   21.4676   -9.0980 C.3       3 GLC5        0.0000 
    119 CA        -13.5890   22.1300   -6.6340 C.3       9 GLL5        0.0000 
    120 CA        -15.2270   19.8135   -7.6562 C.3       3 GLC5        0.0000 
    121 CA        -14.4220   21.9400   -7.8930 C.3       9 GLL5        0.0000 
    122 CA        -17.5580   20.0100   -9.6595 C.3       3 GLC5        0.0000 
    123 CA        -16.7760   21.3960   -8.6000 C.3       9 GLL5        0.0000 
    124 CA        -17.8270   19.0290  -11.1140 C.3       6 GLP5        0.0000 
    125 CA        -16.2935   19.3150   -7.9040 C.3       3 GLC5        0.0000 
    126 CA        -18.3233   22.6055   -8.0497 C.3       3 GLC5        0.0000 
    127 CA        -19.5790   24.0600   -8.1630 C.3       6 GLP5        0.0000 
@<TRIPOS>BOND
@<TRIPOS>SUBSTRUCTURE
     1 ALC1        9 GROUP        1 X    ALC  0     ROOT ALC X 1
     2 SEC2        6 GROUP        1 X    SEC  0     **** SEC X 2
     3 GLC5        1 GROUP        1 X    GLC  0     **** GLC X 6
     4 ALP1       11 GROUP        1 Y    ALP  0     ROOT ALP Y 8
     5 SEP2        8 GROUP        1 Y    SEP  0     **** SEP Y 9
     6 GLP5        3 GROUP        1 Y    GLP  0     **** GLP Y 13
     7 ALL1       10 GROUP        1 Z    ALL  0     ROOT ALL Z 15
     8 SEL2        7 GROUP        1 Z    SEL  0     **** SEL Z 16
     9 GLL5        2 GROUP        1 Z    GLL  0     **** GLL Z 20
@<TRIPOS>SET

