#    Name: 3vrw_YS5_1_ligand
#    Modification time : Tue Mar 25 01:21:54 2014

@<TRIPOS>MOLECULE
3vrw_YS5_1_ligand
   87    89     1     0     0
SMALL
NO_CHARGES


@<TRIPOS>ATOM
      1 CAV       -16.5250   29.6780    0.2300 C.3       1 YS5501      0.0000 
      2 CBB       -17.0580   29.7140    1.6800 C.3       1 YS5501      0.0000 
      3 OAG       -18.4610   29.8360    1.6620 O.3       1 YS5501      0.0000 
      4 CAY       -16.6680   28.5780    2.3940 C.2       1 YS5501      0.0000 
      5 CAA       -16.0210   28.7190    3.6310 C.2       1 YS5501      0.0000 
      6 CBC       -16.8740   27.3260    1.8350 C.3       1 YS5501      0.0000 
      7 OAH       -16.3680   26.3250    2.7020 O.3       1 YS5501      0.0000 
      8 CAW       -16.1550   27.2480    0.4500 C.3       1 YS5501      0.0000 
      9 CAZ       -16.4620   28.3970   -0.3480 C.2       1 YS5501      0.0000 
     10 CAJ       -16.8280   28.2850   -1.6890 C.2       1 YS5501      0.0000 
     11 CAK       -16.2930   27.0360   -2.4250 C.2       1 YS5501      0.0000 
     12 CBA       -16.6050   26.8300   -3.7790 C.2       1 YS5501      0.0000 
     13 CAQ       -16.7910   27.9200   -4.6130 C.3       1 YS5501      0.0000 
     14 CAP       -15.6380   28.0100   -5.6040 C.3       1 YS5501      0.0000 
     15 CAT       -15.2180   26.6400   -6.2040 C.3       1 YS5501      0.0000 
     16 CBI       -15.1000   25.5780   -5.1480 C.3       1 YS5501      0.0000 
     17 CAF       -13.8870   25.8920   -4.1980 C.3       1 YS5501      0.0000 
     18 CBG       -16.4550   25.5880   -4.4750 C.3       1 YS5501      0.0000 
     19 CAU       -16.5070   24.2850   -3.6850 C.3       1 YS5501      0.0000 
     20 CAS       -15.5660   23.3010   -4.4870 C.3       1 YS5501      0.0000 
     21 CBF       -15.0380   24.1140   -5.6900 C.3       1 YS5501      0.0000 
     22 CBD       -13.6200   23.6140   -6.1570 C.3       1 YS5501      0.0000 
     23 CAE       -13.1000   24.4760   -7.3190 C.3       1 YS5501      0.0000 
     24 CBE       -13.5890   22.1300   -6.6340 C.3       1 YS5501      0.0000 
     25 CAX       -12.1300   21.6790   -6.9640 C.3       1 YS5501      0.0000 
     26 CBH       -11.7340   20.2500   -6.5280 C.3       1 YS5501      0.0000 
     27 CAN       -10.2080   20.1110   -6.5340 C.3       1 YS5501      0.0000 
     28 CAD        -9.5530   21.4420   -6.1500 C.3       1 YS5501      0.0000 
     29 OAI       -12.1730   19.2780   -7.4570 O.3       1 YS5501      0.0000 
     30 CAM       -12.3200   19.9320   -5.1360 C.3       1 YS5501      0.0000 
     31 CAC       -11.7910   18.5850   -4.6030 C.3       1 YS5501      0.0000 
     32 CAR       -14.4220   21.9400   -7.8930 C.3       1 YS5501      0.0000 
     33 CAO       -15.8900   22.0360   -7.5260 C.3       1 YS5501      0.0000 
     34 CAL       -16.7760   21.3960   -8.6000 C.3       1 YS5501      0.0000 
     35 CAB       -17.8020   20.5860   -7.8100 C.3       1 YS5501      0.0000 
     36 H         -15.5226   30.1764    0.2491 H         1 YS5501      0.0000 
     37 H         -17.1742   30.3712   -0.3628 H         1 YS5501      0.0000 
     38 H         -16.6168   30.6204    2.1324 H         1 YS5501      0.0000 
     39 H         -17.9303   27.1531    1.6312 H         1 YS5501      0.0000 
     40 H         -16.4814   26.3156   -0.0264 H         1 YS5501      0.0000 
     41 H         -15.0807   27.1618    0.6532 H         1 YS5501      0.0000 
     42 H         -17.3780   28.9090   -2.1919 H         1 YS5501      0.0000 
     43 H         -15.7287   26.4096   -1.8827 H         1 YS5501      0.0000 
     44 H         -16.8240   28.8754   -4.0647 H         1 YS5501      0.0000 
     45 H         -17.7207   27.8531   -5.2008 H         1 YS5501      0.0000 
     46 H         -14.7620   28.4518   -5.1077 H         1 YS5501      0.0000 
     47 H         -15.9177   28.6775   -6.4318 H         1 YS5501      0.0000 
     48 H         -14.2602   26.7716   -6.7150 H         1 YS5501      0.0000 
     49 H         -15.9656   26.3506   -6.9478 H         1 YS5501      0.0000 
     50 H         -17.1834   25.5004   -5.2982 H         1 YS5501      0.0000 
     51 H         -17.4863   23.8862   -3.6873 H         1 YS5501      0.0000 
     52 H         -16.1024   24.4191   -2.7173 H         1 YS5501      0.0000 
     53 H         -16.1450   22.4810   -4.8281 H         1 YS5501      0.0000 
     54 H         -14.7607   23.0153   -3.8594 H         1 YS5501      0.0000 
     55 H         -15.7500   24.0207   -6.4797 H         1 YS5501      0.0000 
     56 H         -12.9277   23.7181   -5.3330 H         1 YS5501      0.0000 
     57 H         -13.9655   21.5007   -5.8582 H         1 YS5501      0.0000 
     58 H         -11.4320   22.4009   -6.4948 H         1 YS5501      0.0000 
     59 H         -11.9800   21.7721   -8.0582 H         1 YS5501      0.0000 
     60 H          -9.8783   19.8226   -7.5269 H         1 YS5501      0.0000 
     61 H          -9.9148   19.3481   -5.8200 H         1 YS5501      0.0000 
     62 H         -13.4036   19.8856   -5.2087 H         1 YS5501      0.0000 
     63 H         -12.0418   20.7229   -4.4441 H         1 YS5501      0.0000 
     64 H         -14.2161   20.9660   -8.3172 H         1 YS5501      0.0000 
     65 H         -14.1746   22.7134   -8.6083 H         1 YS5501      0.0000 
     66 H         -16.1710   23.0850   -7.4143 H         1 YS5501      0.0000 
     67 H         -16.0631   21.5278   -6.5754 H         1 YS5501      0.0000 
     68 H         -16.1922   20.7471   -9.2047 H         1 YS5501      0.0000 
     69 H         -17.2670   22.1551   -9.1570 H         1 YS5501      0.0000 
     70 H         -13.0226   25.9294   -4.6994 H         1 YS5501      0.0000 
     71 H         -13.9957   26.7718   -3.7353 H         1 YS5501      0.0000 
     72 H         -13.7832   25.1973   -3.4862 H         1 YS5501      0.0000 
     73 H         -12.1990   24.1744   -7.6309 H         1 YS5501      0.0000 
     74 H         -13.7109   24.4408   -8.1099 H         1 YS5501      0.0000 
     75 H         -13.0132   25.4375   -7.0583 H         1 YS5501      0.0000 
     76 H          -8.5551   21.3780   -6.1484 H         1 YS5501      0.0000 
     77 H          -9.7987   22.1739   -6.7856 H         1 YS5501      0.0000 
     78 H          -9.8290   21.7419   -5.2368 H         1 YS5501      0.0000 
     79 H         -10.7949   18.5860   -4.5144 H         1 YS5501      0.0000 
     80 H         -12.1652   18.3697   -3.7010 H         1 YS5501      0.0000 
     81 H         -12.0307   17.8261   -5.2085 H         1 YS5501      0.0000 
     82 H         -17.3665   19.8856   -7.2445 H         1 YS5501      0.0000 
     83 H         -18.3400   21.1648   -7.1972 H         1 YS5501      0.0000 
     84 H         -18.4480   20.1167   -8.4121 H         1 YS5501      0.0000 
     85 H         -18.6612   30.4019    0.8622 H         1 YS5501      0.0000 
     86 H         -15.4347   26.1561    2.3852 H         1 YS5501      0.0000 
     87 H         -11.6420   19.7660   -6.7641 H         1 YS5501      0.0000 
@<TRIPOS>BOND
     1    2    1 1    
     2    9    1 1    
     3   36    1 1    
     4   37    1 1    
     5    3    2 1    
     6    4    2 1    
     7   38    2 1    
     8   85    3 1    
     9    5    4 2    
    10    6    4 1    
    11    7    6 1    
    12    8    6 1    
    13   39    6 1    
    14   86    7 1    
    15    9    8 1    
    16   40    8 1    
    17   41    8 1    
    18   10    9 2    
    19   11   10 1    
    20   42   10 1    
    21   12   11 2    
    22   43   11 1    
    23   13   12 1    
    24   18   12 1    
    25   14   13 1    
    26   44   13 1    
    27   45   13 1    
    28   15   14 1    
    29   46   14 1    
    30   47   14 1    
    31   16   15 1    
    32   48   15 1    
    33   49   15 1    
    34   17   16 1    
    35   18   16 1    
    36   21   16 1    
    37   70   17 1    
    38   71   17 1    
    39   72   17 1    
    40   19   18 1    
    41   50   18 1    
    42   20   19 1    
    43   51   19 1    
    44   52   19 1    
    45   21   20 1    
    46   53   20 1    
    47   54   20 1    
    48   22   21 1    
    49   55   21 1    
    50   23   22 1    
    51   24   22 1    
    52   56   22 1    
    53   73   23 1    
    54   74   23 1    
    55   75   23 1    
    56   25   24 1    
    57   32   24 1    
    58   57   24 1    
    59   26   25 1    
    60   58   25 1    
    61   59   25 1    
    62   27   26 1    
    63   29   26 1    
    64   30   26 1    
    65   28   27 1    
    66   60   27 1    
    67   61   27 1    
    68   76   28 1    
    69   77   28 1    
    70   78   28 1    
    71   87   29 1    
    72   31   30 1    
    73   62   30 1    
    74   63   30 1    
    75   79   31 1    
    76   80   31 1    
    77   81   31 1    
    78   33   32 1    
    79   64   32 1    
    80   65   32 1    
    81   34   33 1    
    82   66   33 1    
    83   67   33 1    
    84   35   34 1    
    85   68   34 1    
    86   69   34 1    
    87   82   35 1    
    88   83   35 1    
    89   84   35 1    
@<TRIPOS>SUBSTRUCTURE
     1 YS5501      1 GROUP   
@<TRIPOS>SET

