#    Name: 4iar_ERM_1_INTS_M
#    Modification time : Tue Mar 25 03:33:08 2014

@<TRIPOS>MOLECULE
4iar_ERM_1_INTS_M
   97     0    12     0     0
SMALL
NO_CHARGES


@<TRIPOS>ATOM
      1 CA         -3.4135  -21.6880   23.5290 C.3       4 GLC5        0.0000 
      2 CA         -5.2790  -20.6210   23.2280 C.3      12 GLL5        0.0000 
      3 CA         -1.5480  -22.7550   23.8300 C.3       8 GLP5        0.0000 
      4 CA         -4.7935  -20.9235   25.3565 C.3       4 GLC5        0.0000 
      5 CA         -4.3080  -21.2260   27.4850 C.3       8 GLP5        0.0000 
      6 CA         -5.2330  -18.3105   18.8535 C.3       4 GLC5        0.0000 
      7 CA         -6.8680  -16.9170   19.0890 C.3      12 GLL5        0.0000 
      8 CA         -3.5980  -19.7040   18.6180 C.3       8 GLP5        0.0000 
      9 CA         -5.5495  -16.3085   20.0920 C.3       4 GLC5        0.0000 
     10 CA         -4.2310  -15.7000   21.0950 C.3       8 GLP5        0.0000 
     11 CA         -8.2725  -16.3280   20.6375 C.3       4 GLC5        0.0000 
     12 CA         -9.6770  -15.7390   22.1860 C.3       8 GLP5        0.0000 
     13 CA         -7.4405  -14.9350   18.4570 C.3       4 GLC5        0.0000 
     14 CA         -8.0130  -12.9530   17.8250 C.3       8 GLP5        0.0000 
     15 CA         -6.3325  -17.2055   17.3725 C.3       4 GLC5        0.0000 
     16 CA         -5.7970  -17.4940   15.6560 C.3       8 GLP5        0.0000 
     17 CA        -15.9935  -18.1895   18.2650 C.3       4 GLC5        0.0000 
     18 CA        -13.7950  -17.9920   18.1670 C.3      12 GLL5        0.0000 
     19 CA        -18.1920  -18.3870   18.3630 C.3       8 GLP5        0.0000 
     20 CA        -17.0960  -17.2685   19.4000 C.3       4 GLC5        0.0000 
     21 CA        -16.0000  -16.1500   20.4370 C.3      12 GLL5        0.0000 
     22 OD1        -8.2550  -19.0755   17.9835 O.co2     3 ASC3        0.0000 
     23 OD1        -7.7210  -18.0660   19.4930 O.co2    11 ASL3        0.0000 
     24 OD1        -8.7890  -20.0850   16.4740 O.co2     7 ASP3        0.0000 
     25 OD1        -7.4770  -19.1790   18.7485 O.co2     3 ASC3        0.0000 
     26 OD1        -7.2330  -20.2920   18.0040 O.co2     7 ASP3        0.0000 
     27 O          -7.4770  -19.1790   18.7485 O.2       1 ALC1        0.0000 
     28 O          -7.7210  -18.0660   19.4930 O.2       9 ALL1        0.0000 
     29 O          -7.2330  -20.2920   18.0040 O.2       5 ALP1        0.0000 
     30 CA        -13.5965  -12.0905   16.3140 C.3       4 GLC5        0.0000 
     31 CA        -14.9800  -13.5870   17.0410 C.3      12 GLL5        0.0000 
     32 CA        -12.2130  -10.5940   15.5870 C.3       8 GLP5        0.0000 
     33 CA        -12.3680  -14.8735   18.3400 C.3       4 GLC5        0.0000 
     34 CA        -14.4270  -15.6970   18.5240 C.3      12 GLL5        0.0000 
     35 CA        -10.3090  -14.0500   18.1560 C.3       8 GLP5        0.0000 
     36 CA        -15.3080  -18.6970   15.1725 C.3       4 GLC5        0.0000 
     37 CA        -14.2680  -18.9810   17.1160 C.3      12 GLL5        0.0000 
     38 CA        -16.3480  -18.4130   13.2290 C.3       8 GLP5        0.0000 
     39 CA        -13.8150  -20.0085   15.5100 C.3       4 GLC5        0.0000 
     40 CA        -13.3620  -21.0360   13.9040 C.3       8 GLP5        0.0000 
     41 CA        -14.1975  -20.8345   17.2355 C.3       4 GLC5        0.0000 
     42 CA        -14.1270  -22.6880   17.3550 C.3       8 GLP5        0.0000 
     43 CA        -15.9390  -19.9210   17.8560 C.3       4 GLC5        0.0000 
     44 CA        -17.6100  -20.8610   18.5960 C.3       8 GLP5        0.0000 
     45 CA        -14.6515  -14.2770   22.5315 C.3       4 GLC5        0.0000 
     46 CA        -15.3640  -15.6280   21.7010 C.3      12 GLL5        0.0000 
     47 CA        -13.9390  -12.9260   23.3620 C.3       8 GLP5        0.0000 
     48 CA         -6.6065  -21.5880   21.1465 C.3       4 GLC5        0.0000 
     49 CA         -6.3190  -19.4240   21.1140 C.3      12 GLL5        0.0000 
     50 CA         -6.8940  -23.7520   21.1790 C.3       8 GLP5        0.0000 
     51 CA         -4.7650  -19.8895   20.6880 C.3       4 GLC5        0.0000 
     52 CA         -3.2110  -20.3550   20.2620 C.3       8 GLP5        0.0000 
     53 CA         -4.8600  -17.9360   20.6820 C.3       4 GLC5        0.0000 
     54 CA         -3.4010  -16.4480   20.2500 C.3       8 GLP5        0.0000 
     55 N         -15.7550  -20.3370   20.2550 N.am      2 SEC2        0.0000 
     56 N         -15.1470  -18.8790   19.9770 N.am     10 SEL2        0.0000 
     57 N         -16.3630  -21.7950   20.5330 N.am      6 SEP2        0.0000 
     58 CA        -11.9990  -15.9555   25.2055 C.3       4 GLC5        0.0000 
     59 CA        -12.8000  -17.4230   23.9000 C.3      12 GLL5        0.0000 
     60 CA        -11.1980  -14.4880   26.5110 C.3       8 GLP5        0.0000 
     61 CA         -5.8920  -17.0795   21.0250 C.3       4 GLC5        0.0000 
     62 CA         -7.5530  -18.4590   20.9550 C.3      12 GLL5        0.0000 
     63 CA         -8.1200  -17.1220   22.0475 C.3       4 GLC5        0.0000 
     64 CA         -8.6870  -15.7850   23.1400 C.3       8 GLP5        0.0000 
     65 CA         -9.7040  -15.8480   18.6045 C.3       4 GLC5        0.0000 
     66 CA         -9.0990  -17.6460   19.0530 C.3      12 GLL5        0.0000 
     67 CA         -6.3298  -22.0358   22.0195 C.3       4 GLC5        0.0000 
     68 CA         -6.2520  -20.0180   22.4920 C.3      12 GLL5        0.0000 
     69 CA         -4.4882  -20.3373   21.5610 C.3       4 GLC5        0.0000 
     70 CA         -9.2040  -21.7688   27.1228 C.3       4 GLC5        0.0000 
     71 CA         -9.4030  -20.4110   25.2090 C.3      12 GLL5        0.0000 
     72 CA         -9.6670  -22.8840   28.9020 C.3       8 GLP5        0.0000 
     73 CA         -7.5853  -22.6275   24.2715 C.3       4 GLC5        0.0000 
     74 CA         -8.0790  -20.8960   25.4780 C.3      12 GLL5        0.0000 
     75 CA         -7.5690  -24.4440   23.5420 C.3       8 GLP5        0.0000 
     76 CA         -5.9547  -21.0185   26.2430 C.3       4 GLC5        0.0000 
     77 CA         -7.1240  -20.7260   24.5240 C.3      12 GLL5        0.0000 
     78 CA         -8.8219  -21.7473   22.6681 C.3       4 GLC5        0.0000 
     79 CA         -7.4020  -20.0990   23.3010 C.3      12 GLL5        0.0000 
     80 CA         -9.3490  -23.5980   21.9470 C.3       8 GLP5        0.0000 
     81 CA        -18.1797  -11.8627   17.7317 C.3       4 GLC5        0.0000 
     82 CA        -17.2520  -13.4310   17.9460 C.3      12 GLL5        0.0000 
     83 CA        -19.6170  -10.6770   17.9260 C.3       8 GLP5        0.0000 
     84 CA        -15.1046  -12.0829   18.4426 C.3       4 GLC5        0.0000 
     85 CA        -14.3480  -10.8480   19.5960 C.3       8 GLP5        0.0000 
     86 CA        -15.8332  -15.4895   24.0318 C.3       4 GLC5        0.0000 
     87 CA        -16.6080  -14.8350   25.8980 C.3       8 GLP5        0.0000 
     88 CA        -16.5590  -17.0873   24.5377 C.3       4 GLC5        0.0000 
     89 CA        -14.9100  -18.6200   24.0440 C.3      12 GLL5        0.0000 
     90 CA        -17.9050  -16.0010   25.4820 C.3       8 GLP5        0.0000 
     91 CA        -14.6359  -19.9251   23.4309 C.3       4 GLC5        0.0000 
     92 CA        -15.5160  -17.7270   23.1430 C.3      12 GLL5        0.0000 
     93 CA        -14.3970  -21.7100   23.1770 C.3       8 GLP5        0.0000 
     94 CA         -9.6625  -16.9240   20.7420 C.3       4 GLC5        0.0000 
     95 CA        -10.1970  -18.5720   19.5430 C.3      12 GLL5        0.0000 
     96 CA         -9.5452  -17.3983   21.7255 C.3       4 GLC5        0.0000 
     97 CA         -9.9840  -19.1230   20.9300 C.3      12 GLL5        0.0000 
@<TRIPOS>BOND
@<TRIPOS>SUBSTRUCTURE
     1 ALC1       27 GROUP        1 X    ALC  0     ROOT ALC X 1
     2 SEC2       55 GROUP        1 X    SEC  0     **** SEC X 2
     3 ASC3       22 GROUP        1 X    ASC  0     **** ASC X 3
     4 GLC5        1 GROUP        1 X    GLC  0     **** GLC X 6
     5 ALP1       29 GROUP        1 Y    ALP  0     ROOT ALP Y 8
     6 SEP2       57 GROUP        1 Y    SEP  0     **** SEP Y 9
     7 ASP3       24 GROUP        1 Y    ASP  0     **** ASP Y 10
     8 GLP5        3 GROUP        1 Y    GLP  0     **** GLP Y 13
     9 ALL1       28 GROUP        1 Z    ALL  0     ROOT ALL Z 15
    10 SEL2       56 GROUP        1 Z    SEL  0     **** SEL Z 16
    11 ASL3       23 GROUP        1 Z    ASL  0     **** ASL Z 17
    12 GLL5        2 GROUP        1 Z    GLL  0     **** GLL Z 20
@<TRIPOS>SET

