#    Name: 4iar_ERM_1_ligand
#    Modification time : Tue Mar 25 03:33:09 2014

@<TRIPOS>MOLECULE
4iar_ERM_1_ligand
   79    86     1     0     0
SMALL
NO_CHARGES


@<TRIPOS>ATOM
      1 C1         -5.2790  -20.6210   23.2280 C.2       1 ERM2001     0.0000 
      2 N1         -5.7670  -21.0350   24.4180 N.pl3     1 ERM2001     0.0000 
      3 O1        -11.8370  -16.8650   19.9650 O.2       1 ERM2001     0.0000 
      4 C10        -9.6800  -19.7850   23.9700 C.ar      1 ERM2001     0.0000 
      5 C11        -9.4030  -20.4110   25.2090 C.ar      1 ERM2001     0.0000 
      6 C12        -8.0790  -20.8960   25.4780 C.ar      1 ERM2001     0.0000 
      7 C13        -7.1240  -20.7260   24.5240 C.ar      1 ERM2001     0.0000 
      8 C14        -7.4020  -20.0990   23.3010 C.ar      1 ERM2001     0.0000 
      9 C15        -6.8680  -16.9170   19.0890 C.3       1 ERM2001     0.0000 
     10 C16       -11.5890  -17.8930   19.3670 C.2       1 ERM2001     0.0000 
     11 C17       -13.7950  -17.9920   18.1670 C.3       1 ERM2001     0.0000 
     12 C18       -14.7410  -17.9310   19.3350 C.2       1 ERM2001     0.0000 
     13 C19       -16.0000  -16.1500   20.4370 C.3       1 ERM2001     0.0000 
     14 N2         -7.7210  -18.0660   19.4930 N.4       1 ERM2001     0.0000 
     15 C2         -6.2520  -20.0180   22.4920 C.2       1 ERM2001     0.0000 
     16 O2        -13.7620  -16.6430   17.6890 O.3       1 ERM2001     0.0000 
     17 C20       -16.8590  -15.0360   19.8170 C.2       1 ERM2001     0.0000 
     18 C21       -17.2520  -13.4310   17.9460 C.3       1 ERM2001     0.0000 
     19 C22       -16.2330  -12.6660   17.1290 C.3       1 ERM2001     0.0000 
     20 C23       -14.9800  -13.5870   17.0410 C.3       1 ERM2001     0.0000 
     21 C24       -15.4570  -14.8580   17.7680 C.3       1 ERM2001     0.0000 
     22 C25       -14.4270  -15.6970   18.5240 C.3       1 ERM2001     0.0000 
     23 C26       -14.2680  -18.9810   17.1160 C.3       1 ERM2001     0.0000 
     24 C27       -15.3640  -15.6280   21.7010 C.3       1 ERM2001     0.0000 
     25 C28       -14.7530  -16.6600   22.6300 C.ar      1 ERM2001     0.0000 
     26 C29       -13.4090  -16.4960   23.0340 C.ar      1 ERM2001     0.0000 
     27 C3         -6.3190  -19.4240   21.1140 C.3       1 ERM2001     0.0000 
     28 N3        -12.4630  -18.4930   18.5240 N.am      1 ERM2001     0.0000 
     29 O3        -15.1470  -18.8790   19.9770 O.2       1 ERM2001     0.0000 
     30 C30       -12.8000  -17.4230   23.9000 C.ar      1 ERM2001     0.0000 
     31 C31       -13.5570  -18.4870   24.4090 C.ar      1 ERM2001     0.0000 
     32 C32       -14.9100  -18.6200   24.0440 C.ar      1 ERM2001     0.0000 
     33 C33       -15.5160  -17.7270   23.1430 C.ar      1 ERM2001     0.0000 
     34 C4         -7.5530  -18.4590   20.9550 C.3       1 ERM2001     0.0000 
     35 N4        -15.0470  -16.6310   19.4630 N.am      1 ERM2001     0.0000 
     36 O4        -17.8450  -14.6000   20.4360 O.2       1 ERM2001     0.0000 
     37 C5         -9.0990  -17.6460   19.0530 C.3       1 ERM2001     0.0000 
     38 N5        -16.5410  -14.4900   18.6520 N.am      1 ERM2001     0.0000 
     39 O5        -13.4960  -14.9000   19.1730 O.3       1 ERM2001     0.0000 
     40 C6        -10.1970  -18.5720   19.5430 C.3       1 ERM2001     0.0000 
     41 C7         -9.9840  -19.1230   20.9300 C.2       1 ERM2001     0.0000 
     42 C8         -8.8430  -18.9920   21.6000 C.2       1 ERM2001     0.0000 
     43 C9         -8.6950  -19.6030   22.9850 C.ar      1 ERM2001     0.0000 
     44 H          -4.3543  -20.7363   22.9312 H         1 ERM2001     0.0000 
     45 H          -5.2658  -21.4852   25.1160 H         1 ERM2001     0.0000 
     46 H         -10.6454  -19.4505   23.7873 H         1 ERM2001     0.0000 
     47 H         -10.1291  -20.5204   25.9080 H         1 ERM2001     0.0000 
     48 H          -7.8952  -21.3489   26.3668 H         1 ERM2001     0.0000 
     49 H         -16.6961  -16.9523   20.7147 H         1 ERM2001     0.0000 
     50 H          -7.4252  -18.9177   18.8530 H         1 ERM2001     0.0000 
     51 H         -17.9992  -13.8425   17.2763 H         1 ERM2001     0.0000 
     52 H         -17.7255  -12.7479   18.6426 H         1 ERM2001     0.0000 
     53 H         -15.9592  -11.7620   17.6248 H         1 ERM2001     0.0000 
     54 H         -16.5997  -12.4918   16.1425 H         1 ERM2001     0.0000 
     55 H         -14.1875  -13.1464   17.5699 H         1 ERM2001     0.0000 
     56 H         -14.7783  -13.8033   16.0338 H         1 ERM2001     0.0000 
     57 H         -15.9018  -15.5221   16.9753 H         1 ERM2001     0.0000 
     58 H         -16.1248  -15.0424   22.2728 H         1 ERM2001     0.0000 
     59 H         -14.5750  -14.8852   21.4281 H         1 ERM2001     0.0000 
     60 H         -12.8727  -15.6903   22.6904 H         1 ERM2001     0.0000 
     61 H          -6.4145  -20.2093   20.3632 H         1 ERM2001     0.0000 
     62 H          -5.4183  -18.8466   20.9022 H         1 ERM2001     0.0000 
     63 H         -12.2003  -19.4130   18.0562 H         1 ERM2001     0.0000 
     64 H         -11.8184  -17.3195   24.1529 H         1 ERM2001     0.0000 
     65 H         -13.1306  -19.1656   25.0433 H         1 ERM2001     0.0000 
     66 H         -15.4683  -19.3896   24.4468 H         1 ERM2001     0.0000 
     67 H         -16.4841  -17.8478   22.8669 H         1 ERM2001     0.0000 
     68 H          -7.2686  -17.5253   21.5061 H         1 ERM2001     0.0000 
     69 H          -9.1333  -17.6037   17.9509 H         1 ERM2001     0.0000 
     70 H          -9.3036  -16.6252   19.4184 H         1 ERM2001     0.0000 
     71 H         -10.2133  -19.4477   18.8321 H         1 ERM2001     0.0000 
     72 H         -10.8169  -19.6198   21.3206 H         1 ERM2001     0.0000 
     73 H          -5.8958  -17.1128   19.2177 H         1 ERM2001     0.0000 
     74 H          -6.9945  -16.6813   18.1254 H         1 ERM2001     0.0000 
     75 H          -7.0745  -16.0959   19.6212 H         1 ERM2001     0.0000 
     76 H         -13.6412  -19.0243   16.3380 H         1 ERM2001     0.0000 
     77 H         -14.3420  -19.9076   17.4846 H         1 ERM2001     0.0000 
     78 H         -15.1677  -18.7367   16.7543 H         1 ERM2001     0.0000 
     79 H         -12.8088  -15.5370   19.5222 H         1 ERM2001     0.0000 
@<TRIPOS>BOND
     1    2    1 1    
     2   15    1 2    
     3   44    1 1    
     4    7    2 1    
     5   45    2 1    
     6   10    3 2    
     7    5    4 ar   
     8   43    4 ar   
     9   46    4 1    
    10    6    5 ar   
    11   47    5 1    
    12    7    6 ar   
    13   48    6 1    
    14    8    7 ar   
    15   15    8 1    
    16   43    8 ar   
    17   14    9 1    
    18   73    9 1    
    19   74    9 1    
    20   75    9 1    
    21   28   10 am   
    22   40   10 1    
    23   12   11 1    
    24   16   11 1    
    25   23   11 1    
    26   28   11 1    
    27   29   12 2    
    28   35   12 am   
    29   17   13 1    
    30   24   13 1    
    31   35   13 1    
    32   49   13 1    
    33   34   14 1    
    34   37   14 1    
    35   50   14 1    
    36   27   15 1    
    37   22   16 1    
    38   36   17 2    
    39   38   17 am   
    40   19   18 1    
    41   38   18 1    
    42   51   18 1    
    43   52   18 1    
    44   20   19 1    
    45   53   19 1    
    46   54   19 1    
    47   21   20 1    
    48   55   20 1    
    49   56   20 1    
    50   22   21 1    
    51   38   21 1    
    52   57   21 1    
    53   35   22 1    
    54   39   22 1    
    55   76   23 1    
    56   77   23 1    
    57   78   23 1    
    58   25   24 1    
    59   58   24 1    
    60   59   24 1    
    61   26   25 ar   
    62   33   25 ar   
    63   30   26 ar   
    64   60   26 1    
    65   34   27 1    
    66   61   27 1    
    67   62   27 1    
    68   63   28 1    
    69   31   30 ar   
    70   64   30 1    
    71   32   31 ar   
    72   65   31 1    
    73   33   32 ar   
    74   66   32 1    
    75   67   33 1    
    76   42   34 1    
    77   68   34 1    
    78   40   37 1    
    79   69   37 1    
    80   70   37 1    
    81   79   39 1    
    82   41   40 1    
    83   71   40 1    
    84   42   41 2    
    85   72   41 1    
    86   43   42 1    
@<TRIPOS>SUBSTRUCTURE
     1 ERM2001     1 GROUP   
@<TRIPOS>SET

