#    Name: 1YFL_4_CAVITY_N1_ALL.mol2
#    Modification time : Mon Mar 10 20:30:17 2014

@<TRIPOS>MOLECULE
1YFL_4_CAVITY_N1_ALL.mol2
   58     0     5     0     0
SMALL
NO_CHARGES


@<TRIPOS>ATOM
      1 O         130.9788   94.4025   23.5080 O.2       2 ALA2        0.0000 
      2 CZ        132.8216   93.3528   23.5536 C.ar      4 PHE5        0.0000 
      3 O         131.9544   93.9268   22.4727 O.2       2 ALA2        0.0000 
      4 CA        131.0871   94.5009   21.3918 C.3       5 GLY6        0.0000 
      5 CZ        132.9299   93.4511   21.4373 C.ar      4 PHE5        0.0000 
      6 CA        132.0627   94.0252   20.3564 C.3       5 GLY6        0.0000 
      7 CZ        133.0382   93.5495   19.3210 C.ar      4 PHE5        0.0000 
      8 NZ        130.2105   86.4673   19.9105 N.2       3 LYS4        0.0000 
      9 NZ        129.3432   87.0414   18.8296 N.2       3 LYS4        0.0000 
     10 N         132.0533   85.4176   19.9560 N.2       2 ALA2        0.0000 
     11 CZ        131.1860   85.9916   18.8751 C.ar      4 PHE5        0.0000 
     12 CZ        130.3188   86.5657   17.7942 C.ar      4 PHE5        0.0000 
     13 N         133.0289   84.9419   18.9207 N.2       2 ALA2        0.0000 
     14 OG        132.1616   85.5159   17.8398 O.2       1 SER1        0.0000 
     15 N         132.6934   95.2285   22.5710 N.2       2 ALA2        0.0000 
     16 CA        131.8261   95.8025   21.4901 C.3       5 GLY6        0.0000 
     17 CZ        131.2154   92.6252   22.3744 C.ar      4 PHE5        0.0000 
     18 CA        130.3481   93.1992   21.2935 C.3       5 GLY6        0.0000 
     19 CZ        132.1909   92.1495   21.3390 C.ar      4 PHE5        0.0000 
     20 CA        131.3237   92.7235   20.2581 C.3       5 GLY6        0.0000 
     21 CA        130.4564   93.2976   19.1772 C.3       5 GLY6        0.0000 
     22 CZ        133.1665   91.6738   20.3037 C.ar      4 PHE5        0.0000 
     23 CA        132.2992   92.2478   19.2228 C.3       5 GLY6        0.0000 
     24 CZ        130.7129   89.5463   21.1424 C.ar      4 PHE5        0.0000 
     25 NZ        129.8457   90.1203   20.0615 N.2       3 LYS4        0.0000 
     26 CA        128.9784   90.6943   18.9806 C.3       5 GLY6        0.0000 
     27 CZ        131.6885   89.0706   20.1071 C.ar      4 PHE5        0.0000 
     28 CA        130.8212   89.6446   19.0262 C.3       5 GLY6        0.0000 
     29 CA        129.9540   90.2186   17.9453 C.3       5 GLY6        0.0000 
     30 CA        132.6641   88.5949   19.0717 C.3       5 GLY6        0.0000 
     31 CA        131.7968   89.1689   17.9908 C.3       5 GLY6        0.0000 
     32 CZ        130.4763   91.3236   22.2761 C.ar      4 PHE5        0.0000 
     33 CZ        131.4519   90.8479   21.2407 C.ar      4 PHE5        0.0000 
     34 CA        130.5847   91.4219   20.1598 C.3       5 GLY6        0.0000 
     35 CA        129.7174   91.9959   19.0789 C.3       5 GLY6        0.0000 
     36 CZ        132.4275   90.3722   20.2054 C.ar      4 PHE5        0.0000 
     37 CA        131.5602   90.9462   19.1245 C.3       5 GLY6        0.0000 
     38 CZ        130.6930   91.5202   18.0435 C.ar      4 PHE5        0.0000 
     39 NZ        130.9495   87.7690   20.0088 N.2       3 LYS4        0.0000 
     40 NZ        130.0822   88.3430   18.9279 N.2       3 LYS4        0.0000 
     41 CZ        129.2150   88.9170   17.8470 C.ar      4 PHE5        0.0000 
     42 CZ        131.9251   87.2933   18.9734 C.ar      4 PHE5        0.0000 
     43 CZ        131.0578   87.8673   17.8925 C.ar      4 PHE5        0.0000 
     44 CZ        132.9006   86.8176   17.9381 C.ar      4 PHE5        0.0000 
     45 CZ        133.6689   94.7528   21.5356 C.ar      4 PHE5        0.0000 
     46 N         132.8017   95.3268   20.4547 N.2       2 ALA2        0.0000 
     47 CA        130.8119   81.0371   18.6258 C.3       5 GLY6        0.0000 
     48 N         131.4426   82.2404   20.8404 N.2       2 ALA2        0.0000 
     49 N         130.5753   82.8144   19.7594 N.2       2 ALA2        0.0000 
     50 CZ        129.7080   83.3884   18.6785 C.ar      4 PHE5        0.0000 
     51 N         131.5509   82.3387   18.7241 N.2       2 ALA2        0.0000 
     52 CZ        130.6836   82.9127   17.6432 C.ar      4 PHE5        0.0000 
     53 N         130.7036   80.9387   20.7421 N.2       2 ALA2        0.0000 
     54 O         129.8363   81.5128   19.6612 O.2       2 ALA2        0.0000 
     55 N         131.3143   84.1160   19.8577 N.2       2 ALA2        0.0000 
     56 CZ        130.4470   84.6900   18.7768 C.ar      4 PHE5        0.0000 
     57 NZ        132.2899   83.6403   18.8224 N.2       3 LYS4        0.0000 
     58 OG        131.4226   84.2143   17.7415 O.2       1 SER1        0.0000 
@<TRIPOS>BOND
@<TRIPOS>SUBSTRUCTURE
     1 SER1       14 GROUP   
     2 ALA2        1 GROUP   
     3 LYS4        8 GROUP   
     4 PHE5        2 GROUP   
     5 GLY6        4 GROUP   
@<TRIPOS>SET

