#    Name: 1yfl_SFG_4_INTS_M
#    Modification time : Mon Apr  7 15:46:52 2014

@<TRIPOS>MOLECULE
1yfl_SFG_4_INTS_M
   79     0    12     0     0
SMALL
NO_CHARGES


@<TRIPOS>ATOM
      1 OD1       133.6395   81.8610   20.6310 O.co2     3 ASC3        0.0000 
      2 OD1       132.4560   81.4090   21.1980 O.co2    11 ASL3        0.0000 
      3 OD1       134.8230   82.3130   20.0640 O.co2     7 ASP3        0.0000 
      4 O         133.6395   81.8610   20.6310 O.2       1 ALC1        0.0000 
      5 O         132.4560   81.4090   21.1980 O.2       9 ALL1        0.0000 
      6 O         134.8230   82.3130   20.0640 O.2       5 ALP1        0.0000 
      7 CA        131.5530   80.3305   18.7570 C.3       4 GLC5        0.0000 
      8 CA        131.2550   81.7940   20.4340 C.3      12 GLL5        0.0000 
      9 CA        131.8510   78.8670   17.0800 C.3       8 GLP5        0.0000 
     10 N         131.0085   78.2980   20.1870 N.am      2 SEC2        0.0000 
     11 N         131.2710   79.5820   19.5960 N.am     10 SEL2        0.0000 
     12 N         130.7460   77.0140   20.7780 N.am      6 SEP2        0.0000 
     13 CA        129.9645   82.8980   17.8815 C.3       4 GLC5        0.0000 
     14 CA        131.5760   82.8160   19.3120 C.3      12 GLL5        0.0000 
     15 CA        128.3530   82.9800   16.4510 C.3       8 GLP5        0.0000 
     16 CA        132.2050   85.7535   21.2175 C.3       4 GLC5        0.0000 
     17 CA        131.7400   84.3230   19.6950 C.3      12 GLL5        0.0000 
     18 CA        132.6700   87.1840   22.7400 C.3       8 GLP5        0.0000 
     19 CA        129.7080   84.2780   19.9920 C.3       4 GLC5        0.0000 
     20 CA        127.6760   84.2330   20.2890 C.3       8 GLP5        0.0000 
     21 CA        130.2140   84.7405   17.5795 C.3       4 GLC5        0.0000 
     22 CA        132.1370   85.1270   18.4490 C.3      12 GLL5        0.0000 
     23 CA        128.2910   84.3540   16.7100 C.3       8 GLP5        0.0000 
     24 CA        131.9775   85.6985   16.7845 C.3       4 GLC5        0.0000 
     25 CA        131.8180   86.2700   15.1200 C.3       8 GLP5        0.0000 
     26 CA        133.3165   88.4640   18.2160 C.3       4 GLC5        0.0000 
     27 CA        132.2350   86.6290   18.8170 C.3      12 GLL5        0.0000 
     28 CA        134.3980   90.2990   17.6150 C.3       8 GLP5        0.0000 
     29 CA        132.3910   87.0390   17.0045 C.3       4 GLC5        0.0000 
     30 CA        132.5470   87.4490   15.1920 C.3       8 GLP5        0.0000 
     31 CA        131.3880   86.7985   17.2380 C.3       4 GLC5        0.0000 
     32 CA        130.9580   87.3270   19.3560 C.3      12 GLL5        0.0000 
     33 CA        129.0220   85.9510   17.5645 C.3       4 GLC5        0.0000 
     34 CA        129.7530   87.5480   18.4190 C.3      12 GLL5        0.0000 
     35 CA        128.7145   85.8905   19.3540 C.3       4 GLC5        0.0000 
     36 CA        129.7845   87.5355   16.5680 C.3       4 GLC5        0.0000 
     37 CA        129.8160   87.5230   14.7170 C.3       8 GLP5        0.0000 
     38 N         127.8035   86.5650   17.8590 N.am      2 SEC2        0.0000 
     39 N         128.6370   86.7830   18.8270 N.am     10 SEL2        0.0000 
     40 N         126.9700   86.3470   16.8910 N.am      6 SEP2        0.0000 
     41 O         128.3595   87.0625   20.0030 O.2       1 ALC1        0.0000 
     42 O         128.6370   86.7830   18.8270 O.2       9 ALL1        0.0000 
     43 O         128.0820   87.3420   21.1790 O.2       5 ALP1        0.0000 
     44 CA        127.5135   89.8810   18.0790 C.3       4 GLC5        0.0000 
     45 CA        129.5630   89.0570   18.4040 C.3      12 GLL5        0.0000 
     46 CA        125.4640   90.7050   17.7540 C.3       8 GLP5        0.0000 
     47 CA        130.0395   88.8930   16.5990 C.3       4 GLC5        0.0000 
     48 CA        130.5160   88.7290   14.7940 C.3       8 GLP5        0.0000 
     49 O         127.5775   89.3330   19.6005 O.2       1 ALC1        0.0000 
     50 O         128.1700   89.4510   18.3550 O.2       9 ALL1        0.0000 
     51 O         126.9850   89.2150   20.8460 O.2       5 ALP1        0.0000 
     52 CA        131.6750   89.5415   21.1780 C.3       4 GLC5        0.0000 
     53 CA        130.1260   89.4820   19.7430 C.3      12 GLL5        0.0000 
     54 CA        133.2240   89.6010   22.6130 C.3       8 GLP5        0.0000 
     55 CA        128.9655   91.2535   20.0895 C.3       4 GLC5        0.0000 
     56 CA        127.8050   93.0250   20.4360 C.3       8 GLP5        0.0000 
     57 CA        131.2470   93.8525   18.9340 C.3       4 GLC5        0.0000 
     58 CA        131.3880   92.7570   20.7660 C.3      12 GLL5        0.0000 
     59 CA        131.1060   94.9480   17.1020 C.3       8 GLP5        0.0000 
     60 CA        130.1115   94.6605   21.7610 C.3       4 GLC5        0.0000 
     61 CA        131.5190   93.5780   21.8960 C.3      12 GLL5        0.0000 
     62 CA        128.7040   95.7430   21.6260 C.3       8 GLP5        0.0000 
     63 N         131.3105   93.7735   24.6690 N.am      2 SEC2        0.0000 
     64 N         131.0700   93.1750   23.1600 N.am     10 SEL2        0.0000 
     65 N         131.5510   94.3720   26.1780 N.am      6 SEP2        0.0000 
     66 CA        128.7745   90.5115   23.5990 C.3       4 GLC5        0.0000 
     67 CA        130.4800   91.9490   23.3180 C.3      12 GLL5        0.0000 
     68 CA        127.0690   89.0740   23.8800 C.3       8 GLP5        0.0000 
     69 CA        129.1285   92.6695   22.6080 C.3       4 GLC5        0.0000 
     70 CA        127.7770   93.3900   21.8980 C.3       8 GLP5        0.0000 
     71 CA        132.0415   92.4945   24.7810 C.3       4 GLC5        0.0000 
     72 CA        133.6030   93.0400   26.2440 C.3       8 GLP5        0.0000 
     73 N         128.7525   91.2000   22.6105 N.am      2 SEC2        0.0000 
     74 N         130.3220   91.1020   22.2610 N.am     10 SEL2        0.0000 
     75 N         127.1830   91.2980   22.9600 N.am      6 SEP2        0.0000 
     76 CA        129.5457   83.2690   20.0810 C.3       4 GLC5        0.0000 
     77 CA        132.1332   87.0810   20.9133 C.3       4 GLC5        0.0000 
     78 CA        129.4425   92.5793   20.6657 C.3       4 GLC5        0.0000 
     79 CA        130.7720   91.5100   21.0250 C.3      12 GLL5        0.0000 
@<TRIPOS>BOND
@<TRIPOS>SUBSTRUCTURE
     1 ALC1        4 GROUP        1 X    ALC  0     ROOT ALC X 1
     2 SEC2       10 GROUP        1 X    SEC  0     **** SEC X 2
     3 ASC3        1 GROUP        1 X    ASC  0     **** ASC X 3
     4 GLC5        7 GROUP        1 X    GLC  0     **** GLC X 6
     5 ALP1        6 GROUP        1 Y    ALP  0     ROOT ALP Y 8
     6 SEP2       12 GROUP        1 Y    SEP  0     **** SEP Y 9
     7 ASP3        3 GROUP        1 Y    ASP  0     **** ASP Y 10
     8 GLP5        9 GROUP        1 Y    GLP  0     **** GLP Y 13
     9 ALL1        5 GROUP        1 Z    ALL  0     ROOT ALL Z 15
    10 SEL2       11 GROUP        1 Z    SEL  0     **** SEL Z 16
    11 ASL3        2 GROUP        1 Z    ASL  0     **** ASL Z 17
    12 GLL5        8 GROUP        1 Z    GLL  0     **** GLL Z 20
@<TRIPOS>SET

