#    Name: 1yfl_SFG_4_ligand
#    Modification time : Mon Apr  7 15:46:52 2014

@<TRIPOS>MOLECULE
1yfl_SFG_4_ligand
   48    50     1     0     0
SMALL
NO_CHARGES


@<TRIPOS>ATOM
      1 N         132.4560   81.4090   21.1980 N.4       1 SFG303      0.0000 
      2 CA        131.2550   81.7940   20.4340 C.3       1 SFG303      0.0000 
      3 C         130.5450   80.5670   19.7950 C.2       1 SFG303      0.0000 
      4 O         129.3070   80.5440   19.5640 O.co2     1 SFG303      0.0000 
      5 OXT       131.2710   79.5820   19.5960 O.co2     1 SFG303      0.0000 
      6 CB        131.5760   82.8160   19.3120 C.3       1 SFG303      0.0000 
      7 CG        131.7400   84.3230   19.6950 C.3       1 SFG303      0.0000 
      8 CD        132.1370   85.1270   18.4490 C.3       1 SFG303      0.0000 
      9 NE        133.4030   84.6140   17.8970 N.3       1 SFG303      0.0000 
     10 C5'       132.2350   86.6290   18.8170 C.3       1 SFG303      0.0000 
     11 C4'       130.9580   87.3270   19.3560 C.3       1 SFG303      0.0000 
     12 O4'       131.1570   88.5560   20.0280 O.3       1 SFG303      0.0000 
     13 C3'       129.7530   87.5480   18.4190 C.3       1 SFG303      0.0000 
     14 O3'       128.6370   86.7830   18.8270 O.3       1 SFG303      0.0000 
     15 C2'       129.5630   89.0570   18.4040 C.3       1 SFG303      0.0000 
     16 O2'       128.1700   89.4510   18.3550 O.3       1 SFG303      0.0000 
     17 C1'       130.1260   89.4820   19.7430 C.3       1 SFG303      0.0000 
     18 N9        130.7180   90.8250   19.8360 N.pl3     1 SFG303      0.0000 
     19 C8        131.2830   91.6470   18.9100 C.2       1 SFG303      0.0000 
     20 N7        131.6990   92.8120   19.4070 N.2       1 SFG303      0.0000 
     21 C5        131.3880   92.7570   20.7660 C.ar      1 SFG303      0.0000 
     22 C6        131.5190   93.5780   21.8960 C.ar      1 SFG303      0.0000 
     23 N6        132.0960   94.7980   21.7690 N.pl3     1 SFG303      0.0000 
     24 N1        131.0700   93.1750   23.1600 N.ar      1 SFG303      0.0000 
     25 C2        130.4800   91.9490   23.3180 C.ar      1 SFG303      0.0000 
     26 N3        130.3220   91.1020   22.2610 N.ar      1 SFG303      0.0000 
     27 C4        130.7720   91.5100   21.0250 C.ar      1 SFG303      0.0000 
     28 H         130.5235   82.2706   21.0953 H         1 SFG303      0.0000 
     29 H         130.7783   82.7449   18.5325 H         1 SFG303      0.0000 
     30 H         132.5119   82.4894   18.7957 H         1 SFG303      0.0000 
     31 H         132.5111   84.4063   20.4441 H         1 SFG303      0.0000 
     32 H         130.7998   84.6854   20.0789 H         1 SFG303      0.0000 
     33 H         131.3391   85.0187   17.7209 H         1 SFG303      0.0000 
     34 H         132.5850   87.1880   17.9180 H         1 SFG303      0.0000 
     35 H         133.0454   86.7526   19.5728 H         1 SFG303      0.0000 
     36 H         130.5326   86.6017   20.1623 H         1 SFG303      0.0000 
     37 H         130.1119   87.2630   17.4205 H         1 SFG303      0.0000 
     38 H         130.1501   89.4795   17.6441 H         1 SFG303      0.0000 
     39 H         129.3423   89.3680   20.4926 H         1 SFG303      0.0000 
     40 H         131.3714   91.3871   17.9469 H         1 SFG303      0.0000 
     41 H         132.3980   95.0483   20.8491 H         1 SFG303      0.0000 
     42 H         132.1686   95.3397   22.6064 H         1 SFG303      0.0000 
     43 H         130.1467   91.6607   24.2642 H         1 SFG303      0.0000 
     44 H         133.2766   81.4125   20.6265 H         1 SFG303      0.0000 
     45 H         132.6271   82.0332   21.9604 H         1 SFG303      0.0000 
     46 H         132.3718   80.4906   21.5844 H         1 SFG303      0.0000 
     47 H         128.1580   87.3578   19.4905 H         1 SFG303      0.0000 
     48 H         127.8222   89.2873   19.2782 H         1 SFG303      0.0000 
@<TRIPOS>BOND
     1    2    1 1    
     2   44    1 1    
     3   45    1 1    
     4   46    1 1    
     5    3    2 1    
     6    6    2 1    
     7   28    2 1    
     8    4    3 ar   
     9    5    3 ar   
    10    7    6 1    
    11   29    6 1    
    12   30    6 1    
    13    8    7 1    
    14   31    7 1    
    15   32    7 1    
    16    9    8 1    
    17   10    8 1    
    18   33    8 1    
    19   11   10 1    
    20   34   10 1    
    21   35   10 1    
    22   12   11 1    
    23   13   11 1    
    24   36   11 1    
    25   17   12 1    
    26   14   13 1    
    27   15   13 1    
    28   37   13 1    
    29   47   14 1    
    30   16   15 1    
    31   17   15 1    
    32   38   15 1    
    33   48   16 1    
    34   18   17 1    
    35   39   17 1    
    36   19   18 1    
    37   27   18 1    
    38   20   19 2    
    39   40   19 1    
    40   21   20 1    
    41   22   21 ar   
    42   27   21 ar   
    43   23   22 1    
    44   24   22 ar   
    45   41   23 1    
    46   42   23 1    
    47   25   24 ar   
    48   26   25 ar   
    49   43   25 1    
    50   27   26 ar   
@<TRIPOS>SUBSTRUCTURE
     1 SFG303      1 GROUP   
@<TRIPOS>SET

