#    Name: 1son_AMP_1_INTS_M
#    Modification time : Tue Mar 25 02:35:33 2014

@<TRIPOS>MOLECULE
1son_AMP_1_INTS_M
   53     0     9     0     0
SMALL
NO_CHARGES


@<TRIPOS>ATOM
      1 N           7.3350   79.8945   60.3615 N.am      2 SEC2        0.0000 
      2 N           7.2770   78.9540   59.3890 N.am      8 SEL2        0.0000 
      3 N           7.3930   80.8350   61.3340 N.am      5 SEP2        0.0000 
      4 N           8.3175   79.8290   59.2640 N.am      2 SEC2        0.0000 
      5 N           9.3580   80.7040   59.1390 N.am      5 SEP2        0.0000 
      6 N           7.9705   75.2780   58.4495 N.am      2 SEC2        0.0000 
      7 N           8.0000   76.7050   58.7610 N.am      8 SEL2        0.0000 
      8 N           7.9410   73.8510   58.1380 N.am      5 SEP2        0.0000 
      9 CA          5.6745   78.2610   61.8970 C.3       3 GLC5        0.0000 
     10 CA          6.1470   76.3390   61.5820 C.3       9 GLL5        0.0000 
     11 CA          5.2020   80.1830   62.2120 C.3       6 GLP5        0.0000 
     12 CA          6.2090   74.4905   60.4775 C.3       3 GLC5        0.0000 
     13 CA          6.2710   72.6420   59.3730 C.3       6 GLP5        0.0000 
     14 CA          4.8480   76.5355   63.8205 C.3       3 GLC5        0.0000 
     15 CA          7.0580   76.6290   64.0370 C.3       9 GLL5        0.0000 
     16 CA          2.6380   76.4420   63.6040 C.3       6 GLP5        0.0000 
     17 CA          6.1300   78.4060   63.1245 C.3       3 GLC5        0.0000 
     18 O           7.9770   76.1730   66.3770 O.2       1 ALC1        0.0000 
     19 O           7.0530   75.7290   65.1730 O.2       7 ALL1        0.0000 
     20 O           8.9010   76.6170   67.5810 O.2       4 ALP1        0.0000 
     21 CA          9.3545   78.4715   62.4715 C.3       3 GLC5        0.0000 
     22 CA          8.4590   77.0680   63.7160 C.3       9 GLL5        0.0000 
     23 CA         10.2500   79.8750   61.2270 C.3       6 GLP5        0.0000 
     24 N           9.4665   78.7170   64.8395 N.am      2 SEC2        0.0000 
     25 N           9.1470   77.4970   64.8400 N.am      8 SEL2        0.0000 
     26 N           9.7860   79.9370   64.8390 N.am      5 SEP2        0.0000 
     27 O           9.0240   77.0570   66.2105 O.2       1 ALC1        0.0000 
     28 O           9.1470   77.4970   64.8400 O.2       7 ALL1        0.0000 
     29 CA          9.9505   74.0105   63.3560 C.3       3 GLC5        0.0000 
     30 CA          9.0940   75.8070   63.2800 C.3       9 GLL5        0.0000 
     31 CA         10.8070   72.2140   63.4320 C.3       6 GLP5        0.0000 
     32 N          12.3470   76.0235   59.7595 N.am      2 SEC2        0.0000 
     33 N          11.7100   76.9410   61.0290 N.am      8 SEL2        0.0000 
     34 N          12.9840   75.1060   58.4900 N.am      5 SEP2        0.0000 
     35 CA         11.3250   78.1310   61.6425 C.3       3 GLC5        0.0000 
     36 CA         12.4000   76.3870   62.0580 C.3       9 GLL5        0.0000 
     37 O          14.5540   77.4455   60.1235 O.2       1 ALC1        0.0000 
     38 O          14.6950   76.7260   61.4030 O.2       7 ALL1        0.0000 
     39 O          14.4130   78.1650   58.8440 O.2       4 ALP1        0.0000 
     40 O          16.1710   76.9940   60.7075 O.2       1 ALC1        0.0000 
     41 O          17.6470   77.2620   60.0120 O.2       4 ALP1        0.0000 
     42 CA         14.2990   73.6505   64.6565 C.3       3 GLC5        0.0000 
     43 CA         13.1400   75.5070   64.3840 C.3       9 GLL5        0.0000 
     44 CA         15.4580   71.7940   64.9290 C.3       6 GLP5        0.0000 
     45 CA         11.9735   73.8605   63.9080 C.3       3 GLC5        0.0000 
     46 CA         12.9315   76.4405   66.0890 C.3       3 GLC5        0.0000 
     47 CA         12.7230   77.3740   67.7940 C.3       6 GLP5        0.0000 
     48 CA         11.1735   74.0545   63.2200 C.3       3 GLC5        0.0000 
     49 CA         11.5400   75.8950   63.0080 C.3       9 GLL5        0.0000 
     50 CA          4.5533   76.2360   62.9010 C.3       3 GLC5        0.0000 
     51 CA          6.7900   75.7210   62.8140 C.3       9 GLL5        0.0000 
     52 CA         12.1829   74.7296   61.2097 C.3       3 GLC5        0.0000 
     53 CA         12.0560   73.3360   59.8240 C.3       6 GLP5        0.0000 
@<TRIPOS>BOND
@<TRIPOS>SUBSTRUCTURE
     1 ALC1       18 GROUP        1 X    ALC  0     ROOT ALC X 1
     2 SEC2        1 GROUP        1 X    SEC  0     **** SEC X 2
     3 GLC5        9 GROUP        1 X    GLC  0     **** GLC X 6
     4 ALP1       20 GROUP        1 Y    ALP  0     ROOT ALP Y 8
     5 SEP2        3 GROUP        1 Y    SEP  0     **** SEP Y 9
     6 GLP5       11 GROUP        1 Y    GLP  0     **** GLP Y 13
     7 ALL1       19 GROUP        1 Z    ALL  0     ROOT ALL Z 15
     8 SEL2        2 GROUP        1 Z    SEL  0     **** SEL Z 16
     9 GLL5       10 GROUP        1 Z    GLL  0     **** GLL Z 20
@<TRIPOS>SET

