#    Name: 1son_AMP_1_ligand
#    Modification time : Tue Mar 25 02:35:34 2014

@<TRIPOS>MOLECULE
1son_AMP_1_ligand
   35    37     1     0     0
SMALL
NO_CHARGES


@<TRIPOS>ATOM
      1 P           6.9350   77.5120   59.3930 P.3       1 AMP453      0.0000 
      2 O1P         7.2770   78.9540   59.3890 O.co2     1 AMP453      0.0000 
      3 O2P         5.5380   77.3000   59.0180 O.co2     1 AMP453      0.0000 
      4 O3P         8.0000   76.7050   58.7610 O.co2     1 AMP453      0.0000 
      5 O5'         7.0460   77.1690   60.9050 O.3       1 AMP453      0.0000 
      6 C5'         6.1470   76.3390   61.5820 C.3       1 AMP453      0.0000 
      7 C4'         6.7900   75.7210   62.8140 C.3       1 AMP453      0.0000 
      8 O4'         8.0910   75.2180   62.4650 O.3       1 AMP453      0.0000 
      9 C3'         7.0580   76.6290   64.0370 C.3       1 AMP453      0.0000 
     10 O3'         7.0530   75.7290   65.1730 O.3       1 AMP453      0.0000 
     11 C2'         8.4590   77.0680   63.7160 C.3       1 AMP453      0.0000 
     12 O2'         9.1470   77.4970   64.8400 O.3       1 AMP453      0.0000 
     13 C1'         9.0940   75.8070   63.2800 C.3       1 AMP453      0.0000 
     14 N9         10.3140   76.0410   62.5260 N.pl3     1 AMP453      0.0000 
     15 C8         10.5000   76.5510   61.3070 C.2       1 AMP453      0.0000 
     16 N7         11.7100   76.9410   61.0290 N.2       1 AMP453      0.0000 
     17 C5         12.4000   76.3870   62.0580 C.ar      1 AMP453      0.0000 
     18 C6         13.7590   76.3160   62.3080 C.ar      1 AMP453      0.0000 
     19 N6         14.6950   76.7260   61.4030 N.pl3     1 AMP453      0.0000 
     20 N1         14.0840   75.8780   63.5290 N.ar      1 AMP453      0.0000 
     21 C2         13.1400   75.5070   64.3840 C.ar      1 AMP453      0.0000 
     22 N3         11.8390   75.3630   64.1910 N.ar      1 AMP453      0.0000 
     23 C4         11.5400   75.8950   63.0080 C.ar      1 AMP453      0.0000 
     24 H           5.7864   75.5073   60.9472 H         1 AMP453      0.0000 
     25 H           5.2465   76.8860   61.9206 H         1 AMP453      0.0000 
     26 H           6.1832   74.8814   63.1599 H         1 AMP453      0.0000 
     27 H           6.4035   77.3829   64.0506 H         1 AMP453      0.0000 
     28 H           8.4442   77.7411   62.9146 H         1 AMP453      0.0000 
     29 H           9.2728   75.1987   64.1435 H         1 AMP453      0.0000 
     30 H           9.7233   76.6243   60.6395 H         1 AMP453      0.0000 
     31 H          15.6487   76.6626   61.6970 H         1 AMP453      0.0000 
     32 H          14.3447   77.0538   60.5256 H         1 AMP453      0.0000 
     33 H          13.4966   75.2840   65.4167 H         1 AMP453      0.0000 
     34 H           7.5454   76.2183   65.8929 H         1 AMP453      0.0000 
     35 H           9.1422   76.7133   65.4610 H         1 AMP453      0.0000 
@<TRIPOS>BOND
     1    2    1 ar   
     2    3    1 ar   
     3    4    1 ar   
     4    5    1 1    
     5    6    5 1    
     6    7    6 1    
     7   24    6 1    
     8   25    6 1    
     9    8    7 1    
    10    9    7 1    
    11   26    7 1    
    12   13    8 1    
    13   10    9 1    
    14   11    9 1    
    15   27    9 1    
    16   34   10 1    
    17   12   11 1    
    18   13   11 1    
    19   28   11 1    
    20   35   12 1    
    21   14   13 1    
    22   29   13 1    
    23   15   14 1    
    24   23   14 1    
    25   16   15 2    
    26   30   15 1    
    27   17   16 1    
    28   18   17 ar   
    29   23   17 ar   
    30   19   18 1    
    31   20   18 ar   
    32   31   19 1    
    33   32   19 1    
    34   21   20 ar   
    35   22   21 ar   
    36   33   21 1    
    37   23   22 ar   
@<TRIPOS>SUBSTRUCTURE
     1 AMP453      1 GROUP   
@<TRIPOS>SET

