#    Name: 2x2l_X2L_1_INTS_M
#    Modification time : Tue Mar 25 05:01:27 2014

@<TRIPOS>MOLECULE
2x2l_X2L_1_INTS_M
   56     0     9     0     0
SMALL
NO_CHARGES


@<TRIPOS>ATOM
      1 CA        -13.9000  -27.1380   10.0700 C.3       3 GLC5        0.0000 
      2 CA        -11.8860  -26.9070   11.0450 C.3       9 GLL5        0.0000 
      3 CA        -15.9140  -27.3690    9.0950 C.3       6 GLP5        0.0000 
      4 CA        -12.0995  -32.2805    8.3460 C.3       3 GLC5        0.0000 
      5 CA        -11.9620  -31.0210   10.1590 C.3       9 GLL5        0.0000 
      6 CA        -12.2370  -33.5400    6.5330 C.3       6 GLP5        0.0000 
      7 CA        -11.3400  -32.2650   11.8050 C.3       3 GLC5        0.0000 
      8 CA        -10.7180  -33.5090   13.4510 C.3       6 GLP5        0.0000 
      9 CA        -10.7125  -20.7740   15.4975 C.3       3 GLC5        0.0000 
     10 CA        -10.6720  -19.9110   13.5880 C.3       9 GLL5        0.0000 
     11 CA        -10.7530  -21.6370   17.4070 C.3       6 GLP5        0.0000 
     12 CA         -9.9275  -21.8185   14.0885 C.3       3 GLC5        0.0000 
     13 CA         -9.1830  -23.7260   14.5890 C.3       6 GLP5        0.0000 
     14 O         -15.0855  -28.4325   12.1650 O.2       1 ALC1        0.0000 
     15 O         -13.7610  -28.0740   11.5550 O.2       7 ALL1        0.0000 
     16 O         -16.4100  -28.7910   12.7750 O.2       4 ALP1        0.0000 
     17 O          -8.9565  -32.3905    9.1965 O.2       1 ALC1        0.0000 
     18 O          -9.7800  -30.9630    9.3060 O.2       7 ALL1        0.0000 
     19 O          -8.1330  -33.8180    9.0870 O.2       4 ALP1        0.0000 
     20 N         -14.4875  -25.7525   13.1895 N.am      2 SEC2        0.0000 
     21 N         -13.7740  -25.8940   12.0100 N.am      8 SEL2        0.0000 
     22 N         -15.2010  -25.6110   14.3690 N.am      5 SEP2        0.0000 
     23 CA        -10.2035  -23.4682    9.3935 C.3       3 GLC5        0.0000 
     24 CA         -9.5690  -23.8960   11.0240 C.3       9 GLL5        0.0000 
     25 CA        -10.9570  -23.7070    7.5870 C.3       6 GLP5        0.0000 
     26 CA         -9.3165  -23.4778   12.8945 C.3       3 GLC5        0.0000 
     27 CA        -11.5255  -21.8975   10.2640 C.3       3 GLC5        0.0000 
     28 CA        -10.3100  -21.8630   12.0870 C.3       9 GLL5        0.0000 
     29 CA        -12.1340  -21.6120    8.2790 C.3       6 GLP5        0.0000 
     30 CA        -10.0500  -22.9545   13.4190 C.3       3 GLC5        0.0000 
     31 CA        -12.2155  -24.0440   10.1487 C.3       3 GLC5        0.0000 
     32 CA        -11.7420  -23.8410   12.0380 C.3       9 GLL5        0.0000 
     33 CA        -13.1800  -23.8820    8.6100 C.3       6 GLP5        0.0000 
     34 CA        -10.2170  -23.9660   13.1383 C.3       3 GLC5        0.0000 
     35 CA        -10.7600  -24.5710   11.3370 C.3       9 GLL5        0.0000 
     36 CA        -12.2820  -25.1475    9.7873 C.3       3 GLC5        0.0000 
     37 CA        -10.8820  -25.9190   10.8840 C.3       9 GLL5        0.0000 
     38 CA        -11.9565  -27.0520    9.0738 C.3       3 GLC5        0.0000 
     39 CA        -12.5290  -27.6910    7.1830 C.3       6 GLP5        0.0000 
     40 CA        -10.6825  -27.3695   12.3598 C.3       3 GLC5        0.0000 
     41 CA         -9.9810  -28.3260   13.7550 C.3       6 GLP5        0.0000 
     42 CA        -11.8615  -28.1445    8.7840 C.3       3 GLC5        0.0000 
     43 CA        -11.7210  -28.2440   10.6730 C.3       9 GLL5        0.0000 
     44 CA        -10.5875  -28.4620   12.0700 C.3       3 GLC5        0.0000 
     45 CA        -11.3885  -30.2125    8.1890 C.3       3 GLC5        0.0000 
     46 CA        -10.8060  -30.3170    9.8550 C.3       9 GLL5        0.0000 
     47 CA        -11.3930  -29.7560    6.3710 C.3       6 GLP5        0.0000 
     48 CA        -11.6065  -30.3375   12.0435 C.3       3 GLC5        0.0000 
     49 CA        -11.8290  -30.0060   14.0800 C.3       6 GLP5        0.0000 
     50 CA        -12.7432  -28.6593    9.0258 C.3       3 GLC5        0.0000 
     51 CA        -13.0120  -30.3170   10.7400 C.3       9 GLL5        0.0000 
     52 CA        -14.4358  -28.4982    9.9817 C.3       3 GLC5        0.0000 
     53 CA        -12.9030  -28.9380   10.9970 C.3       9 GLL5        0.0000 
     54 CA        -12.3933  -29.8167   12.4742 C.3       3 GLC5        0.0000 
     55 CA        -14.5415  -30.4787   10.1506 C.3       3 GLC5        0.0000 
     56 CA        -16.3880  -31.1540    9.5780 C.3       6 GLP5        0.0000 
@<TRIPOS>BOND
@<TRIPOS>SUBSTRUCTURE
     1 ALC1       14 GROUP        1 X    ALC  0     ROOT ALC X 1
     2 SEC2       20 GROUP        1 X    SEC  0     **** SEC X 2
     3 GLC5        1 GROUP        1 X    GLC  0     **** GLC X 6
     4 ALP1       16 GROUP        1 Y    ALP  0     ROOT ALP Y 8
     5 SEP2       22 GROUP        1 Y    SEP  0     **** SEP Y 9
     6 GLP5        3 GROUP        1 Y    GLP  0     **** GLP Y 13
     7 ALL1       15 GROUP        1 Z    ALL  0     ROOT ALL Z 15
     8 SEL2       21 GROUP        1 Z    SEL  0     **** SEL Z 16
     9 GLL5        2 GROUP        1 Z    GLL  0     **** GLL Z 20
@<TRIPOS>SET

