#    Name: 2x2l_X2L_1_ligand
#    Modification time : Tue Mar 25 05:01:27 2014

@<TRIPOS>MOLECULE
2x2l_X2L_1_ligand
   34    36     1     0     0
SMALL
NO_CHARGES


@<TRIPOS>ATOM
      1 CAH        -9.5690  -23.8960   11.0240 C.ar      1 X2L2015     0.0000 
      2 CAO        -9.3310  -22.5630   11.3760 C.ar      1 X2L2015     0.0000 
      3 CAM       -10.3100  -21.8630   12.0870 C.ar      1 X2L2015     0.0000 
      4 OAB       -10.0260  -20.5570   12.4200 O.3       1 X2L2015     0.0000 
      5 CAP       -11.5240  -22.5030   12.4110 C.ar      1 X2L2015     0.0000 
      6 CAI       -11.7420  -23.8410   12.0380 C.ar      1 X2L2015     0.0000 
      7 CAQ       -10.7600  -24.5710   11.3370 C.ar      1 X2L2015     0.0000 
      8 CAF       -10.8820  -25.9190   10.8840 C.2       1 X2L2015     0.0000 
      9 CAS       -11.8860  -26.9070   11.0450 C.2       1 X2L2015     0.0000 
     10 CAU       -11.7210  -28.2440   10.6730 C.ar      1 X2L2015     0.0000 
     11 CAK       -10.6670  -28.9520   10.0970 C.ar      1 X2L2015     0.0000 
     12 CAN       -10.8060  -30.3170    9.8550 C.ar      1 X2L2015     0.0000 
     13 CAG       -11.9620  -31.0210   10.1590 C.ar      1 X2L2015     0.0000 
     14 CAJ       -13.0120  -30.3170   10.7400 C.ar      1 X2L2015     0.0000 
     15 CAT       -12.9030  -28.9380   10.9970 C.ar      1 X2L2015     0.0000 
     16 CAA       -10.6720  -19.9110   13.5880 C.3       1 X2L2015     0.0000 
     17 NAL       -13.7610  -28.0740   11.5550 N.am      1 X2L2015     0.0000 
     18 CAR       -13.1930  -26.8610   11.5620 C.2       1 X2L2015     0.0000 
     19 NAB        -9.7800  -30.9630    9.3060 N.pl3     1 X2L2015     0.0000 
     20 OAA       -13.7740  -25.8940   12.0100 O.2       1 X2L2015     0.0000 
     21 H          -8.8256  -24.4166   10.5027 H         1 X2L2015     0.0000 
     22 H          -8.4559  -22.1092   11.1174 H         1 X2L2015     0.0000 
     23 H         -12.2493  -21.9892   12.9205 H         1 X2L2015     0.0000 
     24 H         -12.6334  -24.2973   12.2800 H         1 X2L2015     0.0000 
     25 H         -10.0096  -26.2616   10.2819 H         1 X2L2015     0.0000 
     26 H          -9.7959  -28.4711    9.8534 H         1 X2L2015     0.0000 
     27 H         -12.0407  -32.0114    9.9658 H         1 X2L2015     0.0000 
     28 H         -13.8856  -30.8068   10.9884 H         1 X2L2015     0.0000 
     29 H         -14.6423  -28.2897   11.8955 H         1 X2L2015     0.0000 
     30 H          -8.9595  -30.4185    9.1320 H         1 X2L2015     0.0000 
     31 H          -9.9221  -31.9346    9.1170 H         1 X2L2015     0.0000 
     32 H         -10.4628  -20.3903   14.4403 H         1 X2L2015     0.0000 
     33 H         -10.3708  -18.9644   13.7025 H         1 X2L2015     0.0000 
     34 H         -11.6678  -19.8929   13.4987 H         1 X2L2015     0.0000 
@<TRIPOS>BOND
     1    2    1 ar   
     2    7    1 ar   
     3   21    1 1    
     4    3    2 ar   
     5   22    2 1    
     6    4    3 1    
     7    5    3 ar   
     8   16    4 1    
     9    6    5 ar   
    10   23    5 1    
    11    7    6 ar   
    12   24    6 1    
    13    8    7 1    
    14    9    8 2    
    15   25    8 1    
    16   10    9 1    
    17   18    9 1    
    18   11   10 ar   
    19   15   10 ar   
    20   12   11 ar   
    21   26   11 1    
    22   13   12 ar   
    23   19   12 1    
    24   14   13 ar   
    25   27   13 1    
    26   15   14 ar   
    27   28   14 1    
    28   17   15 1    
    29   32   16 1    
    30   33   16 1    
    31   34   16 1    
    32   18   17 am   
    33   29   17 1    
    34   20   18 2    
    35   30   19 1    
    36   31   19 1    
@<TRIPOS>SUBSTRUCTURE
     1 X2L2015     1 GROUP   
@<TRIPOS>SET

