#    Name: 4a31_2CB_1_INTS_M
#    Modification time : Tue Mar 25 04:53:49 2014

@<TRIPOS>MOLECULE
4a31_2CB_1_INTS_M
   58     0     6     0     0
SMALL
NO_CHARGES


@<TRIPOS>ATOM
      1 CA          0.7280    0.4150   11.9485 C.3       2 GLC5        0.0000 
      2 CA          0.1930    0.7470    9.8440 C.3       6 GLL5        0.0000 
      3 CA          1.2630    0.0830   14.0530 C.3       4 GLP5        0.0000 
      4 CA         -3.9320   -0.9330    7.1265 C.3       2 GLC5        0.0000 
      5 CA         -2.2460   -1.7130    8.3190 C.3       6 GLL5        0.0000 
      6 CA         -5.6180   -0.1530    5.9340 C.3       4 GLP5        0.0000 
      7 CA          1.4755   -1.6930    6.7990 C.3       2 GLC5        0.0000 
      8 CA          0.2070   -1.8390    8.6050 C.3       6 GLL5        0.0000 
      9 CA          2.7440   -1.5470    4.9930 C.3       4 GLP5        0.0000 
     10 CA          2.4230   -2.2225   11.0055 C.3       2 GLC5        0.0000 
     11 CA          1.3390   -1.3330    9.5110 C.3       6 GLL5        0.0000 
     12 CA          3.5070   -3.1120   12.5000 C.3       4 GLP5        0.0000 
     13 CA          3.6735   -0.1230   11.6085 C.3       2 GLC5        0.0000 
     14 CA          2.5980    0.7980    9.9650 C.3       6 GLL5        0.0000 
     15 CA          4.7490   -1.0440   13.2520 C.3       4 GLP5        0.0000 
     16 CA          1.9305    0.4405   12.0090 C.3       2 GLC5        0.0000 
     17 CA          2.2235    3.8785    8.8545 C.3       2 GLC5        0.0000 
     18 CA          2.6170    2.2450    9.4430 C.3       6 GLL5        0.0000 
     19 CA          1.8300    5.5120    8.2660 C.3       4 GLP5        0.0000 
     20 CA          1.4040    2.2065    7.6725 C.3       2 GLC5        0.0000 
     21 CA          0.1910    2.1680    5.9020 C.3       4 GLP5        0.0000 
     22 CA          5.6040    6.1160    9.8025 C.3       2 GLC5        0.0000 
     23 CA          4.6330    4.8310   11.2670 C.3       6 GLL5        0.0000 
     24 CA          6.5750    7.4010    8.3380 C.3       4 GLP5        0.0000 
     25 N           0.9495    7.5600   15.0820 N.am      1 SEC2        0.0000 
     26 N           2.2470    7.0400   15.1780 N.am      5 SEL2        0.0000 
     27 N          -0.3480    8.0800   14.9860 N.am      3 SEP2        0.0000 
     28 CA          5.0300    1.0380   13.9630 C.3       2 GLC5        0.0000 
     29 CA          5.3110    3.1200   14.6740 C.3       6 GLL5        0.0000 
     30 CA          7.2120    2.6540   14.9685 C.3       2 GLC5        0.0000 
     31 CA          9.1130    2.1880   15.2630 C.3       4 GLP5        0.0000 
     32 CA          4.3955    0.1485   15.0165 C.3       2 GLC5        0.0000 
     33 CA          4.0420    1.3410   16.7810 C.3       6 GLL5        0.0000 
     34 CA          5.7415    0.1610   16.6455 C.3       2 GLC5        0.0000 
     35 CA          7.4410   -1.0190   16.5100 C.3       4 GLP5        0.0000 
     36 CA          4.9375    2.3790   18.4530 C.3       2 GLC5        0.0000 
     37 CA          5.8330    3.4170   20.1250 C.3       4 GLP5        0.0000 
     38 CA          4.4320    0.1845   18.3190 C.3       2 GLC5        0.0000 
     39 CA          4.8220   -0.9720   19.8570 C.3       4 GLP5        0.0000 
     40 CA          2.3110    1.1220   16.7235 C.3       2 GLC5        0.0000 
     41 CA          0.5800    0.9030   16.6660 C.3       4 GLP5        0.0000 
     42 N           2.4340    2.9840   18.5760 N.am      1 SEC2        0.0000 
     43 N           3.3560    3.4290   17.7150 N.am      5 SEL2        0.0000 
     44 N           1.5120    2.5390   19.4370 N.am      3 SEP2        0.0000 
     45 CA          4.6080    5.3275   19.4095 C.3       2 GLC5        0.0000 
     46 CA          2.8980    5.8590   18.3140 C.3       6 GLL5        0.0000 
     47 CA          6.3180    4.7960   20.5050 C.3       4 GLP5        0.0000 
     48 CA          3.3940    7.7325   17.8330 C.3       2 GLC5        0.0000 
     49 CA          3.8900    9.6060   17.3520 C.3       4 GLP5        0.0000 
     50 CA          2.4160    4.2370   19.5550 C.3       2 GLC5        0.0000 
     51 CA          1.9340    2.6150   20.7960 C.3       4 GLP5        0.0000 
     52 CA          2.9195    6.9565   19.8490 C.3       2 GLC5        0.0000 
     53 CA          2.9410    8.0540   21.3840 C.3       4 GLP5        0.0000 
     54 CA         -0.1275    1.3210    7.7062 C.3       2 GLC5        0.0000 
     55 CA          3.8272    1.2948    8.0880 C.3       2 GLC5        0.0000 
     56 CA          5.0470    1.0680    6.4720 C.3       4 GLP5        0.0000 
     57 CA          5.1033    3.8357   18.1112 C.3       2 GLC5        0.0000 
     58 CA          4.5240    3.6040   15.9070 C.3       6 GLL5        0.0000 
@<TRIPOS>BOND
@<TRIPOS>SUBSTRUCTURE
     1 SEC2       25 GROUP        1 X    SEC  0     ROOT SEC X 2
     2 GLC5        1 GROUP        1 X    GLC  0     **** GLC X 6
     3 SEP2       27 GROUP        1 Y    SEP  0     ROOT SEP Y 9
     4 GLP5        3 GROUP        1 Y    GLP  0     **** GLP Y 13
     5 SEL2       26 GROUP        1 Z    SEL  0     ROOT SEL Z 16
     6 GLL5        2 GROUP        1 Z    GLL  0     **** GLL Z 20
@<TRIPOS>SET

