#    Name: 4a31_2CB_1_ligand
#    Modification time : Tue Mar 25 04:53:49 2014

@<TRIPOS>MOLECULE
4a31_2CB_1_ligand
   58    60     1     0     0
SMALL
NO_CHARGES


@<TRIPOS>ATOM
      1 CAN         0.1930    0.7470    9.8440 C.3       1 2CB1423     0.0000 
      2 CAL        -1.0850    0.2010    9.1770 C.3       1 2CB1423     0.0000 
      3 NAY        -1.0690   -1.2810    9.1020 N.3       1 2CB1423     0.0000 
      4 CAC        -2.2460   -1.7130    8.3190 C.3       1 2CB1423     0.0000 
      5 CAM         0.2070   -1.8390    8.6050 C.3       1 2CB1423     0.0000 
      6 CAO         1.3390   -1.3330    9.5110 C.3       1 2CB1423     0.0000 
      7 NAZ         1.4320    0.1300    9.3210 N.4       1 2CB1423     0.0000 
      8 CAK         2.5980    0.7980    9.9650 C.3       1 2CB1423     0.0000 
      9 CAJ         2.6170    2.2450    9.4430 C.3       1 2CB1423     0.0000 
     10 NAR         3.6670    3.1360    9.9940 N.pl3     1 2CB1423     0.0000 
     11 CAU         3.5590    3.9720   11.0510 C.ar      1 2CB1423     0.0000 
     12 CAG         4.6330    4.8310   11.2670 C.ar      1 2CB1423     0.0000 
     13 CAH         4.6150    5.7070   12.3320 C.ar      1 2CB1423     0.0000 
     14 NAP         2.4950    4.0080   11.8940 N.ar      1 2CB1423     0.0000 
     15 CAI         2.4480    4.8240   12.9490 C.ar      1 2CB1423     0.0000 
     16 CAV         3.5040    5.7140   13.1760 C.ar      1 2CB1423     0.0000 
     17 SBB         3.5770    6.7850   14.5620 S.o2      1 2CB1423     0.0000 
     18 OAE         4.2710    8.0490   14.1580 O.2       1 2CB1423     0.0000 
     19 OAF         2.2470    7.0400   15.1780 O.2       1 2CB1423     0.0000 
     20 NAS         4.5510    6.0720   15.7160 N.pl3     1 2CB1423     0.0000 
     21 CAX         4.2230    4.9050   16.2880 C.2       1 2CB1423     0.0000 
     22 CAW         4.5240    3.6040   15.9070 C.2       1 2CB1423     0.0000 
     23 CAB         5.3110    3.1200   14.6740 C.3       1 2CB1423     0.0000 
     24 NBA         3.9580    2.8050   16.8180 N.pl3     1 2CB1423     0.0000 
     25 CAD         4.0420    1.3410   16.7810 C.3       1 2CB1423     0.0000 
     26 NAQ         3.3560    3.4290   17.7150 N.2       1 2CB1423     0.0000 
     27 CAT         3.4670    4.7360   17.4420 C.2       1 2CB1423     0.0000 
     28 CAA         2.8980    5.8590   18.3140 C.3       1 2CB1423     0.0000 
     29 H           0.1082    0.5760   10.9303 H         1 2CB1423     0.0000 
     30 H           0.2146    1.8392    9.6922 H         1 2CB1423     0.0000 
     31 H          -1.1582    0.6342    8.1738 H         1 2CB1423     0.0000 
     32 H          -1.9471    0.5455    9.7580 H         1 2CB1423     0.0000 
     33 H           0.4032   -1.5089    7.5924 H         1 2CB1423     0.0000 
     34 H           0.1944   -2.9212    8.6421 H         1 2CB1423     0.0000 
     35 H           2.2569   -1.8187    9.2187 H         1 2CB1423     0.0000 
     36 H           1.0949   -1.5741   10.5339 H         1 2CB1423     0.0000 
     37 H           1.4619    0.3454    8.2392 H         1 2CB1423     0.0000 
     38 H           3.5159    0.3165    9.6827 H         1 2CB1423     0.0000 
     39 H           2.4833    0.8171   11.0330 H         1 2CB1423     0.0000 
     40 H           1.6078    2.6868    9.6340 H         1 2CB1423     0.0000 
     41 H           2.7042    2.2017    8.3292 H         1 2CB1423     0.0000 
     42 H           4.5970    3.0750    9.4614 H         1 2CB1423     0.0000 
     43 H           5.4403    4.8078   10.6266 H         1 2CB1423     0.0000 
     44 H           5.3957    6.3410   12.5058 H         1 2CB1423     0.0000 
     45 H           1.6539    4.8215   13.6084 H         1 2CB1423     0.0000 
     46 H           5.3715    6.6386   15.8912 H         1 2CB1423     0.0000 
     47 H          -2.2339   -1.3373    7.3924 H         1 2CB1423     0.0000 
     48 H          -2.2887   -2.7082    8.2312 H         1 2CB1423     0.0000 
     49 H          -3.1025   -1.4191    8.7433 H         1 2CB1423     0.0000 
     50 H           6.2447    3.4780   14.6653 H         1 2CB1423     0.0000 
     51 H           5.3792    2.1228   14.6449 H         1 2CB1423     0.0000 
     52 H           4.8782    3.4092   13.8202 H         1 2CB1423     0.0000 
     53 H           4.9886    1.0220   16.8279 H         1 2CB1423     0.0000 
     54 H           3.5531    0.9215   17.5459 H         1 2CB1423     0.0000 
     55 H           3.6481    0.9675   15.9412 H         1 2CB1423     0.0000 
     56 H           3.6193    6.4480   18.6784 H         1 2CB1423     0.0000 
     57 H           2.2713    6.4459   17.8014 H         1 2CB1423     0.0000 
     58 H           2.3894    5.5001   19.0966 H         1 2CB1423     0.0000 
@<TRIPOS>BOND
     1    2    1 1    
     2    7    1 1    
     3   29    1 1    
     4   30    1 1    
     5    3    2 1    
     6   31    2 1    
     7   32    2 1    
     8    4    3 1    
     9    5    3 1    
    10   47    4 1    
    11   48    4 1    
    12   49    4 1    
    13    6    5 1    
    14   33    5 1    
    15   34    5 1    
    16    7    6 1    
    17   35    6 1    
    18   36    6 1    
    19    8    7 1    
    20   37    7 1    
    21    9    8 1    
    22   38    8 1    
    23   39    8 1    
    24   10    9 1    
    25   40    9 1    
    26   41    9 1    
    27   11   10 1    
    28   42   10 1    
    29   12   11 ar   
    30   14   11 ar   
    31   13   12 ar   
    32   43   12 1    
    33   16   13 ar   
    34   44   13 1    
    35   15   14 ar   
    36   16   15 ar   
    37   45   15 1    
    38   17   16 1    
    39   18   17 2    
    40   19   17 2    
    41   20   17 1    
    42   21   20 1    
    43   46   20 1    
    44   22   21 2    
    45   27   21 1    
    46   23   22 1    
    47   24   22 1    
    48   50   23 1    
    49   51   23 1    
    50   52   23 1    
    51   25   24 1    
    52   26   24 1    
    53   53   25 1    
    54   54   25 1    
    55   55   25 1    
    56   27   26 2    
    57   28   27 1    
    58   56   28 1    
    59   57   28 1    
    60   58   28 1    
@<TRIPOS>SUBSTRUCTURE
     1 2CB1423     1 GROUP   
@<TRIPOS>SET

