#    Name: 2gde_SN3_1_INTS_M
#    Modification time : Tue Mar 25 14:02:16 2014

@<TRIPOS>MOLECULE
2gde_SN3_1_INTS_M
   96     0    15     0     0
SMALL
NO_CHARGES


@<TRIPOS>ATOM
      1 CA         22.4185  -15.0725   18.1155 C.3       5 GLC5        0.0000 
      2 CA         20.6550  -15.2220   18.4460 C.3      15 GLL5        0.0000 
      3 CA         24.1820  -14.9230   17.7850 C.3      10 GLP5        0.0000 
      4 CA         22.8160  -14.2570   19.2180 C.3       5 GLC5        0.0000 
      5 CA         21.1760  -14.0950   19.3760 C.3      15 GLL5        0.0000 
      6 CA         24.4560  -14.4190   19.0600 C.3      10 GLP5        0.0000 
      7 CA         17.9990  -11.5110   22.6390 C.3       5 GLC5        0.0000 
      8 CA         18.1900  -12.3790   20.8640 C.3      15 GLL5        0.0000 
      9 CA         17.8080  -10.6430   24.4140 C.3      10 GLP5        0.0000 
     10 CA         19.5530  -10.7995   18.7335 C.3       5 GLC5        0.0000 
     11 CA         19.3180  -12.4730   19.8170 C.3      15 GLL5        0.0000 
     12 CA         19.7880   -9.1260   17.6500 C.3      10 GLP5        0.0000 
     13 O          16.9660   -9.7560   20.9895 O.2       1 ALC1        0.0000 
     14 O          16.3650  -10.8720   20.1540 O.2      11 ALL1        0.0000 
     15 O          17.5670   -8.6400   21.8250 O.2       6 ALP1        0.0000 
     16 CA         11.2430   -8.3155   22.4255 C.3       5 GLC5        0.0000 
     17 CA         12.9610   -9.7310   22.5500 C.3      15 GLL5        0.0000 
     18 CA          9.5250   -6.9000   22.3010 C.3      10 GLP5        0.0000 
     19 CA         12.9410   -7.9005   21.9415 C.3       5 GLC5        0.0000 
     20 CA         12.9210   -6.0700   21.3330 C.3      10 GLP5        0.0000 
     21 CA         13.4570  -12.1485   24.4270 C.3       5 GLC5        0.0000 
     22 CA         12.6070  -12.0340   22.6700 C.3      15 GLL5        0.0000 
     23 CA         14.3070  -12.2630   26.1840 C.3      10 GLP5        0.0000 
     24 CA         10.8395  -12.9565   22.1795 C.3       5 GLC5        0.0000 
     25 CA          9.0720  -13.8790   21.6890 C.3      10 GLP5        0.0000 
     26 CA         12.5605  -11.7220   19.3500 C.3       5 GLC5        0.0000 
     27 CA         13.3880  -11.6830   21.4220 C.3      15 GLL5        0.0000 
     28 CA         11.7330  -11.7610   17.2780 C.3      10 GLP5        0.0000 
     29 OD1         9.7295  -10.2930   25.2910 O.co2     3 ASC3        0.0000 
     30 OD1        11.3470  -10.5390   24.2380 O.co2    13 ASL3        0.0000 
     31 OD1         8.5750  -11.1600   25.9900 O.co2     8 ASP3        0.0000 
     32 OD1         9.8305  -10.2115   25.3215 O.co2     3 ASC3        0.0000 
     33 OD1         8.7950   -8.9940   25.7610 O.co2     8 ASP3        0.0000 
     34 O           9.6195  -11.3760   25.4055 O.2       1 ALC1        0.0000 
     35 O          10.6640  -11.5920   24.8210 O.2      11 ALL1        0.0000 
     36 O           8.5750  -11.1600   25.9900 O.2       6 ALP1        0.0000 
     37 O           9.7295  -10.2930   25.2910 O.2       1 ALC1        0.0000 
     38 O           8.7950   -8.9940   25.7610 O.2       6 ALP1        0.0000 
     39 O          10.7490  -12.9405   24.6800 O.2       1 ALC1        0.0000 
     40 O          10.8340  -14.2890   24.5390 O.2       6 ALP1        0.0000 
     41 O           9.8305  -10.2115   25.3215 O.2       1 ALC1        0.0000 
     42 O          11.0860   -9.2630   24.6530 O.2      11 ALL1        0.0000 
     43 O           9.9405   -9.1285   25.2070 O.2       1 ALC1        0.0000 
     44 N          15.8700  -12.4135   24.0495 N.am      2 SEC2        0.0000 
     45 N          16.5600  -13.1120   22.9460 N.am     12 SEL2        0.0000 
     46 N          15.1800  -11.7150   25.1530 N.am      7 SEP2        0.0000 
     47 CA         15.7255  -16.1585   26.3380 C.3       5 GLC5        0.0000 
     48 CA         17.7410  -16.4080   25.5710 C.3      15 GLL5        0.0000 
     49 CA         13.7100  -15.9090   27.1050 C.3      10 GLP5        0.0000 
     50 CA         19.3440  -15.4600   28.2540 C.3       5 GLC5        0.0000 
     51 CA         18.1580  -16.0490   26.9950 C.3      15 GLL5        0.0000 
     52 CA         20.5300  -14.8710   29.5130 C.3      10 GLP5        0.0000 
     53 CA         17.8805  -14.0150   27.2370 C.3       5 GLC5        0.0000 
     54 CA         17.6030  -11.9810   27.4790 C.3      10 GLP5        0.0000 
     55 CA         16.5995  -15.9950   28.1800 C.3       5 GLC5        0.0000 
     56 CA         15.0410  -15.9410   29.3650 C.3      10 GLP5        0.0000 
     57 O          15.2095  -15.1340   24.0895 O.2       1 ALC1        0.0000 
     58 O          16.0430  -15.9480   23.2410 O.2      11 ALL1        0.0000 
     59 O          14.3760  -14.3200   24.9380 O.2       6 ALP1        0.0000 
     60 N          12.8095  -16.5845   24.1180 N.am      2 SEC2        0.0000 
     61 N          13.4510  -16.6030   22.9250 N.am     12 SEL2        0.0000 
     62 N          12.1680  -16.5660   25.3110 N.am      7 SEP2        0.0000 
     63 CA         11.8925  -16.2660   23.2520 C.3       5 GLC5        0.0000 
     64 CA         12.9280  -15.8390   21.8240 C.3      15 GLL5        0.0000 
     65 CA         10.8570  -16.6930   24.6800 C.3      10 GLP5        0.0000 
     66 CA         11.0000  -14.8590   21.7565 C.3       5 GLC5        0.0000 
     67 N          13.3270  -17.5165   25.0865 N.am      2 SEC2        0.0000 
     68 N          14.4860  -18.4670   24.8620 N.am     12 SEL2        0.0000 
     69 NZ         12.3890  -20.4745   25.6865 N.4       4 LYC4        0.0000 
     70 NZ         13.9750  -20.6200   26.0320 N.4      14 LYL4        0.0000 
     71 NZ         10.3770  -19.9110   26.5280 N.4       9 LYP4        0.0000 
     72 N          12.3890  -20.4745   25.6865 N.am      2 SEC2        0.0000 
     73 N          13.9750  -20.6200   26.0320 N.am     12 SEL2        0.0000 
     74 N          10.8030  -20.3290   25.3410 N.am      7 SEP2        0.0000 
     75 N          12.5595  -20.3560   26.8175 N.am      2 SEC2        0.0000 
     76 N          11.1440  -20.0920   27.6030 N.am      7 SEP2        0.0000 
     77 CA         20.1760  -16.9763   17.6002 C.3       5 GLC5        0.0000 
     78 CA         19.7530  -16.2550   19.1810 C.3      15 GLL5        0.0000 
     79 CA         20.1480  -18.2140   16.3870 C.3      10 GLP5        0.0000 
     80 CA         20.1506  -11.3825   21.5547 C.3       5 GLC5        0.0000 
     81 CA         20.2190  -13.5570   20.4370 C.3      15 GLL5        0.0000 
     82 CA         21.3220  -10.0680   22.6140 C.3      10 GLP5        0.0000 
     83 CA         13.2113  -10.9337   18.5688 C.3       5 GLC5        0.0000 
     84 CA         15.0980  -10.6020   19.4490 C.3      15 GLL5        0.0000 
     85 CA         15.0217   -8.7523   18.5243 C.3       5 GLC5        0.0000 
     86 CA         15.3540   -7.3980   17.1890 C.3      10 GLP5        0.0000 
     87 CA         13.4202   -8.0335   21.0710 C.3       5 GLC5        0.0000 
     88 CA         14.2810   -9.6110   20.2700 C.3      15 GLL5        0.0000 
     89 CA         14.8922  -10.1482   22.9299 C.3       5 GLC5        0.0000 
     90 CA         16.4770  -10.0110   24.0270 C.3      10 GLP5        0.0000 
     91 CA         18.0712  -13.3365   26.1318 C.3       5 GLC5        0.0000 
     92 CA         17.7450  -15.1150   24.7500 C.3      15 GLL5        0.0000 
     93 CA         12.6285  -17.4570   23.8382 C.3       5 GLC5        0.0000 
     94 CA         14.3890  -17.6150   22.5220 C.3      15 GLL5        0.0000 
     95 CA         11.3108  -10.8929   21.1303 C.3       5 GLC5        0.0000 
     96 CA          9.4930  -10.8280   20.2630 C.3      10 GLP5        0.0000 
@<TRIPOS>BOND
@<TRIPOS>SUBSTRUCTURE
     1 ALC1       13 GROUP        1 X    ALC  0     ROOT ALC X 1
     2 SEC2       44 GROUP        1 X    SEC  0     **** SEC X 2
     3 ASC3       29 GROUP        1 X    ASC  0     **** ASC X 3
     4 LYC4       69 GROUP        1 X    LYC  0     **** LYC X 4
     5 GLC5        1 GROUP        1 X    GLC  0     **** GLC X 6
     6 ALP1       15 GROUP        1 Y    ALP  0     ROOT ALP Y 8
     7 SEP2       46 GROUP        1 Y    SEP  0     **** SEP Y 9
     8 ASP3       31 GROUP        1 Y    ASP  0     **** ASP Y 10
     9 LYP4       71 GROUP        1 Y    LYP  0     **** LYP Y 11
    10 GLP5        3 GROUP        1 Y    GLP  0     **** GLP Y 13
    11 ALL1       14 GROUP        1 Z    ALL  0     ROOT ALL Z 15
    12 SEL2       45 GROUP        1 Z    SEL  0     **** SEL Z 16
    13 ASL3       30 GROUP        1 Z    ASL  0     **** ASL Z 17
    14 LYL4       70 GROUP        1 Z    LYL  0     **** LYL Z 18
    15 GLL5        2 GROUP        1 Z    GLL  0     **** GLL Z 20
@<TRIPOS>SET

