#    Name: 2gde_SN3_1_ligand
#    Modification time : Tue Mar 25 14:02:16 2014

@<TRIPOS>MOLECULE
2gde_SN3_1_ligand
   87    89     1     0     0
SMALL
NO_CHARGES


@<TRIPOS>ATOM
      1 C1         20.6550  -15.2220   18.4460 C.3       1 SN3401      0.0000 
      2 C2         21.1760  -14.0950   19.3760 C.3       1 SN3401      0.0000 
      3 C3         20.2190  -13.5570   20.4370 C.3       1 SN3401      0.0000 
      4 C4         19.1840  -14.5650   20.9690 C.3       1 SN3401      0.0000 
      5 C5         18.6110  -15.5450   19.9140 C.3       1 SN3401      0.0000 
      6 C6         19.7530  -16.2550   19.1810 C.3       1 SN3401      0.0000 
      7 O7         20.4820  -17.0490   20.1390 O.3       1 SN3401      0.0000 
      8 N8         18.1550  -13.6680   21.5580 N.am      1 SN3401      0.0000 
      9 C9         18.1900  -12.3790   20.8640 C.3       1 SN3401      0.0000 
     10 C10        19.3180  -12.4730   19.8170 C.3       1 SN3401      0.0000 
     11 C11        16.8780  -12.1300   20.1530 C.2       1 SN3401      0.0000 
     12 N12        16.3650  -10.8720   20.1540 N.am      1 SN3401      0.0000 
     13 C13        15.0980  -10.6020   19.4490 C.3       1 SN3401      0.0000 
     14 C14        14.2810   -9.6110   20.2700 C.3       1 SN3401      0.0000 
     15 C15        13.5580  -10.3830   21.3480 C.2       1 SN3401      0.0000 
     16 C16        12.9610   -9.7310   22.5500 C.3       1 SN3401      0.0000 
     17 N17        12.2090  -10.7550   23.2710 N.pl3     1 SN3401      0.0000 
     18 C18        12.6070  -12.0340   22.6700 C.3       1 SN3401      0.0000 
     19 C19        13.3880  -11.6830   21.4220 C.2       1 SN3401      0.0000 
     20 C20        11.3470  -10.5390   24.2380 C.cat     1 SN3401      0.0000 
     21 N21        10.6640  -11.5920   24.8210 N.pl3     1 SN3401      0.0000 
     22 N22        11.0860   -9.2630   24.6530 N.pl3     1 SN3401      0.0000 
     23 O23        16.3050  -13.0560   19.5820 O.2       1 SN3401      0.0000 
     24 C24        17.3320  -13.9710   22.5800 C.2       1 SN3401      0.0000 
     25 O25        16.5600  -13.1120   22.9460 O.2       1 SN3401      0.0000 
     26 C26        17.3660  -15.3270   23.2710 C.3       1 SN3401      0.0000 
     27 C27        17.7450  -15.1150   24.7500 C.3       1 SN3401      0.0000 
     28 C28        17.7410  -16.4080   25.5710 C.3       1 SN3401      0.0000 
     29 C29        18.6580  -17.5010   24.9920 C.3       1 SN3401      0.0000 
     30 C30        18.1580  -16.0490   26.9950 C.3       1 SN3401      0.0000 
     31 CL31       19.3340  -14.2690   24.8190 Cl        1 SN3401      0.0000 
     32 N32        16.0430  -15.9480   23.2410 N.am      1 SN3401      0.0000 
     33 C33        15.7690  -17.0330   22.4770 C.2       1 SN3401      0.0000 
     34 C34        14.3890  -17.6150   22.5220 C.3       1 SN3401      0.0000 
     35 O35        13.4510  -16.6030   22.9250 O.3       1 SN3401      0.0000 
     36 C36        12.9280  -15.8390   21.8240 C.3       1 SN3401      0.0000 
     37 C37        14.4110  -18.8270   23.4710 C.3       1 SN3401      0.0000 
     38 O38        14.4860  -18.4670   24.8620 O.3       1 SN3401      0.0000 
     39 S39        15.0530  -19.5630   25.7960 S.o2      1 SN3401      0.0000 
     40 O40        15.2210  -19.0100   27.0920 O.co2     1 SN3401      0.0000 
     41 O41        13.9750  -20.6200   26.0320 O.co2     1 SN3401      0.0000 
     42 O42        16.1130  -20.1720   25.0540 O.co2     1 SN3401      0.0000 
     43 O43        16.6010  -17.5480   21.7500 O.2       1 SN3401      0.0000 
     44 O46        19.9940  -14.6320   17.3100 O.3       1 SN3401      0.0000 
     45 H          21.5523  -15.7726   18.0977 H         1 SN3401      0.0000 
     46 H          21.5144  -13.2480   18.7326 H         1 SN3401      0.0000 
     47 H          22.1011  -14.4652   19.8790 H         1 SN3401      0.0000 
     48 H          20.7325  -13.1206   21.2509 H         1 SN3401      0.0000 
     49 H          19.6545  -15.1153   21.7714 H         1 SN3401      0.0000 
     50 H          18.0157  -14.9856   19.2034 H         1 SN3401      0.0000 
     51 H          17.9913  -16.2771   20.4163 H         1 SN3401      0.0000 
     52 H          19.2998  -16.8931   18.4227 H         1 SN3401      0.0000 
     53 H          18.4098  -11.5878   21.5263 H         1 SN3401      0.0000 
     54 H          18.9278  -12.8135   18.9056 H         1 SN3401      0.0000 
     55 H          19.8362  -11.5629   19.7720 H         1 SN3401      0.0000 
     56 H          16.8119  -10.0865   20.6223 H         1 SN3401      0.0000 
     57 H          14.5216  -11.5157   19.3317 H         1 SN3401      0.0000 
     58 H          15.2878  -10.1702   18.4700 H         1 SN3401      0.0000 
     59 H          13.5662   -9.1191   19.6282 H         1 SN3401      0.0000 
     60 H          14.9436   -8.8867   20.7185 H         1 SN3401      0.0000 
     61 H          12.3055   -8.9248   22.2348 H         1 SN3401      0.0000 
     62 H          13.7538   -9.3280   23.1728 H         1 SN3401      0.0000 
     63 H          11.7429  -12.6149   22.3932 H         1 SN3401      0.0000 
     64 H          13.2420  -12.5923   23.3377 H         1 SN3401      0.0000 
     65 H          13.6685  -12.3879   20.8396 H         1 SN3401      0.0000 
     66 H          10.0004  -11.3483   25.5283 H         1 SN3401      0.0000 
     67 H          10.8932  -12.5053   24.4844 H         1 SN3401      0.0000 
     68 H          10.3801   -9.1641   25.3543 H         1 SN3401      0.0000 
     69 H          11.6239   -8.5404   24.2188 H         1 SN3401      0.0000 
     70 H          18.0983  -15.9439   22.8208 H         1 SN3401      0.0000 
     71 H          17.0818  -14.3754   25.1889 H         1 SN3401      0.0000 
     72 H          16.7246  -16.7841   25.6090 H         1 SN3401      0.0000 
     73 H          15.3174  -15.5085   23.8426 H         1 SN3401      0.0000 
     74 H          14.1551  -17.9882   21.5259 H         1 SN3401      0.0000 
     75 H          15.2710  -19.4622   23.1734 H         1 SN3401      0.0000 
     76 H          13.5015  -19.4268   23.2596 H         1 SN3401      0.0000 
     77 H          19.6115  -17.2024   24.9509 H         1 SN3401      0.0000 
     78 H          18.6355  -18.3351   25.5432 H         1 SN3401      0.0000 
     79 H          18.3905  -17.7564   24.0629 H         1 SN3401      0.0000 
     80 H          19.0716  -15.6434   27.0234 H         1 SN3401      0.0000 
     81 H          17.5315  -15.3895   27.4104 H         1 SN3401      0.0000 
     82 H          18.1753  -16.8521   27.5906 H         1 SN3401      0.0000 
     83 H          13.6526  -15.3662   21.3227 H         1 SN3401      0.0000 
     84 H          12.4460  -16.4177   21.1661 H         1 SN3401      0.0000 
     85 H          12.2803  -15.1414   22.1305 H         1 SN3401      0.0000 
     86 H          21.4158  -17.0901   19.7837 H         1 SN3401      0.0000 
     87 H          20.7023  -14.0999   16.8461 H         1 SN3401      0.0000 
@<TRIPOS>BOND
     1    2    1 1    
     2    6    1 1    
     3   44    1 1    
     4   45    1 1    
     5    3    2 1    
     6   46    2 1    
     7   47    2 1    
     8    4    3 1    
     9   10    3 1    
    10   48    3 1    
    11    5    4 1    
    12    8    4 1    
    13   49    4 1    
    14    6    5 1    
    15   50    5 1    
    16   51    5 1    
    17    7    6 1    
    18   52    6 1    
    19   86    7 1    
    20    9    8 1    
    21   24    8 am   
    22   10    9 1    
    23   11    9 1    
    24   53    9 1    
    25   54   10 1    
    26   55   10 1    
    27   12   11 am   
    28   23   11 2    
    29   13   12 1    
    30   56   12 1    
    31   14   13 1    
    32   57   13 1    
    33   58   13 1    
    34   15   14 1    
    35   59   14 1    
    36   60   14 1    
    37   16   15 1    
    38   19   15 2    
    39   17   16 1    
    40   61   16 1    
    41   62   16 1    
    42   18   17 1    
    43   20   17 ar   
    44   19   18 1    
    45   63   18 1    
    46   64   18 1    
    47   65   19 1    
    48   21   20 ar   
    49   22   20 ar   
    50   66   21 1    
    51   67   21 1    
    52   68   22 1    
    53   69   22 1    
    54   25   24 2    
    55   26   24 1    
    56   27   26 1    
    57   32   26 1    
    58   70   26 1    
    59   28   27 1    
    60   31   27 1    
    61   71   27 1    
    62   29   28 1    
    63   30   28 1    
    64   72   28 1    
    65   77   29 1    
    66   78   29 1    
    67   79   29 1    
    68   80   30 1    
    69   81   30 1    
    70   82   30 1    
    71   33   32 am   
    72   73   32 1    
    73   34   33 1    
    74   43   33 2    
    75   35   34 1    
    76   37   34 1    
    77   74   34 1    
    78   36   35 1    
    79   83   36 1    
    80   84   36 1    
    81   85   36 1    
    82   38   37 1    
    83   75   37 1    
    84   76   37 1    
    85   39   38 1    
    86   40   39 ar   
    87   41   39 ar   
    88   42   39 ar   
    89   87   44 1    
@<TRIPOS>SUBSTRUCTURE
     1 SN3401      1 GROUP   
@<TRIPOS>SET

