#    Name: 2q2y_MKR_1_INTS_M
#    Modification time : Mon Mar 24 20:31:52 2014

@<TRIPOS>MOLECULE
2q2y_MKR_1_INTS_M
   64     0     6     0     0
SMALL
NO_CHARGES


@<TRIPOS>ATOM
      1 CA         19.1635   18.0935  106.5920 C.3       2 GLC5        0.0000 
      2 CA         20.6630   16.6840  106.8450 C.3       6 GLL5        0.0000 
      3 CA         17.6640   19.5030  106.3390 C.3       4 GLP5        0.0000 
      4 CA         23.6275   13.2190  108.0025 C.3       2 GLC5        0.0000 
      5 CA         22.3140   14.2460  106.9980 C.3       6 GLL5        0.0000 
      6 CA         24.9410   12.1920  109.0070 C.3       4 GLP5        0.0000 
      7 CA         17.5265   18.2420  112.3850 C.3       2 GLC5        0.0000 
      8 CA         17.4730   18.6260  110.6720 C.3       6 GLL5        0.0000 
      9 CA         17.5800   17.8580  114.0980 C.3       4 GLP5        0.0000 
     10 CA         17.6790   20.2255  111.1760 C.3       2 GLC5        0.0000 
     11 CA         17.8850   21.8250  111.6800 C.3       4 GLP5        0.0000 
     12 CA         17.5685   19.0645  108.5055 C.3       2 GLC5        0.0000 
     13 N          15.5890   17.9675  112.5675 N.am      1 SEC2        0.0000 
     14 N          15.7920   17.0400  111.2440 N.am      5 SEL2        0.0000 
     15 N          15.3860   18.8950  113.8910 N.am      3 SEP2        0.0000 
     16 CA         19.1405   11.8850  112.7465 C.3       2 GLC5        0.0000 
     17 CA         17.1740   12.6650  113.2940 C.3       6 GLL5        0.0000 
     18 CA         21.1070   11.1050  112.1990 C.3       4 GLP5        0.0000 
     19 CA         15.3690   11.9440  111.0625 C.3       2 GLC5        0.0000 
     20 CA         16.8900   13.0590  111.9240 C.3       6 GLL5        0.0000 
     21 CA         13.8480   10.8290  110.2010 C.3       4 GLP5        0.0000 
     22 CA         24.0355   19.0005  105.5675 C.3       2 GLC5        0.0000 
     23 CA         22.3890   17.5020  105.3880 C.3       6 GLL5        0.0000 
     24 CA         25.6820   20.4990  105.7470 C.3       4 GLP5        0.0000 
     25 CA         20.3695   12.2215  110.7335 C.3       2 GLC5        0.0000 
     26 CA         19.6320   13.3380  109.2680 C.3       6 GLL5        0.0000 
     27 CA         21.0135   14.5700  110.4865 C.3       2 GLC5        0.0000 
     28 CA         22.3950   15.8020  111.7050 C.3       4 GLP5        0.0000 
     29 CA         14.7620   14.6020  111.0575 C.3       2 GLC5        0.0000 
     30 CA         16.0120   14.3640  109.4640 C.3       6 GLL5        0.0000 
     31 CA         13.5120   14.8400  112.6510 C.3       4 GLP5        0.0000 
     32 CA         12.7465   12.2475  106.9230 C.3       2 GLC5        0.0000 
     33 CA         13.1720   14.0160  105.6240 C.3       6 GLL5        0.0000 
     34 CA         12.3210   10.4790  108.2220 C.3       4 GLP5        0.0000 
     35 CA         22.1367   18.9398  105.4170 C.3       2 GLC5        0.0000 
     36 CA         21.9000   16.5170  106.1240 C.3       6 GLL5        0.0000 
     37 CA         22.1290   20.8700  105.0780 C.3       4 GLP5        0.0000 
     38 CA         21.3701   16.9601  108.6621 C.3       2 GLC5        0.0000 
     39 CA         21.9420   17.8520  110.2540 C.3       4 GLP5        0.0000 
     40 CA         21.0450   12.7532  106.4863 C.3       2 GLC5        0.0000 
     41 CA         21.1400   14.3930  107.6850 C.3       6 GLL5        0.0000 
     42 CA         20.3630   11.1870  105.6310 C.3       4 GLP5        0.0000 
     43 CA         23.1270   15.6954  108.3734 C.3       2 GLC5        0.0000 
     44 CA         24.0530   16.5540  109.9910 C.3       4 GLP5        0.0000 
     45 CA         19.2245   12.3692  107.8813 C.3       2 GLC5        0.0000 
     46 CA         19.3980   10.9710  106.7240 C.3       4 GLP5        0.0000 
     47 CA         16.4035   14.5033  112.6808 C.3       2 GLC5        0.0000 
     48 CA         17.6410   14.0660  111.3530 C.3       6 GLL5        0.0000 
     49 CA         14.6560   14.6300  113.6180 C.3       4 GLP5        0.0000 
     50 CA         20.6120   15.1590  112.2545 C.3       2 GLC5        0.0000 
     51 CA         18.9970   14.3450  113.4740 C.3       6 GLL5        0.0000 
     52 CA         16.6310   14.2335  113.6797 C.3       2 GLC5        0.0000 
     53 CA         18.4815   14.8630  115.4988 C.3       2 GLC5        0.0000 
     54 CA         18.2150   13.3290  114.0090 C.3       6 GLL5        0.0000 
     55 CA         18.3570   15.8890  117.2560 C.3       4 GLP5        0.0000 
     56 CA         18.0397   11.1395  114.1347 C.3       2 GLC5        0.0000 
     57 CA         18.3850    9.2820  114.6180 C.3       4 GLP5        0.0000 
     58 CA         20.1805   12.9228  113.2888 C.3       2 GLC5        0.0000 
     59 CA         21.8390   11.9230  113.1710 C.3       4 GLP5        0.0000 
     60 CA         15.8440   13.7460  113.1135 C.3       2 GLC5        0.0000 
     61 CA         23.5526   16.9744  104.5273 C.3       2 GLC5        0.0000 
     62 CA         24.7670   17.2300  103.2870 C.3       4 GLP5        0.0000 
     63 CA         14.8373   12.5695  109.4632 C.3       2 GLC5        0.0000 
     64 CA         15.6410   14.2560  107.9870 C.3       6 GLL5        0.0000 
@<TRIPOS>BOND
@<TRIPOS>SUBSTRUCTURE
     1 SEC2       13 GROUP        1 X    SEC  0     ROOT SEC X 2
     2 GLC5        1 GROUP        1 X    GLC  0     **** GLC X 6
     3 SEP2       15 GROUP        1 Y    SEP  0     ROOT SEP Y 9
     4 GLP5        3 GROUP        1 Y    GLP  0     **** GLP Y 13
     5 SEL2       14 GROUP        1 Z    SEL  0     ROOT SEL Z 16
     6 GLL5        2 GROUP        1 Z    GLL  0     **** GLL Z 20
@<TRIPOS>SET

