#    Name: 2q2y_MKR_1_ligand
#    Modification time : Mon Mar 24 20:31:52 2014

@<TRIPOS>MOLECULE
2q2y_MKR_1_ligand
   67    71     1     0     0
SMALL
NO_CHARGES


@<TRIPOS>ATOM
      1 C1         21.9000   16.5170  106.1240 C.ar      1 MKR604      0.0000 
      2 C2         20.6630   16.6840  106.8450 C.ar      1 MKR604      0.0000 
      3 C3         20.3150   15.5360  107.6560 C.ar      1 MKR604      0.0000 
      4 C4         21.1400   14.3930  107.6850 C.ar      1 MKR604      0.0000 
      5 C5         22.3140   14.2460  106.9980 C.ar      1 MKR604      0.0000 
      6 C6         22.6750   15.3540  106.1700 C.ar      1 MKR604      0.0000 
      7 N2         19.1170   15.4520  108.4270 N.pl3     1 MKR604      0.0000 
      8 N12        18.5790   16.4330  109.0100 N.2       1 MKR604      0.0000 
      9 C8         17.6140   16.1840  109.8890 C.2       1 MKR604      0.0000 
     10 C14        17.4540   14.5950  109.9210 C.3       1 MKR604      0.0000 
     11 C15        18.4700   14.1970  108.8090 C.3       1 MKR604      0.0000 
     12 C18        17.6410   14.0660  111.3530 C.ar      1 MKR604      0.0000 
     13 C20        16.8730   17.2660  110.6740 C.2       1 MKR604      0.0000 
     14 C9         17.4730   18.6260  110.6720 C.3       1 MKR604      0.0000 
     15 O25        15.7920   17.0400  111.2440 O.2       1 MKR604      0.0000 
     16 C26        18.6610   14.6870  112.1340 C.ar      1 MKR604      0.0000 
     17 C27        18.9970   14.3450  113.4740 C.ar      1 MKR604      0.0000 
     18 C28        18.2150   13.3290  114.0090 C.ar      1 MKR604      0.0000 
     19 C29        17.1740   12.6650  113.2940 C.ar      1 MKR604      0.0000 
     20 C30        16.8900   13.0590  111.9240 C.ar      1 MKR604      0.0000 
     21 O1         20.7560   13.2880  108.4210 O.3       1 MKR604      0.0000 
     22 F1         22.3890   17.5020  105.3880 F         1 MKR604      0.0000 
     23 C7         19.6320   13.3380  109.2680 C.3       1 MKR604      0.0000 
     24 C10        16.0120   14.3640  109.4640 C.3       1 MKR604      0.0000 
     25 C11        15.6410   14.2560  107.9870 C.3       1 MKR604      0.0000 
     26 C12        14.3280   15.0800  107.6970 C.3       1 MKR604      0.0000 
     27 N3         13.9080   15.0860  106.2690 N.4       1 MKR604      0.0000 
     28 C16        13.9750   16.3670  105.5640 C.3       1 MKR604      0.0000 
     29 C17        13.1720   14.0160  105.6240 C.3       1 MKR604      0.0000 
     30 C19        12.5210   16.8970  105.7600 C.3       1 MKR604      0.0000 
     31 C21        11.6500   14.3800  105.6820 C.3       1 MKR604      0.0000 
     32 N1         11.4400   15.8630  105.3840 N.am      1 MKR604      0.0000 
     33 C22        10.3150   16.3480  104.8040 C.2       1 MKR604      0.0000 
     34 C24         9.6020   15.2390  103.9500 C.3       1 MKR604      0.0000 
     35 O2          9.9870   17.5290  104.9460 O.2       1 MKR604      0.0000 
     36 H          20.1209   17.4769  106.7947 H         1 MKR604      0.0000 
     37 H          22.8933   13.4426  107.0498 H         1 MKR604      0.0000 
     38 H          23.5304   15.2807  105.5975 H         1 MKR604      0.0000 
     39 H          17.9797   13.7784  107.9940 H         1 MKR604      0.0000 
     40 H          19.2115   15.4649  111.6786 H         1 MKR604      0.0000 
     41 H          19.7188   14.7963  113.9611 H         1 MKR604      0.0000 
     42 H          18.3887   13.0201  114.9981 H         1 MKR604      0.0000 
     43 H          16.6356   11.9307  113.7227 H         1 MKR604      0.0000 
     44 H          16.1487   12.5833  111.4268 H         1 MKR604      0.0000 
     45 H          19.2198   12.3033  109.4574 H         1 MKR604      0.0000 
     46 H          19.9171   13.6971  110.3005 H         1 MKR604      0.0000 
     47 H          15.3667   15.1808  109.9271 H         1 MKR604      0.0000 
     48 H          15.6275   13.4292  109.9896 H         1 MKR604      0.0000 
     49 H          15.4555   13.2245  107.7244 H         1 MKR604      0.0000 
     50 H          16.4337   14.6598  107.3737 H         1 MKR604      0.0000 
     51 H          14.5060   16.1096  108.0532 H         1 MKR604      0.0000 
     52 H          13.5319   14.6562  108.3336 H         1 MKR604      0.0000 
     53 H          15.1299   14.6801  105.8048 H         1 MKR604      0.0000 
     54 H          14.1422   16.2424  104.5298 H         1 MKR604      0.0000 
     55 H          14.6365   17.0430  106.0314 H         1 MKR604      0.0000 
     56 H          13.2975   13.0712  106.1353 H         1 MKR604      0.0000 
     57 H          13.4390   13.9106  104.5812 H         1 MKR604      0.0000 
     58 H          12.3920   17.7921  105.1439 H         1 MKR604      0.0000 
     59 H          12.3947   17.1840  106.8083 H         1 MKR604      0.0000 
     60 H          11.2809   14.1471  106.6741 H         1 MKR604      0.0000 
     61 H          11.1269   13.7784  104.9477 H         1 MKR604      0.0000 
     62 H          18.3948   18.6258  111.0597 H         1 MKR604      0.0000 
     63 H          17.5442   18.9992  109.7470 H         1 MKR604      0.0000 
     64 H          16.9298   19.2724  111.2078 H         1 MKR604      0.0000 
     65 H          10.1919   14.8969  103.2186 H         1 MKR604      0.0000 
     66 H           9.3403   14.4515  104.5080 H         1 MKR604      0.0000 
     67 H           8.7681   15.5820  103.5177 H         1 MKR604      0.0000 
@<TRIPOS>BOND
     1    2    1 ar   
     2    6    1 ar   
     3   22    1 1    
     4    3    2 ar   
     5   36    2 1    
     6    4    3 ar   
     7    7    3 1    
     8    5    4 ar   
     9   21    4 1    
    10    6    5 ar   
    11   37    5 1    
    12   38    6 1    
    13    8    7 1    
    14   11    7 1    
    15    9    8 2    
    16   10    9 1    
    17   13    9 1    
    18   11   10 1    
    19   12   10 1    
    20   24   10 1    
    21   23   11 1    
    22   39   11 1    
    23   16   12 ar   
    24   20   12 ar   
    25   14   13 1    
    26   15   13 2    
    27   62   14 1    
    28   63   14 1    
    29   64   14 1    
    30   17   16 ar   
    31   40   16 1    
    32   18   17 ar   
    33   41   17 1    
    34   19   18 ar   
    35   42   18 1    
    36   20   19 ar   
    37   43   19 1    
    38   44   20 1    
    39   23   21 1    
    40   45   23 1    
    41   46   23 1    
    42   25   24 1    
    43   47   24 1    
    44   48   24 1    
    45   26   25 1    
    46   49   25 1    
    47   50   25 1    
    48   27   26 1    
    49   51   26 1    
    50   52   26 1    
    51   28   27 1    
    52   29   27 1    
    53   53   27 1    
    54   30   28 1    
    55   54   28 1    
    56   55   28 1    
    57   31   29 1    
    58   56   29 1    
    59   57   29 1    
    60   32   30 1    
    61   58   30 1    
    62   59   30 1    
    63   32   31 1    
    64   60   31 1    
    65   61   31 1    
    66   33   32 am   
    67   34   33 1    
    68   35   33 2    
    69   65   34 1    
    70   66   34 1    
    71   67   34 1    
@<TRIPOS>SUBSTRUCTURE
     1 MKR604      1 GROUP   
@<TRIPOS>SET

