#    Name: 2GVG_3_CAVITY_N1_ALL.mol2
#    Modification time : Mon Mar 10 15:33:39 2014

@<TRIPOS>MOLECULE
2GVG_3_CAVITY_N1_ALL.mol2
  165     0     7     0     0
SMALL
NO_CHARGES


@<TRIPOS>ATOM
      1 OG         42.1650    6.1116   77.6894 O.2       1 SER1        0.0000 
      2 OD1        43.3213    5.3625   77.0963 O.3       3 ASP3        0.0000 
      3 O          44.4776    4.6134   76.5031 O.2       2 ALA2        0.0000 
      4 O          45.6338    3.8643   75.9100 O.2       2 ALA2        0.0000 
      5 O          46.7901    3.1151   75.3169 O.2       2 ALA2        0.0000 
      6 OD1        47.9464    2.3660   74.7237 O.3       3 ASP3        0.0000 
      7 CZ         49.1027    1.6169   74.1306 C.ar      5 PHE5        0.0000 
      8 NZ         43.4676    7.4811   70.9124 N.2       4 LYS4        0.0000 
      9 O          44.6239    6.7320   70.3193 O.2       2 ALA2        0.0000 
     10 NZ         39.5127    8.4657   73.3392 N.2       4 LYS4        0.0000 
     11 NZ         40.6690    7.7165   72.7461 N.2       4 LYS4        0.0000 
     12 O          41.8253    6.9674   72.1530 O.2       2 ALA2        0.0000 
     13 O          42.9816    6.2183   71.5598 O.2       2 ALA2        0.0000 
     14 O          44.1379    5.4692   70.9667 O.2       2 ALA2        0.0000 
     15 O          45.2942    4.7201   70.3736 O.2       2 ALA2        0.0000 
     16 NZ         42.7943    9.3929   67.1853 N.2       4 LYS4        0.0000 
     17 O          43.9506    8.6438   66.5921 O.2       2 ALA2        0.0000 
     18 NZ         42.3083    8.1301   67.8327 N.2       4 LYS4        0.0000 
     19 NZ         45.0750   13.4882   66.4592 N.2       4 LYS4        0.0000 
     20 NZ         40.8214   10.0353   73.9080 N.2       4 LYS4        0.0000 
     21 NZ         43.1340    8.5371   72.7217 N.2       4 LYS4        0.0000 
     22 DU         44.2903    7.7880   72.1286 H         7 CUB7        0.0000 
     23 DU         45.4466    7.0389   71.5354 H         7 CUB7        0.0000 
     24 O          46.6029    6.2898   70.9423 O.2       2 ALA2        0.0000 
     25 OD1        43.6230    9.9000   75.7472 O.3       3 ASP3        0.0000 
     26 NZ         47.0919    7.6526   73.9678 N.2       4 LYS4        0.0000 
     27 O          41.9807    9.3863   76.9877 O.2       2 ALA2        0.0000 
     28 CA         45.7483   11.5764   70.1863 C.3       6 GLY6        0.0000 
     29 OD1        45.1508    2.7016   80.2303 O.3       3 ASP3        0.0000 
     30 OG         46.3071    1.9524   79.6371 O.2       1 SER1        0.0000 
     31 OD1        43.5085    2.1879   81.4708 O.3       3 ASP3        0.0000 
     32 NZ         44.6648    1.4388   80.8777 N.2       4 LYS4        0.0000 
     33 O          47.6158    3.5221   80.2059 O.2       2 ALA2        0.0000 
     34 CA         43.8452    1.2320   83.3344 C.3       6 GLY6        0.0000 
     35 NZ         45.0015    0.4829   82.7413 N.2       4 LYS4        0.0000 
     36 O          41.8283    7.0675   75.8258 O.2       2 ALA2        0.0000 
     37 O          42.9846    6.3184   75.2327 O.2       2 ALA2        0.0000 
     38 O          45.2972    4.8202   74.0464 O.2       2 ALA2        0.0000 
     39 DU         46.4535    4.0710   73.4533 H         7 CUB7        0.0000 
     40 N          47.6098    3.3219   72.8602 N.2       2 ALA2        0.0000 
     41 NZ         41.8223    6.8673   68.4801 N.2       4 LYS4        0.0000 
     42 NZ         44.9287   11.3696   72.6430 N.2       4 LYS4        0.0000 
     43 O          48.3976    9.1222   70.8636 O.2       2 ALA2        0.0000 
     44 CA         42.9876    6.4185   78.9056 C.3       6 GLY6        0.0000 
     45 OD1        44.1439    5.6694   78.3124 O.3       3 ASP3        0.0000 
     46 O          45.3002    4.9203   77.7193 O.2       2 ALA2        0.0000 
     47 O          46.4565    4.1711   77.1262 O.2       2 ALA2        0.0000 
     48 O          47.6128    3.4220   76.5330 O.2       2 ALA2        0.0000 
     49 OG         48.7691    2.6729   75.9399 O.2       1 SER1        0.0000 
     50 OG         49.9254    1.9238   75.3468 O.2       1 SER1        0.0000 
     51 O          44.8142    3.6575   78.3667 O.2       2 ALA2        0.0000 
     52 O          44.4745    4.5133   72.8303 O.2       2 ALA2        0.0000 
     53 O          45.6308    3.7642   72.2371 O.2       2 ALA2        0.0000 
     54 NZ         44.1060   11.0627   71.4269 N.2       4 LYS4        0.0000 
     55 O          45.2623   10.3136   70.8337 O.2       2 ALA2        0.0000 
     56 O          46.4186    9.5645   70.2406 O.2       2 ALA2        0.0000 
     57 O          47.5749    8.8153   69.6475 O.2       2 ALA2        0.0000 
     58 O          48.7312    8.0662   69.0543 O.2       2 ALA2        0.0000 
     59 N          40.1511   12.0472   73.8537 N.2       2 ALA2        0.0000 
     60 NZ         43.6200    9.7999   72.0743 N.2       4 LYS4        0.0000 
     61 NZ         44.7763    9.0508   71.4812 N.2       4 LYS4        0.0000 
     62 DU         45.9326    8.3017   70.8880 H         7 CUB7        0.0000 
     63 O          47.0889    7.5525   70.2949 O.2       2 ALA2        0.0000 
     64 CA         45.8211    0.6896   80.2846 C.3       6 GLY6        0.0000 
     65 OD1        43.9597    8.9441   77.6107 O.3       3 ASP3        0.0000 
     66 NZ         45.1159    8.1950   77.0176 N.2       4 LYS4        0.0000 
     67 NZ         47.4285    6.6967   75.8313 N.2       4 LYS4        0.0000 
     68 NZ         48.5848    5.9476   75.2382 N.2       4 LYS4        0.0000 
     69 CA         44.4806    4.7135   80.1760 C.3       6 GLY6        0.0000 
     70 O          45.6369    3.9643   79.5829 O.2       2 ALA2        0.0000 
     71 OG         46.7932    3.2152   78.9897 O.2       1 SER1        0.0000 
     72 CA         43.1370    8.6372   76.3946 C.3       6 GLY6        0.0000 
     73 NZ         44.2933    7.8881   75.8014 N.2       4 LYS4        0.0000 
     74 NZ         45.4496    7.1390   75.2083 N.2       4 LYS4        0.0000 
     75 NZ         46.6059    6.3898   74.6152 N.2       4 LYS4        0.0000 
     76 N          47.7622    5.6407   74.0220 N.2       2 ALA2        0.0000 
     77 CZ         48.9185    4.8916   73.4289 C.ar      5 PHE5        0.0000 
     78 O          42.6510    7.3744   77.0420 O.2       2 ALA2        0.0000 
     79 O          43.8073    6.6253   76.4489 O.2       2 ALA2        0.0000 
     80 O          44.9636    5.8762   75.8557 O.2       2 ALA2        0.0000 
     81 DU         46.1199    5.1270   75.2626 H         7 CUB7        0.0000 
     82 DU         47.2762    4.3779   74.6695 H         7 CUB7        0.0000 
     83 CZ         48.4325    3.6288   74.0763 C.ar      5 PHE5        0.0000 
     84 CA         45.9735    3.0084   81.4464 C.3       6 GLY6        0.0000 
     85 O          47.1298    2.2593   80.8533 O.2       2 ALA2        0.0000 
     86 NZ         45.1129    8.0949   73.3447 N.2       4 LYS4        0.0000 
     87 NZ         46.2692    7.3458   72.7516 N.2       4 LYS4        0.0000 
     88 N          47.4255    6.5966   72.1585 N.2       2 ALA2        0.0000 
     89 N          48.5818    5.8475   71.5653 N.2       2 ALA2        0.0000 
     90 O          41.1580    9.0794   75.7715 O.2       2 ALA2        0.0000 
     91 DU         42.3143    8.3303   75.1784 H         7 CUB7        0.0000 
     92 O          43.4706    7.5812   74.5853 O.2       2 ALA2        0.0000 
     93 O          44.6269    6.8321   73.9921 O.2       2 ALA2        0.0000 
     94 DU         45.7832    6.0830   73.3990 H         7 CUB7        0.0000 
     95 DU         46.9395    5.3338   72.8059 H         7 CUB7        0.0000 
     96 CA         48.0958    4.5847   72.2127 C.3       6 GLY6        0.0000 
     97 CA         43.7664   11.9185   65.8904 C.3       6 GLY6        0.0000 
     98 CA         43.2803   10.6557   66.5378 C.3       6 GLY6        0.0000 
     99 CA         44.4366    9.9066   65.9447 C.3       6 GLY6        0.0000 
    100 O          44.7733    8.9507   67.8083 O.2       2 ALA2        0.0000 
    101 CA         44.2873    7.6879   68.4557 C.3       6 GLY6        0.0000 
    102 OD1        43.4736    7.6813   78.2581 O.3       3 ASP3        0.0000 
    103 NZ         44.6299    6.9322   77.6650 N.2       4 LYS4        0.0000 
    104 NZ         45.7862    6.1830   77.0719 N.2       4 LYS4        0.0000 
    105 NZ         46.9425    5.4339   76.4787 N.2       4 LYS4        0.0000 
    106 O          48.0988    4.6848   75.8856 O.2       2 ALA2        0.0000 
    107 O          49.2551    3.9357   75.2925 O.2       2 ALA2        0.0000 
    108 NZ         43.7694   12.0186   69.5633 N.2       4 LYS4        0.0000 
    109 NZ         44.9257   11.2695   68.9702 N.2       4 LYS4        0.0000 
    110 CA         46.0820   10.5204   68.3770 C.3       6 GLY6        0.0000 
    111 N          47.2383    9.7712   67.7839 N.2       2 ALA2        0.0000 
    112 NZ         44.4396   10.0067   69.6176 N.2       4 LYS4        0.0000 
    113 DU         45.5959    9.2576   69.0245 H         7 CUB7        0.0000 
    114 O          46.7522    8.5085   68.4313 O.2       2 ALA2        0.0000 
    115 CA         44.5890   12.2254   67.1066 C.3       6 GLY6        0.0000 
    116 CA         45.7453   11.4763   66.5135 C.3       6 GLY6        0.0000 
    117 NZ         44.1030   10.9626   67.7540 N.2       4 LYS4        0.0000 
    118 O          45.2593   10.2135   67.1609 O.2       2 ALA2        0.0000 
    119 OG         41.3423    5.8047   76.4732 O.2       1 SER1        0.0000 
    120 CA         44.8112    3.5574   74.6938 C.3       6 GLY6        0.0000 
    121 O          45.9675    2.8083   74.1007 O.2       2 ALA2        0.0000 
    122 O          47.1238    2.0591   73.5076 O.2       2 ALA2        0.0000 
    123 O          40.1830    6.4537   73.3935 O.2       2 ALA2        0.0000 
    124 O          44.8082    3.4573   71.0210 O.2       2 ALA2        0.0000 
    125 NZ         43.9536    8.7439   70.2650 N.2       4 LYS4        0.0000 
    126 O          45.1099    7.9948   69.6719 O.2       2 ALA2        0.0000 
    127 O          46.2662    7.2457   69.0787 O.2       2 ALA2        0.0000 
    128 CA         41.7874   12.3607   65.2674 C.3       6 GLY6        0.0000 
    129 OD1        44.9666    5.9763   79.5286 O.3       3 ASP3        0.0000 
    130 NZ         46.1229    5.2271   78.9355 N.2       4 LYS4        0.0000 
    131 O          47.2792    4.4780   78.3423 O.2       2 ALA2        0.0000 
    132 CA         41.3014   11.0979   65.9148 C.3       6 GLY6        0.0000 
    133 O          39.1791    9.5217   75.1485 O.2       2 ALA2        0.0000 
    134 O          40.3354    8.7725   74.5554 O.2       2 ALA2        0.0000 
    135 NZ         41.4917    8.0234   73.9622 N.2       4 LYS4        0.0000 
    136 O          42.6480    7.2743   73.3691 O.2       2 ALA2        0.0000 
    137 O          43.8043    6.5252   72.7760 O.2       2 ALA2        0.0000 
    138 O          44.9606    5.7761   72.1828 O.2       2 ALA2        0.0000 
    139 CA         46.1169    5.0270   71.5897 C.3       6 GLY6        0.0000 
    140 CA         47.2731    4.2778   70.9966 C.3       6 GLY6        0.0000 
    141 O          39.8494    7.5097   75.2028 O.2       2 ALA2        0.0000 
    142 O          41.0057    6.7606   74.6097 O.2       2 ALA2        0.0000 
    143 OG         47.1268    2.1592   77.1804 O.2       1 SER1        0.0000 
    144 O          44.3282    2.3947   79.0141 O.2       2 ALA2        0.0000 
    145 N          45.8977   13.7951   67.6753 N.2       2 ALA2        0.0000 
    146 CA         45.4117   12.5323   68.3228 C.3       6 GLY6        0.0000 
    147 N          46.5680   11.7832   67.7296 N.2       2 ALA2        0.0000 
    148 NZ         42.6450    7.1742   69.6962 N.2       4 LYS4        0.0000 
    149 O          43.8013    6.4251   69.1031 O.2       2 ALA2        0.0000 
    150 CA         41.0026    6.6605   70.9368 C.3       6 GLY6        0.0000 
    151 O          43.3152    5.1623   69.7505 O.2       2 ALA2        0.0000 
    152 CA         44.3312    2.4948   82.6870 C.3       6 GLY6        0.0000 
    153 CA         45.4875    1.7456   82.0939 C.3       6 GLY6        0.0000 
    154 CA         40.9738   12.3541   75.0699 C.3       6 GLY6        0.0000 
    155 CA         42.1301   11.6050   74.4767 C.3       6 GLY6        0.0000 
    156 NZ         43.2864   10.8559   73.8836 N.2       4 LYS4        0.0000 
    157 NZ         44.4427   10.1068   73.2905 N.2       4 LYS4        0.0000 
    158 NZ         45.5990    9.3577   72.6973 N.2       4 LYS4        0.0000 
    159 NZ         46.7553    8.6085   72.1042 N.2       4 LYS4        0.0000 
    160 N          47.9115    7.8594   71.5111 N.2       2 ALA2        0.0000 
    161 N          49.0678    7.1103   70.9179 N.2       2 ALA2        0.0000 
    162 O          40.4878   11.0913   75.7173 O.2       2 ALA2        0.0000 
    163 O          41.6441   10.3422   75.1241 O.2       2 ALA2        0.0000 
    164 NZ         42.8003    9.5931   74.5310 N.2       4 LYS4        0.0000 
    165 NZ         43.9566    8.8440   73.9379 N.2       4 LYS4        0.0000 
@<TRIPOS>BOND
@<TRIPOS>SUBSTRUCTURE
     1 SER1        1 GROUP   
     2 ALA2        3 GROUP   
     3 ASP3        2 GROUP   
     4 LYS4        8 GROUP   
     5 PHE5        7 GROUP   
     6 GLY6       28 GROUP   
     7 CUB7       22 GROUP   
@<TRIPOS>SET

