#    Name: 2gvg_NMN_3_INTS_M
#    Modification time : Tue Mar 25 15:10:08 2014

@<TRIPOS>MOLECULE
2gvg_NMN_3_INTS_M
   26     0     6     0     0
SMALL
NO_CHARGES


@<TRIPOS>ATOM
      1 N          43.4495    4.6210   70.6925 N.am      1 SEC2        0.0000 
      2 N          44.7020    5.4480   69.8040 N.am      5 SEL2        0.0000 
      3 N          42.1970    3.7940   71.5810 N.am      3 SEP2        0.0000 
      4 N          45.2345    5.2705   68.6085 N.am      1 SEC2        0.0000 
      5 N          45.7670    5.0930   67.4130 N.am      3 SEP2        0.0000 
      6 CA         48.6785    3.7210   71.6700 C.3       2 GLC5        0.0000 
      7 CA         47.2310    4.8400   72.3940 C.3       6 GLL5        0.0000 
      8 CA         50.1260    2.6020   70.9460 C.3       4 GLP5        0.0000 
      9 CA         47.5620    4.5270   70.2630 C.3       2 GLC5        0.0000 
     10 CA         47.8930    4.2140   68.1320 C.3       4 GLP5        0.0000 
     11 N          48.5690    7.6245   75.7480 N.am      1 SEC2        0.0000 
     12 N          48.0780    6.9240   74.6460 N.am      5 SEL2        0.0000 
     13 N          49.0600    8.3250   76.8500 N.am      3 SEP2        0.0000 
     14 N          49.0575    5.0315   77.5590 N.am      1 SEC2        0.0000 
     15 N          47.8570    5.4540   76.8330 N.am      5 SEL2        0.0000 
     16 N          50.2580    4.6090   78.2850 N.am      3 SEP2        0.0000 
     17 N          48.4585    6.8895   76.8415 N.am      1 SEC2        0.0000 
     18 CA         49.9442    4.4820   73.8565 C.3       2 GLC5        0.0000 
     19 CA         48.2560    5.5060   74.4490 C.3       6 GLL5        0.0000 
     20 CA         51.5320    3.8470   72.6190 C.3       4 GLP5        0.0000 
     21 CA         49.4360   -1.7795   74.2620 C.3       2 GLC5        0.0000 
     22 CA         49.4590    0.2080   73.7590 C.3       6 GLL5        0.0000 
     23 CA         48.7510   -3.7580   74.4590 C.3       4 GLP5        0.0000 
     24 CA         51.2745   -1.1245   72.9480 C.3       2 GLC5        0.0000 
     25 CA         52.4280   -2.4480   71.8310 C.3       4 GLP5        0.0000 
     26 CA         49.6983    1.6442   72.4957 C.3       2 GLC5        0.0000 
@<TRIPOS>BOND
@<TRIPOS>SUBSTRUCTURE
     1 SEC2        1 GROUP        1 X    SEC  0     ROOT SEC X 2
     2 GLC5        6 GROUP        1 X    GLC  0     **** GLC X 6
     3 SEP2        3 GROUP        1 Y    SEP  0     ROOT SEP Y 9
     4 GLP5        8 GROUP        1 Y    GLP  0     **** GLP Y 13
     5 SEL2        2 GROUP        1 Z    SEL  0     ROOT SEL Z 16
     6 GLL5        7 GROUP        1 Z    GLL  0     **** GLL Z 20
@<TRIPOS>SET

