#    Name: 2gvg_NMN_3_ligand
#    Modification time : Tue Mar 25 15:10:08 2014

@<TRIPOS>MOLECULE
2gvg_NMN_3_ligand
   34    35     1     0     0
SMALL
NO_CHARGES


@<TRIPOS>ATOM
      1 O3P        44.3400    6.6830   72.0010 O.co2     1 NMN503      0.0000 
      2 P          45.3910    5.9520   71.0210 P.3       1 NMN503      0.0000 
      3 O1P        46.4750    6.8940   70.6120 O.co2     1 NMN503      0.0000 
      4 O2P        44.7020    5.4480   69.8040 O.co2     1 NMN503      0.0000 
      5 O5R        46.0010    4.6500   71.7340 O.3       1 NMN503      0.0000 
      6 C5R        47.2310    4.8400   72.3940 C.3       1 NMN503      0.0000 
      7 C4R        47.0370    4.9030   73.8240 C.3       1 NMN503      0.0000 
      8 O4R        46.7770    3.5370   74.5020 O.3       1 NMN503      0.0000 
      9 C3R        48.2560    5.5060   74.4490 C.3       1 NMN503      0.0000 
     10 O3R        48.0780    6.9240   74.6460 O.3       1 NMN503      0.0000 
     11 C2R        48.4570    4.7280   75.7390 C.3       1 NMN503      0.0000 
     12 O2R        47.8570    5.4540   76.8330 O.3       1 NMN503      0.0000 
     13 C1R        47.8090    3.3570   75.4610 C.3       1 NMN503      0.0000 
     14 N1         48.7860    2.2130   75.0180 N.pl3     1 NMN503      0.0000 
     15 C2         50.0600    2.2780   75.6750 C.ar      1 NMN503      0.0000 
     16 C3         51.0380    1.3010   75.3680 C.ar      1 NMN503      0.0000 
     17 C7         52.4970    1.1500   75.9410 C.2       1 NMN503      0.0000 
     18 O7         52.7350    2.1360   76.8290 O.2       1 NMN503      0.0000 
     19 N7         53.3250    0.3080   75.6720 N.am      1 NMN503      0.0000 
     20 C4         50.7830    0.1900   74.3710 C.ar      1 NMN503      0.0000 
     21 C5         49.4590    0.2080   73.7590 C.ar      1 NMN503      0.0000 
     22 C6         48.4200    1.1740   74.0260 C.ar      1 NMN503      0.0000 
     23 H          47.7240    5.7733   72.0481 H         1 NMN503      0.0000 
     24 H          47.9381    4.0175   72.1545 H         1 NMN503      0.0000 
     25 H          46.1928    5.5522   74.0704 H         1 NMN503      0.0000 
     26 H          49.0958    5.2915   73.8013 H         1 NMN503      0.0000 
     27 H          49.5086    4.5793   75.8652 H         1 NMN503      0.0000 
     28 H          47.3505    3.0239   76.4189 H         1 NMN503      0.0000 
     29 H          50.2474    3.0103   76.3426 H         1 NMN503      0.0000 
     30 H          51.4577   -0.4621   74.1757 H         1 NMN503      0.0000 
     31 H          49.2487   -0.5510   73.0637 H         1 NMN503      0.0000 
     32 H          47.5529    1.1610   73.6038 H         1 NMN503      0.0000 
     33 H          47.2187    7.0093   75.1502 H         1 NMN503      0.0000 
     34 H          47.4028    6.2361   76.4062 H         1 NMN503      0.0000 
@<TRIPOS>BOND
     1    2    1 ar   
     2    3    2 ar   
     3    4    2 ar   
     4    5    2 1    
     5    6    5 1    
     6    7    6 1    
     7   23    6 1    
     8   24    6 1    
     9    8    7 1    
    10    9    7 1    
    11   25    7 1    
    12   13    8 1    
    13   10    9 1    
    14   11    9 1    
    15   26    9 1    
    16   33   10 1    
    17   12   11 1    
    18   13   11 1    
    19   27   11 1    
    20   34   12 1    
    21   14   13 1    
    22   28   13 1    
    23   15   14 ar   
    24   22   14 ar   
    25   16   15 ar   
    26   29   15 1    
    27   17   16 1    
    28   20   16 ar   
    29   18   17 2    
    30   19   17 am   
    31   21   20 ar   
    32   30   20 1    
    33   22   21 ar   
    34   31   21 1    
    35   32   22 1    
@<TRIPOS>SUBSTRUCTURE
     1 NMN503      1 GROUP   
@<TRIPOS>SET

