#    Name: 1qy5_NEC_1_INTS_M
#    Modification time : Tue Mar 25 00:07:28 2014

@<TRIPOS>MOLECULE
1qy5_NEC_1_INTS_M
   46     0     9     0     0
SMALL
NO_CHARGES


@<TRIPOS>ATOM
      1 N          15.9525  -15.0125   53.6680 N.am      2 SEC2        0.0000 
      2 N          17.1970  -15.1530   54.0070 N.am      8 SEL2        0.0000 
      3 N          14.7080  -14.8720   53.3290 N.am      5 SEP2        0.0000 
      4 O          19.7795  -12.6355   54.0320 O.2       1 ALC1        0.0000 
      5 O          18.4590  -13.1900   53.5570 O.2       7 ALL1        0.0000 
      6 O          21.1000  -12.0810   54.5070 O.2       4 ALP1        0.0000 
      7 CA         16.6165   -9.4915   52.9565 C.3       3 GLC5        0.0000 
      8 CA         16.6960  -11.7340   52.9010 C.3       9 GLL5        0.0000 
      9 CA         16.5370   -7.2490   53.0120 C.3       6 GLP5        0.0000 
     10 CA         15.1215  -11.9985   52.0770 C.3       3 GLC5        0.0000 
     11 CA         13.5470  -12.2630   51.2530 C.3       6 GLP5        0.0000 
     12 CA         16.3335  -10.6345   54.1165 C.3       3 GLC5        0.0000 
     13 CA         15.9710   -9.5350   55.3320 C.3       6 GLP5        0.0000 
     14 CA         21.3180  -14.9360   53.6910 C.3       3 GLC5        0.0000 
     15 CA         19.4450  -15.4460   53.0990 C.3       9 GLL5        0.0000 
     16 CA         23.1910  -14.4260   54.2830 C.3       6 GLP5        0.0000 
     17 CA         19.4455  -14.9410   55.2300 C.3       3 GLC5        0.0000 
     18 CA         19.4460  -14.4360   57.3610 C.3       6 GLP5        0.0000 
     19 O          22.7320  -16.7915   52.3630 O.2       1 ALC1        0.0000 
     20 O          21.4730  -17.2920   51.7730 O.2       7 ALL1        0.0000 
     21 O          23.9910  -16.2910   52.9530 O.2       4 ALP1        0.0000 
     22 CA         21.3670  -17.8625   55.3935 C.3       3 GLC5        0.0000 
     23 CA         20.2770  -17.5060   54.0400 C.3       9 GLL5        0.0000 
     24 CA         22.4570  -18.2190   56.7470 C.3       6 GLP5        0.0000 
     25 CA         21.7340  -15.9660   54.1615 C.3       3 GLC5        0.0000 
     26 CA         16.4215  -20.0830   54.5955 C.3       3 GLC5        0.0000 
     27 CA         18.3810  -20.2020   55.4220 C.3       9 GLL5        0.0000 
     28 CA         14.4620  -19.9640   53.7690 C.3       6 GLP5        0.0000 
     29 CA         18.6505  -23.0430   54.4490 C.3       3 GLC5        0.0000 
     30 CA         18.3820  -21.5730   55.7340 C.3       9 GLL5        0.0000 
     31 CA         18.9190  -24.5130   53.1640 C.3       6 GLP5        0.0000 
     32 CA         18.9700  -22.5785   57.4795 C.3       3 GLC5        0.0000 
     33 CA         19.5580  -23.5840   59.2250 C.3       6 GLP5        0.0000 
     34 O          17.1435  -23.5835   56.6790 O.2       1 ALC1        0.0000 
     35 O          17.3490  -22.2080   56.3200 O.2       7 ALL1        0.0000 
     36 O          16.9380  -24.9590   57.0380 O.2       4 ALP1        0.0000 
     37 CA         19.7265  -23.0955   53.9975 C.3       3 GLC5        0.0000 
     38 CA         20.5340  -21.6780   54.8310 C.3       9 GLL5        0.0000 
     39 CA         21.7870  -22.9905   53.5895 C.3       3 GLC5        0.0000 
     40 CA         23.0400  -24.3030   52.3480 C.3       6 GLP5        0.0000 
     41 CA         22.0945  -23.0080   55.7350 C.3       3 GLC5        0.0000 
     42 CA         23.6550  -24.3380   56.6390 C.3       6 GLP5        0.0000 
     43 CA         20.9705  -20.3555   56.2035 C.3       3 GLC5        0.0000 
     44 CA         21.4070  -19.0330   57.5760 C.3       6 GLP5        0.0000 
     45 CA         20.1786  -19.6639   56.3807 C.3       3 GLC5        0.0000 
     46 CA         19.5190  -19.7020   54.7930 C.3       9 GLL5        0.0000 
@<TRIPOS>BOND
@<TRIPOS>SUBSTRUCTURE
     1 ALC1        4 GROUP        1 X    ALC  0     ROOT ALC X 1
     2 SEC2        1 GROUP        1 X    SEC  0     **** SEC X 2
     3 GLC5        7 GROUP        1 X    GLC  0     **** GLC X 6
     4 ALP1        6 GROUP        1 Y    ALP  0     ROOT ALP Y 8
     5 SEP2        3 GROUP        1 Y    SEP  0     **** SEP Y 9
     6 GLP5        9 GROUP        1 Y    GLP  0     **** GLP Y 13
     7 ALL1        5 GROUP        1 Z    ALL  0     ROOT ALL Z 15
     8 SEL2        2 GROUP        1 Z    SEL  0     **** SEL Z 16
     9 GLL5        8 GROUP        1 Z    GLL  0     **** GLL Z 20
@<TRIPOS>SET

