#    Name: 1qy5_NEC_1_ligand
#    Modification time : Tue Mar 25 00:07:29 2014

@<TRIPOS>MOLECULE
1qy5_NEC_1_ligand
   38    40     1     0     0
SMALL
NO_CHARGES


@<TRIPOS>ATOM
      1 C5'        18.3120  -14.5960   53.5470 C.2       1 NEC338      0.0000 
      2 O5'        17.1970  -15.1530   54.0070 O.2       1 NEC338      0.0000 
      3 N5'        18.4590  -13.1900   53.5570 N.am      1 NEC338      0.0000 
      4 C51        17.9140  -12.4510   52.4180 C.3       1 NEC338      0.0000 
      5 C52        16.6960  -11.7340   52.9010 C.3       1 NEC338      0.0000 
      6 C4'        19.4450  -15.4460   53.0990 C.3       1 NEC338      0.0000 
      7 O4'        19.9620  -16.1300   54.1960 O.3       1 NEC338      0.0000 
      8 C3'        19.1680  -16.4990   52.0630 C.3       1 NEC338      0.0000 
      9 O3'        19.2180  -15.9920   50.7250 O.3       1 NEC338      0.0000 
     10 C2'        20.2000  -17.6100   52.4460 C.3       1 NEC338      0.0000 
     11 O2'        21.4730  -17.2920   51.7730 O.3       1 NEC338      0.0000 
     12 C1'        20.2770  -17.5060   54.0400 C.3       1 NEC338      0.0000 
     13 N9         19.2790  -18.3900   54.6250 N.pl3     1 NEC338      0.0000 
     14 C8         18.0330  -18.1090   55.1470 C.2       1 NEC338      0.0000 
     15 N7         17.4630  -19.1820   55.6220 N.2       1 NEC338      0.0000 
     16 C5         18.3810  -20.2020   55.4220 C.ar      1 NEC338      0.0000 
     17 C6         18.3820  -21.5730   55.7340 C.ar      1 NEC338      0.0000 
     18 N6         17.3490  -22.2080   56.3200 N.pl3     1 NEC338      0.0000 
     19 N1         19.5000  -22.2910   55.4270 N.ar      1 NEC338      0.0000 
     20 C2         20.5340  -21.6780   54.8310 C.ar      1 NEC338      0.0000 
     21 N3         20.6450  -20.3820   54.4500 N.ar      1 NEC338      0.0000 
     22 C4         19.5190  -19.7020   54.7930 C.ar      1 NEC338      0.0000 
     23 H          18.9096  -12.7026   54.2954 H         1 NEC338      0.0000 
     24 H          17.6392  -13.1296   51.6177 H         1 NEC338      0.0000 
     25 H          18.6350  -11.7291   52.0499 H         1 NEC338      0.0000 
     26 H          20.2404  -14.7899   52.6936 H         1 NEC338      0.0000 
     27 H          18.1835  -16.9197   52.3166 H         1 NEC338      0.0000 
     28 H          19.7951  -18.5327   52.1907 H         1 NEC338      0.0000 
     29 H          21.2602  -17.7281   54.2953 H         1 NEC338      0.0000 
     30 H          17.6562  -17.1955   55.1420 H         1 NEC338      0.0000 
     31 H          16.5755  -21.6343   56.5893 H         1 NEC338      0.0000 
     32 H          17.4475  -23.1966   56.4336 H         1 NEC338      0.0000 
     33 H          21.4135  -22.3086   54.6209 H         1 NEC338      0.0000 
     34 H          16.9095  -11.0961   53.6409 H         1 NEC338      0.0000 
     35 H          16.2639  -11.2032   52.1719 H         1 NEC338      0.0000 
     36 H          16.0060  -12.3679   53.2504 H         1 NEC338      0.0000 
     37 H          20.1864  -16.0125   50.4767 H         1 NEC338      0.0000 
     38 H          22.0559  -16.9090   52.4897 H         1 NEC338      0.0000 
@<TRIPOS>BOND
     1    2    1 2    
     2    3    1 am   
     3    6    1 1    
     4    4    3 1    
     5   23    3 1    
     6    5    4 1    
     7   24    4 1    
     8   25    4 1    
     9   34    5 1    
    10   35    5 1    
    11   36    5 1    
    12    7    6 1    
    13    8    6 1    
    14   26    6 1    
    15   12    7 1    
    16    9    8 1    
    17   10    8 1    
    18   27    8 1    
    19   37    9 1    
    20   11   10 1    
    21   12   10 1    
    22   28   10 1    
    23   38   11 1    
    24   13   12 1    
    25   29   12 1    
    26   14   13 1    
    27   22   13 1    
    28   15   14 2    
    29   30   14 1    
    30   16   15 1    
    31   17   16 ar   
    32   22   16 ar   
    33   18   17 1    
    34   19   17 ar   
    35   31   18 1    
    36   32   18 1    
    37   20   19 ar   
    38   21   20 ar   
    39   33   20 1    
    40   22   21 ar   
@<TRIPOS>SUBSTRUCTURE
     1 NEC338      1 GROUP   
@<TRIPOS>SET

