#    Name: 2eer_NAD_2_INTS_M
#    Modification time : Tue Mar 25 11:00:26 2014

@<TRIPOS>MOLECULE
2eer_NAD_2_INTS_M
  118     0    12     0     0
SMALL
NO_CHARGES


@<TRIPOS>ATOM
      1 N         -32.6230    7.5775   77.1335 N.am      2 SEC2        0.0000 
      2 N         -33.3350    7.6060   75.8620 N.am     10 SEL2        0.0000 
      3 N         -31.9110    7.5490   78.4050 N.am      6 SEP2        0.0000 
      4 N         -33.8300    7.2010   72.3355 N.am      2 SEC2        0.0000 
      5 N         -33.7570    8.0970   73.5290 N.am     10 SEL2        0.0000 
      6 N         -33.9030    6.3050   71.1420 N.am      6 SEP2        0.0000 
      7 CA        -30.7540    8.8040   71.0965 C.3       4 GLC5        0.0000 
      8 CA        -31.1610    9.3310   73.1960 C.3      12 GLL5        0.0000 
      9 CA        -30.3470    8.2770   68.9970 C.3       8 GLP5        0.0000 
     10 CA        -32.2180    9.8125   71.2940 C.3       4 GLC5        0.0000 
     11 CA        -33.2750   10.2940   69.3920 C.3       8 GLP5        0.0000 
     12 CA        -28.7810   11.2580   74.0065 C.3       4 GLC5        0.0000 
     13 CA        -30.7000   10.7110   73.5770 C.3      12 GLL5        0.0000 
     14 CA        -26.8620   11.8050   74.4360 C.3       8 GLP5        0.0000 
     15 N         -33.1430   13.0010   75.2040 N.am      2 SEC2        0.0000 
     16 N         -31.7630   12.3160   75.1140 N.am     10 SEL2        0.0000 
     17 N         -34.5230   13.6860   75.2940 N.am      6 SEP2        0.0000 
     18 O         -30.6230   13.2320   75.3640 O.2       1 ALC1        0.0000 
     19 O         -31.7630   12.3160   75.1140 O.2       9 ALL1        0.0000 
     20 O         -29.4830   14.1480   75.6140 O.2       5 ALP1        0.0000 
     21 N         -33.3805   14.8025   73.4625 N.am      2 SEC2        0.0000 
     22 N         -32.0200   14.0760   72.9890 N.am     10 SEL2        0.0000 
     23 N         -34.7410   15.5290   73.9360 N.am      6 SEP2        0.0000 
     24 N         -33.2715   13.8810   74.1415 N.am      2 SEC2        0.0000 
     25 O         -31.1220   14.8120   73.5375 O.2       1 ALC1        0.0000 
     26 O         -32.0200   14.0760   72.9890 O.2       9 ALL1        0.0000 
     27 O         -30.2240   15.5480   74.0860 O.2       5 ALP1        0.0000 
     28 CA        -28.5040   12.1965   73.4115 C.3       4 GLC5        0.0000 
     29 CA        -30.1460   12.5880   72.3870 C.3      12 GLL5        0.0000 
     30 N         -28.6880   12.2935   69.0480 N.am      2 SEC2        0.0000 
     31 N         -29.7090   13.5340   68.8240 N.am     10 SEL2        0.0000 
     32 N         -27.6670   11.0530   69.2720 N.am      6 SEP2        0.0000 
     33 CA        -25.7380   13.5625   68.4320 C.3       4 GLC5        0.0000 
     34 CA        -27.3840   14.6950   68.9240 C.3      12 GLL5        0.0000 
     35 CA        -24.0920   12.4300   67.9400 C.3       8 GLP5        0.0000 
     36 CA        -24.9050   13.6955   71.3140 C.3       4 GLC5        0.0000 
     37 CA        -26.5380   14.6740   71.1780 C.3      12 GLL5        0.0000 
     38 CA        -23.2720   12.7170   71.4500 C.3       8 GLP5        0.0000 
     39 CA        -26.7000   13.2395   72.8070 C.3       4 GLC5        0.0000 
     40 CA        -27.0020   15.6785   72.7825 C.3       4 GLC5        0.0000 
     41 CA        -27.4660   16.6830   74.3870 C.3       8 GLP5        0.0000 
     42 CA        -27.5985   16.2495   70.6620 C.3       4 GLC5        0.0000 
     43 CA        -28.6590   17.8250   70.1460 C.3       8 GLP5        0.0000 
     44 CA        -27.7020   12.7650   72.6335 C.3       4 GLC5        0.0000 
     45 CA        -28.5420   13.7250   70.8310 C.3      12 GLL5        0.0000 
     46 NZ        -32.6485    3.8760   76.5225 N.4       3 LYC4        0.0000 
     47 NZ        -32.0180    4.0790   75.3530 N.4      11 LYL4        0.0000 
     48 NZ        -33.3060    2.5580   78.4110 N.4       7 LYP4        0.0000 
     49 N         -33.1550    3.2575   74.5960 N.am      2 SEC2        0.0000 
     50 N         -32.0180    4.0790   75.3530 N.am     10 SEL2        0.0000 
     51 N         -34.2920    2.4360   73.8390 N.am      6 SEP2        0.0000 
     52 N         -32.6485    3.8760   76.5225 N.am      2 SEC2        0.0000 
     53 N         -33.2790    3.6730   77.6920 N.am      6 SEP2        0.0000 
     54 N         -30.0420    5.8010   77.2895 N.am      2 SEC2        0.0000 
     55 N         -30.4850    5.9110   75.9440 N.am     10 SEL2        0.0000 
     56 N         -29.5990    5.6910   78.6350 N.am      6 SEP2        0.0000 
     57 CA        -31.3850    4.7565   72.6030 C.3       4 GLC5        0.0000 
     58 CA        -29.4170    5.3630   72.8650 C.3      12 GLL5        0.0000 
     59 CA        -33.3530    4.1500   72.3410 C.3       8 GLP5        0.0000 
     60 N         -30.1980    3.1750   68.6335 N.am      2 SEC2        0.0000 
     61 N         -29.2230    3.6550   69.5270 N.am     10 SEL2        0.0000 
     62 N         -31.1730    2.6950   67.7400 N.am      6 SEP2        0.0000 
     63 N         -27.9295    3.3915   69.0200 N.am      2 SEC2        0.0000 
     64 N         -26.6360    3.1280   68.5130 N.am      6 SEP2        0.0000 
     65 CA        -31.3455    1.0210   71.2995 C.3       4 GLC5        0.0000 
     66 CA        -29.7470    2.3160   71.5530 C.3      12 GLL5        0.0000 
     67 CA        -32.9440   -0.2740   71.0460 C.3       8 GLP5        0.0000 
     68 N         -30.5125    0.1595   71.3060 N.am      2 SEC2        0.0000 
     69 N         -30.2190    1.3110   70.6260 N.am     10 SEL2        0.0000 
     70 N         -30.8060   -0.9920   71.9860 N.am      6 SEP2        0.0000 
     71 CA        -26.7910    3.1500   71.1125 C.3       4 GLC5        0.0000 
     72 CA        -28.3150    2.1630   71.9990 C.3      12 GLL5        0.0000 
     73 CA        -25.2670    4.1370   70.2260 C.3       8 GLP5        0.0000 
     74 CA        -27.4485    1.1250   70.2055 C.3       4 GLC5        0.0000 
     75 CA        -26.5820    0.0870   68.4120 C.3       8 GLP5        0.0000 
     76 CA        -27.1110   -0.3440   70.8950 C.3       4 GLC5        0.0000 
     77 CA        -26.8770    0.3910   72.7660 C.3      12 GLL5        0.0000 
     78 CA        -27.3450   -1.0790   69.0240 C.3       8 GLP5        0.0000 
     79 N         -24.4060   -3.3280   74.8835 N.am      2 SEC2        0.0000 
     80 N         -25.0950   -2.3940   74.2680 N.am     10 SEL2        0.0000 
     81 N         -23.7170   -4.2620   75.4990 N.am      6 SEP2        0.0000 
     82 O         -24.4255    0.2405   71.8345 O.2       1 ALC1        0.0000 
     83 O         -24.3770   -1.1440   72.5570 O.2       9 ALL1        0.0000 
     84 O         -24.4740    1.6250   71.1120 O.2       5 ALP1        0.0000 
     85 O         -22.8850   -1.3055   72.7765 O.2       1 ALC1        0.0000 
     86 O         -21.3930   -1.4670   72.9960 O.2       5 ALP1        0.0000 
     87 CA        -30.6135   -0.2990   72.8955 C.3       4 GLC5        0.0000 
     88 CA        -29.0590    0.7570   73.9780 C.3      12 GLL5        0.0000 
     89 CA        -32.1680   -1.3550   71.8130 C.3       8 GLP5        0.0000 
     90 CA        -31.4175   10.5373   75.7175 C.3       4 GLC5        0.0000 
     91 CA        -31.5650    9.8530   77.7490 C.3       8 GLP5        0.0000 
     92 CA        -32.9160   11.6318   71.7255 C.3       4 GLC5        0.0000 
     93 CA        -31.8400   11.7320   73.7950 C.3      12 GLL5        0.0000 
     94 CA        -34.0990   11.0330   70.2350 C.3       8 GLP5        0.0000 
     95 CA        -28.4560   15.9309   70.0769 C.3       4 GLC5        0.0000 
     96 CA        -28.5440   14.0020   69.4450 C.3      12 GLL5        0.0000 
     97 CA        -27.2375    4.1022   70.7982 C.3       4 GLC5        0.0000 
     98 CA        -28.7360    4.4420   71.8530 C.3      12 GLL5        0.0000 
     99 CA        -31.5333    3.5773   71.7807 C.3       4 GLC5        0.0000 
    100 CA        -29.6800    3.6930   70.8880 C.3      12 GLL5        0.0000 
    101 CA        -30.6107    2.1837   69.5138 C.3       4 GLC5        0.0000 
    102 CA        -31.5080    1.3630   67.8070 C.3       8 GLP5        0.0000 
    103 CA        -29.7461    5.6049   70.2518 C.3       4 GLC5        0.0000 
    104 CA        -30.1140    6.9120   68.8800 C.3       8 GLP5        0.0000 
    105 CA        -26.8227    1.2480   74.7960 C.3       4 GLC5        0.0000 
    106 CA        -26.9140    2.6350   76.4000 C.3       8 GLP5        0.0000 
    107 CA        -25.3432    1.0090   73.7025 C.3       4 GLC5        0.0000 
    108 CA        -23.9550    2.1570   74.2130 C.3       8 GLP5        0.0000 
    109 CA        -25.7825   -0.6133   75.4818 C.3       4 GLC5        0.0000 
    110 CA        -26.5860   -0.6690   73.6180 C.3      12 GLL5        0.0000 
    111 CA        -24.5190   -0.3580   76.8120 C.3       8 GLP5        0.0000 
    112 CA        -28.9910   -1.5955   75.9947 C.3       4 GLC5        0.0000 
    113 CA        -27.5060   -1.0680   74.6850 C.3      12 GLL5        0.0000 
    114 CA        -29.8760   -2.5070   77.2550 C.3       8 GLP5        0.0000 
    115 CA        -30.5787    0.1547   74.7180 C.3       4 GLC5        0.0000 
    116 CA        -28.7060   -0.3000   74.7840 C.3      12 GLL5        0.0000 
    117 CA        -32.2750    0.0810   75.0550 C.3       8 GLP5        0.0000 
    118 CA        -27.7482    1.3357   75.3781 C.3       4 GLC5        0.0000 
@<TRIPOS>BOND
@<TRIPOS>SUBSTRUCTURE
     1 ALC1       18 GROUP        1 X    ALC  0     ROOT ALC X 1
     2 SEC2        1 GROUP        1 X    SEC  0     **** SEC X 2
     3 LYC4       46 GROUP        1 X    LYC  0     **** LYC X 4
     4 GLC5        7 GROUP        1 X    GLC  0     **** GLC X 6
     5 ALP1       20 GROUP        1 Y    ALP  0     ROOT ALP Y 8
     6 SEP2        3 GROUP        1 Y    SEP  0     **** SEP Y 9
     7 LYP4       48 GROUP        1 Y    LYP  0     **** LYP Y 11
     8 GLP5        9 GROUP        1 Y    GLP  0     **** GLP Y 13
     9 ALL1       19 GROUP        1 Z    ALL  0     ROOT ALL Z 15
    10 SEL2        2 GROUP        1 Z    SEL  0     **** SEL Z 16
    11 LYL4       47 GROUP        1 Z    LYL  0     **** LYL Z 18
    12 GLL5        8 GROUP        1 Z    GLL  0     **** GLL Z 20
@<TRIPOS>SET

