#    Name: 2eer_NAD_2_ligand
#    Modification time : Tue Mar 25 11:00:26 2014

@<TRIPOS>MOLECULE
2eer_NAD_2_ligand
   70    74     1     0     0
SMALL
NO_CHARGES


@<TRIPOS>ATOM
      1 PA        -32.7710    7.6340   74.5200 P.3       1 NAD402      0.0000 
      2 O1A       -33.3350    7.6060   75.8620 O.co2     1 NAD402      0.0000 
      3 O2A       -33.7570    8.0970   73.5290 O.co2     1 NAD402      0.0000 
      4 O5B       -31.5020    8.6170   74.4040 O.3       1 NAD402      0.0000 
      5 C5B       -31.1610    9.3310   73.1960 C.3       1 NAD402      0.0000 
      6 C4B       -30.7000   10.7110   73.5770 C.3       1 NAD402      0.0000 
      7 O4B       -29.9750   11.2140   72.4240 O.3       1 NAD402      0.0000 
      8 C3B       -31.8400   11.7320   73.7950 C.3       1 NAD402      0.0000 
      9 O3B       -31.7630   12.3160   75.1140 O.3       1 NAD402      0.0000 
     10 C2B       -31.6260   12.7290   72.6370 C.3       1 NAD402      0.0000 
     11 O2B       -32.0200   14.0760   72.9890 O.3       1 NAD402      0.0000 
     12 C1B       -30.1460   12.5880   72.3870 C.3       1 NAD402      0.0000 
     13 N9A       -29.7380   13.0650   71.0710 N.pl3     1 NAD402      0.0000 
     14 C8A       -30.3930   12.9770   69.8580 C.2       1 NAD402      0.0000 
     15 N7A       -29.7090   13.5340   68.8240 N.2       1 NAD402      0.0000 
     16 C5A       -28.5440   14.0020   69.4450 C.ar      1 NAD402      0.0000 
     17 C6A       -27.3840   14.6950   68.9240 C.ar      1 NAD402      0.0000 
     18 N6A       -27.2440   15.0200   67.6410 N.pl3     1 NAD402      0.0000 
     19 N1A       -26.3920   15.0160   69.8420 N.ar      1 NAD402      0.0000 
     20 C2A       -26.5380   14.6740   71.1780 C.ar      1 NAD402      0.0000 
     21 N3A       -27.5600   14.0410   71.7430 N.ar      1 NAD402      0.0000 
     22 C4A       -28.5420   13.7250   70.8310 C.ar      1 NAD402      0.0000 
     23 O3        -32.2570    6.1900   74.1970 O.3       1 NAD402      0.0000 
     24 PN        -31.1700    5.2000   74.8500 P.3       1 NAD402      0.0000 
     25 O1N       -32.0180    4.0790   75.3530 O.co2     1 NAD402      0.0000 
     26 O2N       -30.4850    5.9110   75.9440 O.co2     1 NAD402      0.0000 
     27 O5D       -30.2860    4.5650   73.6770 O.3       1 NAD402      0.0000 
     28 C5D       -29.4170    5.3630   72.8650 C.3       1 NAD402      0.0000 
     29 C4D       -28.7360    4.4420   71.8530 C.3       1 NAD402      0.0000 
     30 O4D       -27.9300    3.4100   72.5340 O.3       1 NAD402      0.0000 
     31 C3D       -29.6800    3.6930   70.8880 C.3       1 NAD402      0.0000 
     32 O3D       -29.2230    3.6550   69.5270 O.3       1 NAD402      0.0000 
     33 C2D       -29.7470    2.3160   71.5530 C.3       1 NAD402      0.0000 
     34 O2D       -30.2190    1.3110   70.6260 O.3       1 NAD402      0.0000 
     35 C1D       -28.3150    2.1630   71.9990 C.3       1 NAD402      0.0000 
     36 N1N       -28.0830    1.0530   72.9720 N.pl3     1 NAD402      0.0000 
     37 C2N       -26.8770    0.3910   72.7660 C.ar      1 NAD402      0.0000 
     38 C3N       -26.5860   -0.6690   73.6180 C.ar      1 NAD402      0.0000 
     39 C7N       -25.2850   -1.4680   73.4970 C.2       1 NAD402      0.0000 
     40 O7N       -25.0950   -2.3940   74.2680 O.2       1 NAD402      0.0000 
     41 N7N       -24.3770   -1.1440   72.5570 N.am      1 NAD402      0.0000 
     42 C4N       -27.5060   -1.0680   74.6850 C.ar      1 NAD402      0.0000 
     43 C5N       -28.7060   -0.3000   74.7840 C.ar      1 NAD402      0.0000 
     44 C6N       -29.0590    0.7570   73.9780 C.ar      1 NAD402      0.0000 
     45 H         -32.0234    9.4200   72.5343 H         1 NAD402      0.0000 
     46 H         -30.3570    8.8297   72.6559 H         1 NAD402      0.0000 
     47 H         -30.0753   10.6897   74.4214 H         1 NAD402      0.0000 
     48 H         -32.7579   11.2116   73.6114 H         1 NAD402      0.0000 
     49 H         -32.1471   12.3394   71.7899 H         1 NAD402      0.0000 
     50 H         -29.6195   13.0681   73.1686 H         1 NAD402      0.0000 
     51 H         -31.2815   12.5443   69.7622 H         1 NAD402      0.0000 
     52 H         -27.9969   14.7599   67.0365 H         1 NAD402      0.0000 
     53 H         -26.3985   15.4950   67.3971 H         1 NAD402      0.0000 
     54 H         -25.7064   14.9681   71.8210 H         1 NAD402      0.0000 
     55 H         -28.6402    5.8459   73.4555 H         1 NAD402      0.0000 
     56 H         -29.9645    6.1238   72.3114 H         1 NAD402      0.0000 
     57 H         -28.0553    5.0427   71.2334 H         1 NAD402      0.0000 
     58 H         -30.6548    4.1413   71.0052 H         1 NAD402      0.0000 
     59 H         -30.3608    2.4244   72.4203 H         1 NAD402      0.0000 
     60 H         -27.7180    1.9636   71.0911 H         1 NAD402      0.0000 
     61 H         -26.2436    0.6668   72.0333 H         1 NAD402      0.0000 
     62 H         -23.5643   -1.7250   72.5114 H         1 NAD402      0.0000 
     63 H         -24.5962   -0.3513   71.9882 H         1 NAD402      0.0000 
     64 H         -27.2964   -1.8141   75.2817 H         1 NAD402      0.0000 
     65 H         -29.3781   -0.5890   75.5621 H         1 NAD402      0.0000 
     66 H         -29.8853    1.2730   74.0593 H         1 NAD402      0.0000 
     67 H         -30.9693   12.9235   75.0820 H         1 NAD402      0.0000 
     68 H         -31.4392   14.3209   73.7653 H         1 NAD402      0.0000 
     69 H         -29.3856    4.5763   69.1737 H         1 NAD402      0.0000 
     70 H         -29.7279    1.4937   69.7743 H         1 NAD402      0.0000 
@<TRIPOS>BOND
     1    2    1 ar   
     2    3    1 ar   
     3    4    1 1    
     4   23    1 1    
     5    5    4 1    
     6    6    5 1    
     7   45    5 1    
     8   46    5 1    
     9    7    6 1    
    10    8    6 1    
    11   47    6 1    
    12   12    7 1    
    13    9    8 1    
    14   10    8 1    
    15   48    8 1    
    16   67    9 1    
    17   11   10 1    
    18   12   10 1    
    19   49   10 1    
    20   68   11 1    
    21   13   12 1    
    22   50   12 1    
    23   14   13 1    
    24   22   13 1    
    25   15   14 2    
    26   51   14 1    
    27   16   15 1    
    28   17   16 ar   
    29   22   16 ar   
    30   18   17 1    
    31   19   17 ar   
    32   52   18 1    
    33   53   18 1    
    34   20   19 ar   
    35   21   20 ar   
    36   54   20 1    
    37   22   21 ar   
    38   24   23 1    
    39   25   24 ar   
    40   26   24 ar   
    41   27   24 1    
    42   28   27 1    
    43   29   28 1    
    44   55   28 1    
    45   56   28 1    
    46   30   29 1    
    47   31   29 1    
    48   57   29 1    
    49   35   30 1    
    50   32   31 1    
    51   33   31 1    
    52   58   31 1    
    53   69   32 1    
    54   34   33 1    
    55   35   33 1    
    56   59   33 1    
    57   70   34 1    
    58   36   35 1    
    59   60   35 1    
    60   37   36 ar   
    61   44   36 ar   
    62   38   37 ar   
    63   61   37 1    
    64   39   38 1    
    65   42   38 ar   
    66   40   39 2    
    67   41   39 am   
    68   62   41 1    
    69   63   41 1    
    70   43   42 ar   
    71   64   42 1    
    72   44   43 ar   
    73   65   43 1    
    74   66   44 1    
@<TRIPOS>SUBSTRUCTURE
     1 NAD402      1 GROUP   
@<TRIPOS>SET

