#    Name: 3gry_SAM_1_INTS_M
#    Modification time : Tue Mar 25 12:54:33 2014

@<TRIPOS>MOLECULE
3gry_SAM_1_INTS_M
   84     0    12     0     0
SMALL
NO_CHARGES


@<TRIPOS>ATOM
      1 OD1        15.0845   19.5790   16.2495 O.co2     3 ASC3        0.0000 
      2 OD1        16.4880   19.1070   15.3280 O.co2    11 ASL3        0.0000 
      3 OD1        13.6810   20.0510   17.1710 O.co2     7 ASP3        0.0000 
      4 O          15.0845   19.5790   16.2495 O.2       1 ALC1        0.0000 
      5 O          16.4880   19.1070   15.3280 O.2       9 ALL1        0.0000 
      6 O          13.6810   20.0510   17.1710 O.2       5 ALP1        0.0000 
      7 O          16.1580   20.7285   15.8370 O.2       1 ALC1        0.0000 
      8 O          15.8280   22.3500   16.3460 O.2       5 ALP1        0.0000 
      9 O          16.5675   19.5670   16.6135 O.2       1 ALC1        0.0000 
     10 O          16.6470   20.0270   17.8990 O.2       5 ALP1        0.0000 
     11 N          17.7970   16.5235   11.8265 N.am      2 SEC2        0.0000 
     12 N          16.6090   17.7060   12.2110 N.am     10 SEL2        0.0000 
     13 N          18.9850   15.3410   11.4420 N.am      6 SEP2        0.0000 
     14 N          18.5455   16.3250   12.5360 N.am      2 SEC2        0.0000 
     15 N          18.1060   17.3090   13.6300 N.am     10 SEL2        0.0000 
     16 N          19.2380   16.9410   14.2385 N.am      2 SEC2        0.0000 
     17 N          20.3700   16.5730   14.8470 N.am      6 SEP2        0.0000 
     18 CA         19.3255   18.4050   15.6770 C.3       4 GLC5        0.0000 
     19 CA         19.4770   19.8960   14.4060 C.3      12 GLL5        0.0000 
     20 CA         19.1740   16.9140   16.9480 C.3       8 GLP5        0.0000 
     21 CA         20.2705   20.2450   11.6120 C.3       4 GLC5        0.0000 
     22 CA         20.9660   20.5820   13.5650 C.3      12 GLL5        0.0000 
     23 CA         19.5750   19.9080    9.6590 C.3       8 GLP5        0.0000 
     24 CA         23.2810   20.7740   15.8175 C.3       4 GLC5        0.0000 
     25 CA         22.2310   19.6580   14.4170 C.3      12 GLL5        0.0000 
     26 CA         24.3310   21.8900   17.2180 C.3       8 GLP5        0.0000 
     27 CA         18.7690   23.7325   15.3230 C.3       4 GLC5        0.0000 
     28 CA         20.1930   23.3030   13.9920 C.3      12 GLL5        0.0000 
     29 CA         17.3450   24.1620   16.6540 C.3       8 GLP5        0.0000 
     30 CA         21.7355   23.1035   11.3910 C.3       4 GLC5        0.0000 
     31 CA         20.2230   24.0020   12.6280 C.3      12 GLL5        0.0000 
     32 CA         23.2480   22.2050   10.1540 C.3       8 GLP5        0.0000 
     33 CA         19.9765   22.6345   11.0090 C.3       4 GLC5        0.0000 
     34 CA         19.7300   21.2670    9.3900 C.3       8 GLP5        0.0000 
     35 CA         18.5915   24.7985   11.3075 C.3       4 GLC5        0.0000 
     36 CA         16.9600   25.5950    9.9870 C.3       8 GLP5        0.0000 
     37 N          17.4240   23.3780   12.2855 N.am      2 SEC2        0.0000 
     38 N          18.8750   24.2040   12.1980 N.am     10 SEL2        0.0000 
     39 N          15.9730   22.5520   12.3730 N.am      6 SEP2        0.0000 
     40 O          18.0685   25.1410   12.9380 O.2       1 ALC1        0.0000 
     41 O          18.8750   24.2040   12.1980 O.2       9 ALL1        0.0000 
     42 O          17.2620   26.0780   13.6780 O.2       5 ALP1        0.0000 
     43 O          18.7865   26.2160   12.8635 O.2       1 ALC1        0.0000 
     44 O          20.3110   26.3540   12.0490 O.2       9 ALL1        0.0000 
     45 O          19.3120   27.0660   12.4055 O.2       1 ALC1        0.0000 
     46 O          18.3130   27.7780   12.7620 O.2       5 ALP1        0.0000 
     47 CA         18.9065   24.9070   15.5005 C.3       4 GLC5        0.0000 
     48 CA         20.4680   25.6520   14.3470 C.3      12 GLL5        0.0000 
     49 CA         21.5810   24.6490   15.8465 C.3       4 GLC5        0.0000 
     50 CA         22.6940   23.6460   17.3460 C.3       8 GLP5        0.0000 
     51 CA         21.5210   29.7780   16.3220 C.3       4 GLC5        0.0000 
     52 CA         22.4650   28.5450   17.6730 C.3      12 GLL5        0.0000 
     53 CA         20.5770   31.0110   14.9710 C.3       8 GLP5        0.0000 
     54 CA         23.0090   27.0740   19.2470 C.3       4 GLC5        0.0000 
     55 CA         23.5530   25.6030   20.8210 C.3       8 GLP5        0.0000 
     56 O          23.4505   30.2690   19.1025 O.2       1 ALC1        0.0000 
     57 O          23.6000   29.0130   18.1890 O.2       9 ALL1        0.0000 
     58 O          23.3010   31.5250   20.0160 O.2       5 ALP1        0.0000 
     59 N          20.9320   29.7875   19.4010 N.am      2 SEC2        0.0000 
     60 N          21.2870   28.9470   18.1780 N.am     10 SEL2        0.0000 
     61 N          20.5770   30.6280   20.6240 N.am      6 SEP2        0.0000 
     62 CA         18.4155   29.2195   18.9290 C.3       4 GLC5        0.0000 
     63 CA         20.1350   28.4990   17.6880 C.3      12 GLL5        0.0000 
     64 CA         16.6960   29.9400   20.1700 C.3       8 GLP5        0.0000 
     65 CA         18.2445   28.6365   16.6735 C.3       4 GLC5        0.0000 
     66 CA         16.3540   28.7740   15.6590 C.3       8 GLP5        0.0000 
     67 CA         20.3560   29.7550   16.3295 C.3       4 GLC5        0.0000 
     68 CA         20.5105   30.5200   18.4190 C.3       4 GLC5        0.0000 
     69 CA         20.8860   32.5410   19.1500 C.3       8 GLP5        0.0000 
     70 CA         20.1625   28.4535   19.6530 C.3       4 GLC5        0.0000 
     71 CA         20.1900   28.4080   21.6180 C.3       8 GLP5        0.0000 
     72 N          19.2010   28.8235   15.7895 N.am      2 SEC2        0.0000 
     73 N          20.1050   27.6390   16.6800 N.am     10 SEL2        0.0000 
     74 N          18.2970   30.0080   14.8990 N.am      6 SEP2        0.0000 
     75 CA         16.9307   20.7313   12.6277 C.3       4 GLC5        0.0000 
     76 CA         18.1180   20.4080   13.9010 C.3      12 GLL5        0.0000 
     77 CA         16.3360   21.5640   11.3400 C.3       8 GLP5        0.0000 
     78 CA         22.2013   21.8158   12.0143 C.3       4 GLC5        0.0000 
     79 CA         21.7310   23.2165   15.7170 C.3       4 GLC5        0.0000 
     80 CA         21.3430   22.2710   14.1840 C.3      12 GLL5        0.0000 
     81 CA         21.5765   28.7495   15.1775 C.3       4 GLC5        0.0000 
     82 CA         21.2490   27.1960   16.1270 C.3      12 GLL5        0.0000 
     83 CA         21.2950   30.0800   13.9850 C.3       8 GLP5        0.0000 
     84 CA         22.2760   25.5325   16.8580 C.3       4 GLC5        0.0000 
@<TRIPOS>BOND
@<TRIPOS>SUBSTRUCTURE
     1 ALC1        4 GROUP        1 X    ALC  0     ROOT ALC X 1
     2 SEC2       11 GROUP        1 X    SEC  0     **** SEC X 2
     3 ASC3        1 GROUP        1 X    ASC  0     **** ASC X 3
     4 GLC5       18 GROUP        1 X    GLC  0     **** GLC X 6
     5 ALP1        6 GROUP        1 Y    ALP  0     ROOT ALP Y 8
     6 SEP2       13 GROUP        1 Y    SEP  0     **** SEP Y 9
     7 ASP3        3 GROUP        1 Y    ASP  0     **** ASP Y 10
     8 GLP5       20 GROUP        1 Y    GLP  0     **** GLP Y 13
     9 ALL1        5 GROUP        1 Z    ALL  0     ROOT ALL Z 15
    10 SEL2       12 GROUP        1 Z    SEL  0     **** SEL Z 16
    11 ASL3        2 GROUP        1 Z    ASL  0     **** ASL Z 17
    12 GLL5       19 GROUP        1 Z    GLL  0     **** GLL Z 20
@<TRIPOS>SET

