#    Name: 3gry_SAM_1_ligand
#    Modification time : Tue Mar 25 12:54:34 2014

@<TRIPOS>MOLECULE
3gry_SAM_1_ligand
   50    52     1     0     0
SMALL
NO_CHARGES


@<TRIPOS>ATOM
      1 N          16.4880   19.1070   15.3280 N.4       1 SAM300      0.0000 
      2 CA         16.9330   19.3890   13.9300 C.3       1 SAM300      0.0000 
      3 C          17.2410   18.0660   13.2090 C.2       1 SAM300      0.0000 
      4 O          16.6090   17.7060   12.2110 O.co2     1 SAM300      0.0000 
      5 OXT        18.1060   17.3090   13.6300 O.co2     1 SAM300      0.0000 
      6 CB         18.1180   20.4080   13.9010 C.3       1 SAM300      0.0000 
      7 CG         19.4770   19.8960   14.4060 C.3       1 SAM300      0.0000 
      8 SD         20.9660   20.5820   13.5650 S.3       1 SAM300      0.0000 
      9 CE         22.2310   19.6580   14.4170 C.3       1 SAM300      0.0000 
     10 C5'        21.3430   22.2710   14.1840 C.3       1 SAM300      0.0000 
     11 C4'        20.1930   23.3030   13.9920 C.3       1 SAM300      0.0000 
     12 O4'        20.2490   24.3700   15.0020 O.3       1 SAM300      0.0000 
     13 C3'        20.2230   24.0020   12.6280 C.3       1 SAM300      0.0000 
     14 O3'        18.8750   24.2040   12.1980 O.3       1 SAM300      0.0000 
     15 C2'        20.8780   25.3530   12.9040 C.3       1 SAM300      0.0000 
     16 O2'        20.3110   26.3540   12.0490 O.3       1 SAM300      0.0000 
     17 C1'        20.4680   25.6520   14.3470 C.3       1 SAM300      0.0000 
     18 N9         21.5050   26.3580   15.1300 N.pl3     1 SAM300      0.0000 
     19 C8         22.8340   26.2680   14.9910 C.2       1 SAM300      0.0000 
     20 N7         23.4210   27.0520   15.8940 N.2       1 SAM300      0.0000 
     21 C5         22.4670   27.6420   16.6130 C.ar      1 SAM300      0.0000 
     22 C6         22.4650   28.5450   17.6730 C.ar      1 SAM300      0.0000 
     23 N6         23.6000   29.0130   18.1890 N.pl3     1 SAM300      0.0000 
     24 N1         21.2870   28.9470   18.1780 N.ar      1 SAM300      0.0000 
     25 C2         20.1350   28.4990   17.6880 C.ar      1 SAM300      0.0000 
     26 N3         20.1050   27.6390   16.6800 N.ar      1 SAM300      0.0000 
     27 C4         21.2490   27.1960   16.1270 C.ar      1 SAM300      0.0000 
     28 H          16.0895   19.8625   13.3952 H         1 SAM300      0.0000 
     29 H          17.8219   21.2938   14.4995 H         1 SAM300      0.0000 
     30 H          18.2338   20.7681   12.8582 H         1 SAM300      0.0000 
     31 H          19.6162   18.8293   14.2620 H         1 SAM300      0.0000 
     32 H          19.6748   20.1494   15.4426 H         1 SAM300      0.0000 
     33 H          22.2305   22.5219   13.6305 H         1 SAM300      0.0000 
     34 H          21.5747   22.0865   15.2181 H         1 SAM300      0.0000 
     35 H          19.2452   22.7816   14.0763 H         1 SAM300      0.0000 
     36 H          20.8087   23.4516   11.9708 H         1 SAM300      0.0000 
     37 H          21.9082   25.2634   12.8491 H         1 SAM300      0.0000 
     38 H          19.5547   26.2097   14.3416 H         1 SAM300      0.0000 
     39 H          23.2947   25.7154   14.3324 H         1 SAM300      0.0000 
     40 H          23.5056   29.6564   18.9487 H         1 SAM300      0.0000 
     41 H          24.4444   28.6788   17.7703 H         1 SAM300      0.0000 
     42 H          19.2267   28.8363   18.1118 H         1 SAM300      0.0000 
     43 H          16.7313   19.8495   15.9521 H         1 SAM300      0.0000 
     44 H          15.4967   18.9888   15.3855 H         1 SAM300      0.0000 
     45 H          16.9041   18.2725   15.6890 H         1 SAM300      0.0000 
     46 H          23.1250   19.7638   13.9816 H         1 SAM300      0.0000 
     47 H          22.3308   19.9538   15.3670 H         1 SAM300      0.0000 
     48 H          22.0276   18.6791   14.4347 H         1 SAM300      0.0000 
     49 H          18.5110   24.9066   12.8094 H         1 SAM300      0.0000 
     50 H          19.5827   26.7743   12.5903 H         1 SAM300      0.0000 
@<TRIPOS>BOND
     1    2    1 1    
     2   43    1 1    
     3   44    1 1    
     4   45    1 1    
     5    3    2 1    
     6    6    2 1    
     7   28    2 1    
     8    4    3 ar   
     9    5    3 ar   
    10    7    6 1    
    11   29    6 1    
    12   30    6 1    
    13    8    7 1    
    14   31    7 1    
    15   32    7 1    
    16    9    8 1    
    17   10    8 1    
    18   46    9 1    
    19   47    9 1    
    20   48    9 1    
    21   11   10 1    
    22   33   10 1    
    23   34   10 1    
    24   12   11 1    
    25   13   11 1    
    26   35   11 1    
    27   17   12 1    
    28   14   13 1    
    29   15   13 1    
    30   36   13 1    
    31   49   14 1    
    32   16   15 1    
    33   17   15 1    
    34   37   15 1    
    35   50   16 1    
    36   18   17 1    
    37   38   17 1    
    38   19   18 1    
    39   27   18 1    
    40   20   19 2    
    41   39   19 1    
    42   21   20 1    
    43   22   21 ar   
    44   27   21 ar   
    45   23   22 1    
    46   24   22 ar   
    47   40   23 1    
    48   41   23 1    
    49   25   24 ar   
    50   26   25 ar   
    51   42   25 1    
    52   27   26 ar   
@<TRIPOS>SUBSTRUCTURE
     1 SAM300      1 GROUP   
@<TRIPOS>SET

