#    Name: 1llq_NAD_1_INTS_M
#    Modification time : Tue Mar 25 11:10:01 2014

@<TRIPOS>MOLECULE
1llq_NAD_1_INTS_M
   70     0     9     0     0
SMALL
NO_CHARGES


@<TRIPOS>ATOM
      1 N          32.0800  117.4930   93.4700 N.am      2 SEC2        0.0000 
      2 N          31.0200  116.7710   94.2430 N.am      8 SEL2        0.0000 
      3 N          33.1400  118.2150   92.6970 N.am      5 SEP2        0.0000 
      4 CA         28.3835  122.7480   93.6230 C.3       3 GLC5        0.0000 
      5 CA         28.4330  120.9830   94.7040 C.3       9 GLL5        0.0000 
      6 CA         28.3340  124.5130   92.5420 C.3       6 GLP5        0.0000 
      7 N          30.2590  123.0795   94.8165 N.am      2 SEC2        0.0000 
      8 N          30.0810  122.2150   96.0160 N.am      8 SEL2        0.0000 
      9 N          30.4370  123.9440   93.6170 N.am      5 SEP2        0.0000 
     10 O          31.6925  122.2820   95.4780 O.2       1 ALC1        0.0000 
     11 O          30.0810  122.2150   96.0160 O.2       7 ALL1        0.0000 
     12 O          33.3040  122.3490   94.9400 O.2       4 ALP1        0.0000 
     13 CA         26.9335  122.9080   98.4960 C.3       3 GLC5        0.0000 
     14 CA         27.8550  121.6800   96.9350 C.3       9 GLL5        0.0000 
     15 CA         26.0120  124.1360  100.0570 C.3       6 GLP5        0.0000 
     16 N          27.8105  123.9350   98.2425 N.am      2 SEC2        0.0000 
     17 N          28.2930  122.4390   98.0710 N.am      8 SEL2        0.0000 
     18 N          27.3280  125.4310   98.4140 N.am      5 SEP2        0.0000 
     19 CA         27.7005  123.5015   94.2205 C.3       3 GLC5        0.0000 
     20 CA         27.0670  122.4900   95.8990 C.3       9 GLL5        0.0000 
     21 CA         27.9825  124.4135   96.3470 C.3       3 GLC5        0.0000 
     22 CA         28.8980  126.3370   96.7950 C.3       6 GLP5        0.0000 
     23 CA         25.8575  122.7080   94.1115 C.3       3 GLC5        0.0000 
     24 CA         24.6480  122.9260   92.3240 C.3       6 GLP5        0.0000 
     25 CA         22.3260  123.5945   94.8840 C.3       3 GLC5        0.0000 
     26 CA         23.4800  123.4250   96.5830 C.3       9 GLL5        0.0000 
     27 CA         21.1720  123.7640   93.1850 C.3       6 GLP5        0.0000 
     28 CA         20.9615  123.9705   95.7470 C.3       3 GLC5        0.0000 
     29 CA         22.5000  124.5170   96.5780 C.3       9 GLL5        0.0000 
     30 CA         19.4230  123.4240   94.9160 C.3       6 GLP5        0.0000 
     31 CA         25.1090  125.7290   97.5220 C.3       3 GLC5        0.0000 
     32 CA         24.0880  126.0120   95.8030 C.3       9 GLL5        0.0000 
     33 CA         26.1300  125.4460   99.2410 C.3       6 GLP5        0.0000 
     34 CA         25.4840  124.6125   97.7015 C.3       3 GLC5        0.0000 
     35 CA         24.8380  123.7790   96.1620 C.3       9 GLL5        0.0000 
     36 N          31.6560  117.8150   90.6665 N.am      2 SEC2        0.0000 
     37 N          30.4510  117.6920   91.5890 N.am      8 SEL2        0.0000 
     38 N          32.8610  117.9380   89.7440 N.am      5 SEP2        0.0000 
     39 N          23.2805  116.0240   87.9850 N.am      2 SEC2        0.0000 
     40 N          24.1540  116.2850   89.2530 N.am      8 SEL2        0.0000 
     41 N          22.4070  115.7630   86.7170 N.am      5 SEP2        0.0000 
     42 N          23.8440  114.9850   87.2980 N.am      2 SEC2        0.0000 
     43 N          25.2810  114.2070   87.8790 N.am      8 SEL2        0.0000 
     44 N          25.0535  114.1245   86.3460 N.am      2 SEC2        0.0000 
     45 N          24.8260  114.0420   84.8130 N.am      5 SEP2        0.0000 
     46 CA         24.8290  117.1600   87.1390 C.3       3 GLC5        0.0000 
     47 CA         26.6020  116.2270   87.3140 C.3       9 GLL5        0.0000 
     48 CA         23.0560  118.0930   86.9640 C.3       6 GLP5        0.0000 
     49 CA         26.8940  117.8985   84.6050 C.3       3 GLC5        0.0000 
     50 CA         27.5180  116.0020   85.0100 C.3       9 GLL5        0.0000 
     51 CA         26.2700  119.7950   84.2000 C.3       6 GLP5        0.0000 
     52 O          29.1725  115.6900   80.5250 O.2       1 ALC1        0.0000 
     53 O          29.4170  115.7450   81.7320 O.2       7 ALL1        0.0000 
     54 O          28.9280  115.6350   79.3180 O.2       4 ALP1        0.0000 
     55 CA         30.4035  120.4105   94.6010 C.3       3 GLC5        0.0000 
     56 CA         28.0970  119.5090   94.3980 C.3       9 GLL5        0.0000 
     57 CA         32.1490  120.0870   93.8760 C.3       6 GLP5        0.0000 
     58 CA         23.3920  123.4395   98.4162 C.3       3 GLC5        0.0000 
     59 CA         23.7940  122.9080  100.2520 C.3       6 GLP5        0.0000 
     60 CA         24.4035  123.2640   94.3482 C.3       3 GLC5        0.0000 
     61 CA         26.8608  119.5055   89.2338 C.3       3 GLC5        0.0000 
     62 CA         27.3620  117.6390   90.4920 C.3       9 GLL5        0.0000 
     63 CA         26.8500  121.4950   88.5510 C.3       6 GLP5        0.0000 
     64 CA         24.5138  117.4123   88.1748 C.3       3 GLC5        0.0000 
     65 CA         26.3810  117.3930   89.3410 C.3       9 GLL5        0.0000 
     66 CA         31.0316  115.9271   84.7446 C.3       3 GLC5        0.0000 
     67 CA         29.7930  114.6490   85.9110 C.3       9 GLL5        0.0000 
     68 CA         32.6370  116.9040   84.3920 C.3       6 GLP5        0.0000 
     69 CA         30.2278  116.5725   87.1887 C.3       3 GLC5        0.0000 
     70 CA         31.1720  118.2720   88.0280 C.3       6 GLP5        0.0000 
@<TRIPOS>BOND
@<TRIPOS>SUBSTRUCTURE
     1 ALC1       10 GROUP        1 X    ALC  0     ROOT ALC X 1
     2 SEC2        1 GROUP        1 X    SEC  0     **** SEC X 2
     3 GLC5        4 GROUP        1 X    GLC  0     **** GLC X 6
     4 ALP1       12 GROUP        1 Y    ALP  0     ROOT ALP Y 8
     5 SEP2        3 GROUP        1 Y    SEP  0     **** SEP Y 9
     6 GLP5        6 GROUP        1 Y    GLP  0     **** GLP Y 13
     7 ALL1       11 GROUP        1 Z    ALL  0     ROOT ALL Z 15
     8 SEL2        2 GROUP        1 Z    SEL  0     **** SEL Z 16
     9 GLL5        5 GROUP        1 Z    GLL  0     **** GLL Z 20
@<TRIPOS>SET

