#    Name: 1llq_NAD_1_ligand
#    Modification time : Tue Mar 25 11:10:01 2014

@<TRIPOS>MOLECULE
1llq_NAD_1_ligand
   70    74     1     0     0
SMALL
NO_CHARGES


@<TRIPOS>ATOM
      1 PA         29.4650  117.1690   94.2750 P.3       1 NAD1001     0.0000 
      2 O1A        28.8330  116.6930   95.6720 O.co2     1 NAD1001     0.0000 
      3 O2A        31.0200  116.7710   94.2430 O.co2     1 NAD1001     0.0000 
      4 O5B        29.3140  118.7690   94.1300 O.3       1 NAD1001     0.0000 
      5 C5B        28.0970  119.5090   94.3980 C.3       1 NAD1001     0.0000 
      6 C4B        28.4330  120.9830   94.7040 C.3       1 NAD1001     0.0000 
      7 O4B        27.2190  121.7800   94.6570 O.3       1 NAD1001     0.0000 
      8 C3B        29.0510  121.2220   96.1010 C.3       1 NAD1001     0.0000 
      9 O3B        30.0810  122.2150   96.0160 O.3       1 NAD1001     0.0000 
     10 C2B        27.8550  121.6800   96.9350 C.3       1 NAD1001     0.0000 
     11 O2B        28.2930  122.4390   98.0710 O.3       1 NAD1001     0.0000 
     12 C1B        27.0670  122.4900   95.8990 C.3       1 NAD1001     0.0000 
     13 N9A        25.6190  122.6330   96.2290 N.pl3     1 NAD1001     0.0000 
     14 C8A        24.6710  121.7160   96.6980 C.2       1 NAD1001     0.0000 
     15 N7A        23.3950  122.0260   96.9490 N.2       1 NAD1001     0.0000 
     16 C5A        23.4800  123.4250   96.5830 C.ar      1 NAD1001     0.0000 
     17 C6A        22.5000  124.5170   96.5780 C.ar      1 NAD1001     0.0000 
     18 N6A        21.2270  124.3990   96.9370 N.pl3     1 NAD1001     0.0000 
     19 N1A        22.8400  125.7500   96.1820 N.ar      1 NAD1001     0.0000 
     20 C2A        24.0880  126.0120   95.8030 C.ar      1 NAD1001     0.0000 
     21 N3A        25.1090  125.1770   95.7360 N.ar      1 NAD1001     0.0000 
     22 C4A        24.8380  123.7790   96.1620 C.ar      1 NAD1001     0.0000 
     23 O3         28.6950  116.4670   93.1010 O.3       1 NAD1001     0.0000 
     24 PN         29.4290  116.4600   91.7100 P.3       1 NAD1001     0.0000 
     25 O1N        30.2420  115.0980   91.5530 O.co2     1 NAD1001     0.0000 
     26 O2N        30.4510  117.6920   91.5890 O.co2     1 NAD1001     0.0000 
     27 O5D        28.3340  116.5790   90.5560 O.3       1 NAD1001     0.0000 
     28 C5D        27.3620  117.6390   90.4920 C.3       1 NAD1001     0.0000 
     29 C4D        26.3810  117.3930   89.3410 C.3       1 NAD1001     0.0000 
     30 O4D        27.0990  117.3340   88.0890 O.3       1 NAD1001     0.0000 
     31 C3D        25.5620  116.0700   89.4300 C.3       1 NAD1001     0.0000 
     32 O3D        24.1540  116.2850   89.2530 O.3       1 NAD1001     0.0000 
     33 C2D        26.2020  115.1880   88.3590 C.3       1 NAD1001     0.0000 
     34 O2D        25.2810  114.2070   87.8790 O.3       1 NAD1001     0.0000 
     35 C1D        26.6020  116.2270   87.3140 C.3       1 NAD1001     0.0000 
     36 N1N        27.6680  115.7540   86.3330 N.pl3     1 NAD1001     0.0000 
     37 C2N        27.5180  116.0020   85.0100 C.ar      1 NAD1001     0.0000 
     38 C3N        28.4830  115.5970   84.0360 C.ar      1 NAD1001     0.0000 
     39 C7N        28.3720  115.8510   82.5410 C.2       1 NAD1001     0.0000 
     40 O7N        27.3260  116.1770   81.9760 O.2       1 NAD1001     0.0000 
     41 N7N        29.4170  115.7450   81.7320 N.am      1 NAD1001     0.0000 
     42 C4N        29.6360  114.9060   84.5310 C.ar      1 NAD1001     0.0000 
     43 C5N        29.7930  114.6490   85.9110 C.ar      1 NAD1001     0.0000 
     44 C6N        28.7740  115.0970   86.7880 C.ar      1 NAD1001     0.0000 
     45 H          27.5639  119.1031   95.2615 H         1 NAD1001     0.0000 
     46 H          27.4217  119.4931   93.5388 H         1 NAD1001     0.0000 
     47 H          29.1315  121.3457   93.9643 H         1 NAD1001     0.0000 
     48 H          29.3819  120.2855   96.4663 H         1 NAD1001     0.0000 
     49 H          27.2892  120.8148   97.1774 H         1 NAD1001     0.0000 
     50 H          27.5296  123.4620   95.8211 H         1 NAD1001     0.0000 
     51 H          25.0110  120.7213   96.8557 H         1 NAD1001     0.0000 
     52 H          20.9277  123.4824   97.2020 H         1 NAD1001     0.0000 
     53 H          20.6827  125.2374   96.9100 H         1 NAD1001     0.0000 
     54 H          24.2916  127.0567   95.5091 H         1 NAD1001     0.0000 
     55 H          27.8389  118.6120   90.3233 H         1 NAD1001     0.0000 
     56 H          26.7802  117.7074   91.4191 H         1 NAD1001     0.0000 
     57 H          25.6658  118.2118   89.3033 H         1 NAD1001     0.0000 
     58 H          25.8054  115.6347   90.3918 H         1 NAD1001     0.0000 
     59 H          27.0948  114.7826   88.7768 H         1 NAD1001     0.0000 
     60 H          25.7181  116.5243   86.7798 H         1 NAD1001     0.0000 
     61 H          26.6733  116.5081   84.6550 H         1 NAD1001     0.0000 
     62 H          29.2339  115.8742   80.7574 H         1 NAD1001     0.0000 
     63 H          30.2938  115.5454   82.1696 H         1 NAD1001     0.0000 
     64 H          30.3528  114.5970   83.8670 H         1 NAD1001     0.0000 
     65 H          30.6005  114.1643   86.2617 H         1 NAD1001     0.0000 
     66 H          28.8937  114.9084   87.8057 H         1 NAD1001     0.0000 
     67 H          30.8777  121.7310   95.6540 H         1 NAD1001     0.0000 
     68 H          29.2626  122.6181   97.9042 H         1 NAD1001     0.0000 
     69 H          24.0579  117.2711   89.1172 H         1 NAD1001     0.0000 
     70 H          24.4027  114.4548   88.2879 H         1 NAD1001     0.0000 
@<TRIPOS>BOND
     1    2    1 ar   
     2    3    1 ar   
     3    4    1 1    
     4   23    1 1    
     5    5    4 1    
     6    6    5 1    
     7   45    5 1    
     8   46    5 1    
     9    7    6 1    
    10    8    6 1    
    11   47    6 1    
    12   12    7 1    
    13    9    8 1    
    14   10    8 1    
    15   48    8 1    
    16   67    9 1    
    17   11   10 1    
    18   12   10 1    
    19   49   10 1    
    20   68   11 1    
    21   13   12 1    
    22   50   12 1    
    23   14   13 1    
    24   22   13 1    
    25   15   14 2    
    26   51   14 1    
    27   16   15 1    
    28   17   16 ar   
    29   22   16 ar   
    30   18   17 1    
    31   19   17 ar   
    32   52   18 1    
    33   53   18 1    
    34   20   19 ar   
    35   21   20 ar   
    36   54   20 1    
    37   22   21 ar   
    38   24   23 1    
    39   25   24 ar   
    40   26   24 ar   
    41   27   24 1    
    42   28   27 1    
    43   29   28 1    
    44   55   28 1    
    45   56   28 1    
    46   30   29 1    
    47   31   29 1    
    48   57   29 1    
    49   35   30 1    
    50   32   31 1    
    51   33   31 1    
    52   58   31 1    
    53   69   32 1    
    54   34   33 1    
    55   35   33 1    
    56   59   33 1    
    57   70   34 1    
    58   36   35 1    
    59   60   35 1    
    60   37   36 ar   
    61   44   36 ar   
    62   38   37 ar   
    63   61   37 1    
    64   39   38 1    
    65   42   38 ar   
    66   40   39 2    
    67   41   39 am   
    68   62   41 1    
    69   63   41 1    
    70   43   42 ar   
    71   64   42 1    
    72   44   43 ar   
    73   65   43 1    
    74   66   44 1    
@<TRIPOS>SUBSTRUCTURE
     1 NAD1001     1 GROUP   
@<TRIPOS>SET

