#    Name: 4e5l_DBH_3_ligand
#    Modification time : Mon Apr  7 23:20:40 2014

@<TRIPOS>MOLECULE
4e5l_DBH_3_ligand
   15    15     1     0     0
SMALL
NO_CHARGES


@<TRIPOS>ATOM
      1 O17        -7.3560  -14.2550   21.1040 O.co2     1 DBH305      0.0000 
      2 C21        -7.4880  -15.2510   20.3570 C.2       1 DBH305      0.0000 
      3 O9         -8.5950  -15.8440   20.2910 O.co2     1 DBH305      0.0000 
      4 C18        -6.2960  -15.7380   19.5540 C.ar      1 DBH305      0.0000 
      5 C15        -5.0150  -15.2180   19.8160 C.ar      1 DBH305      0.0000 
      6 C12        -3.9020  -15.6600   19.0890 C.ar      1 DBH305      0.0000 
      7 C3         -6.4480  -16.7080   18.5520 C.ar      1 DBH305      0.0000 
      8 O3         -7.6770  -17.2380   18.2710 O.3       1 DBH305      0.0000 
      9 C6         -5.3410  -17.1520   17.8240 C.ar      1 DBH305      0.0000 
     10 C9         -4.0660  -16.6290   18.0930 C.ar      1 DBH305      0.0000 
     11 O6         -5.5120  -18.1010   16.8520 O.3       1 DBH305      0.0000 
     12 H          -4.8974  -14.5063   20.5492 H         1 DBH305      0.0000 
     13 H          -2.9748  -15.2760   19.2858 H         1 DBH305      0.0000 
     14 H          -3.2562  -16.9587   17.5582 H         1 DBH305      0.0000 
     15 H          -4.8568  -17.8592   16.1363 H         1 DBH305      0.0000 
@<TRIPOS>BOND
     1    2    1 ar   
     2    3    2 ar   
     3    4    2 1    
     4    5    4 ar   
     5    7    4 ar   
     6    6    5 ar   
     7   12    5 1    
     8   10    6 ar   
     9   13    6 1    
    10    8    7 1    
    11    9    7 ar   
    12   10    9 ar   
    13   11    9 1    
    14   14   10 1    
    15   15   11 1    
@<TRIPOS>SUBSTRUCTURE
     1 DBH305      1 GROUP   
@<TRIPOS>SET

