#    Name: 3hxe_BD8_1_INTS_M
#    Modification time : Tue Mar 25 15:20:10 2014

@<TRIPOS>MOLECULE
3hxe_BD8_1_INTS_M
   83     0     6     0     0
SMALL
NO_CHARGES


@<TRIPOS>ATOM
      1 CA          0.3150   26.7735   28.8205 C.3       2 GLC5        0.0000 
      2 CA         -0.3340   26.8650   30.5830 C.3       6 GLL5        0.0000 
      3 CA          0.9640   26.6820   27.0580 C.3       4 GLP5        0.0000 
      4 CA          2.1290   26.0580   31.1910 C.3       2 GLC5        0.0000 
      5 CA          0.1120   25.6170   31.3420 C.3       6 GLL5        0.0000 
      6 CA          4.1460   26.4990   31.0400 C.3       4 GLP5        0.0000 
      7 CA         -0.3600   23.7905   28.4035 C.3       2 GLC5        0.0000 
      8 CA         -0.0130   24.3490   30.4590 C.3       6 GLL5        0.0000 
      9 CA         -0.7070   23.2320   26.3480 C.3       4 GLP5        0.0000 
     10 CA         -1.8380   22.4770   30.7605 C.3       2 GLC5        0.0000 
     11 CA          0.1110   23.1010   31.3240 C.3       6 GLL5        0.0000 
     12 CA         -3.7870   21.8530   30.1970 C.3       4 GLP5        0.0000 
     13 CA          2.0685   24.0780   28.1170 C.3       2 GLC5        0.0000 
     14 CA          2.2040   22.2170   28.6090 C.3       6 GLL5        0.0000 
     15 CA          1.9330   25.9390   27.6250 C.3       4 GLP5        0.0000 
     16 CA          2.7595   21.5860   25.5825 C.3       2 GLC5        0.0000 
     17 CA          3.2160   20.5850   27.1470 C.3       6 GLL5        0.0000 
     18 CA          2.3030   22.5870   24.0180 C.3       4 GLP5        0.0000 
     19 CA          0.9775   17.2920   22.6600 C.3       2 GLC5        0.0000 
     20 CA          2.0300   16.7180   23.9100 C.3       6 GLL5        0.0000 
     21 CA         -0.0750   17.8660   21.4100 C.3       4 GLP5        0.0000 
     22 CA         10.1445   21.0485   18.7870 C.3       2 GLC5        0.0000 
     23 CA          8.6480   20.2230   18.4580 C.3       6 GLL5        0.0000 
     24 CA         11.6410   21.8740   19.1160 C.3       4 GLP5        0.0000 
     25 CA          9.2415   19.3265   16.6140 C.3       2 GLC5        0.0000 
     26 CA          9.8350   18.4300   14.7700 C.3       4 GLP5        0.0000 
     27 CA          4.1415   23.3885   23.2450 C.3       2 GLC5        0.0000 
     28 CA          5.9800   24.1900   22.4720 C.3       6 GLL5        0.0000 
     29 N           9.3925   25.8615   28.0505 N.am      1 SEC2        0.0000 
     30 N           8.4290   25.0300   27.4500 N.am      5 SEL2        0.0000 
     31 N          10.3560   26.6930   28.6510 N.am      3 SEP2        0.0000 
     32 CA          6.7565   27.3625   25.7320 C.3       2 GLC5        0.0000 
     33 CA          8.0300   25.7830   25.1830 C.3       6 GLL5        0.0000 
     34 CA          5.4830   28.9420   26.2810 C.3       4 GLP5        0.0000 
     35 CA          9.3345   25.8090   23.3090 C.3       2 GLC5        0.0000 
     36 CA          7.4490   25.5740   23.9270 C.3       6 GLL5        0.0000 
     37 CA         11.2200   26.0440   22.6910 C.3       4 GLP5        0.0000 
     38 CA         10.3355   25.6070   21.1505 C.3       2 GLC5        0.0000 
     39 CA          9.4510   25.1700   19.6100 C.3       6 GLL5        0.0000 
     40 CA         11.0445   24.0480   19.2945 C.3       2 GLC5        0.0000 
     41 CA         12.6380   22.9260   18.9790 C.3       4 GLP5        0.0000 
     42 CA         10.6035   26.6640   19.5675 C.3       2 GLC5        0.0000 
     43 CA         11.7560   28.1580   19.5250 C.3       4 GLP5        0.0000 
     44 CA          9.4190   24.1250   17.8265 C.3       2 GLC5        0.0000 
     45 CA          9.3870   23.0800   16.0430 C.3       4 GLP5        0.0000 
     46 CA          5.2840   24.0585   19.1870 C.3       2 GLC5        0.0000 
     47 CA          6.9440   25.0830   19.3240 C.3       6 GLL5        0.0000 
     48 CA          3.6240   23.0340   19.0500 C.3       4 GLP5        0.0000 
     49 CA          7.8195   28.5450   18.9380 C.3       2 GLC5        0.0000 
     50 CA          6.8890   26.6240   19.2890 C.3       6 GLL5        0.0000 
     51 CA          8.7500   30.4660   18.5870 C.3       4 GLP5        0.0000 
     52 CA          7.4770   27.3545   17.3280 C.3       2 GLC5        0.0000 
     53 CA          8.0650   28.0850   15.3670 C.3       4 GLP5        0.0000 
     54 CA         -1.6880   27.8130   32.3400 C.3       2 GLC5        0.0000 
     55 CA         -3.0420   28.1380   33.6540 C.3       4 GLP5        0.0000 
     56 CA          0.6640   28.5220   29.8530 C.3       2 GLC5        0.0000 
     57 CA         -0.3340   28.1110   31.4690 C.3       6 GLL5        0.0000 
     58 CA          1.6620   29.5560   28.6800 C.3       4 GLP5        0.0000 
     59 CA         -2.2090   27.0345   30.6430 C.3       2 GLC5        0.0000 
     60 CA         -4.0840   26.5810   30.2600 C.3       4 GLP5        0.0000 
     61 CA          0.9912   25.4610   29.2628 C.3       2 GLC5        0.0000 
     62 CA         -1.8812   25.0795   30.6037 C.3       2 GLC5        0.0000 
     63 CA         -3.8120   25.1760   30.3070 C.3       4 GLP5        0.0000 
     64 CA          0.4785   22.5842   27.7037 C.3       2 GLC5        0.0000 
     65 CA          1.1240   21.6560   29.5100 C.3       6 GLL5        0.0000 
     66 CA          3.9952   23.0950   29.4530 C.3       2 GLC5        0.0000 
     67 CA          5.2070   24.4600   30.3540 C.3       4 GLP5        0.0000 
     68 CA          6.6675   19.0347   18.2790 C.3       2 GLC5        0.0000 
     69 CA          7.2220   19.2350   20.6120 C.3       6 GLL5        0.0000 
     70 CA          6.4290   18.3690   16.3650 C.3       4 GLP5        0.0000 
     71 CA          8.6863   21.7565   17.3005 C.3       2 GLC5        0.0000 
     72 CA          7.3230   20.6430   18.6580 C.3       6 GLL5        0.0000 
     73 CA         10.1837   20.3105   20.2650 C.3       2 GLC5        0.0000 
     74 CA          9.2580   19.3010   19.3090 C.3       6 GLL5        0.0000 
     75 CA         11.4560   21.5690   20.6660 C.3       4 GLP5        0.0000 
     76 CA          7.5254   19.1180   17.6492 C.3       2 GLC5        0.0000 
     77 CA          5.0110   23.3723   20.5490 C.3       2 GLC5        0.0000 
     78 CA          6.8160   23.2310   21.6240 C.3       6 GLL5        0.0000 
     79 CA          9.9802   25.4342   25.3620 C.3       2 GLC5        0.0000 
     80 CA         12.0460   25.5440   25.0090 C.3       4 GLP5        0.0000 
     81 CA          2.0448   28.3733   16.8980 C.3       2 GLC5        0.0000 
     82 CA          2.9260   27.5850   18.0680 C.3       6 GLL5        0.0000 
     83 CA          0.6310   28.9460   16.1210 C.3       4 GLP5        0.0000 
@<TRIPOS>BOND
@<TRIPOS>SUBSTRUCTURE
     1 SEC2       29 GROUP        1 X    SEC  0     ROOT SEC X 2
     2 GLC5        1 GROUP        1 X    GLC  0     **** GLC X 6
     3 SEP2       31 GROUP        1 Y    SEP  0     ROOT SEP Y 9
     4 GLP5        3 GROUP        1 Y    GLP  0     **** GLP Y 13
     5 SEL2       30 GROUP        1 Z    SEL  0     ROOT SEL Z 16
     6 GLL5        2 GROUP        1 Z    GLL  0     **** GLL Z 20
@<TRIPOS>SET

