#    Name: 3hxe_BD8_1_ligand
#    Modification time : Tue Mar 25 15:20:10 2014

@<TRIPOS>MOLECULE
3hxe_BD8_1_ligand
  111   114     1     0     0
SMALL
NO_CHARGES


@<TRIPOS>ATOM
      1 CAA        -0.3340   28.1110   31.4690 C.3       1 BD8334      0.0000 
      2 CAW        -0.3340   26.8650   30.5830 C.3       1 BD8334      0.0000 
      3 CAX         0.1120   25.6170   31.3420 C.3       1 BD8334      0.0000 
      4 CAY        -0.0130   24.3490   30.4590 C.3       1 BD8334      0.0000 
      5 CAZ         0.1110   23.1010   31.3240 C.3       1 BD8334      0.0000 
      6 CBA         1.3110   22.2400   30.9080 C.3       1 BD8334      0.0000 
      7 CBB         1.1240   21.6560   29.5100 C.3       1 BD8334      0.0000 
      8 CBC         2.2040   22.2170   28.6090 C.3       1 BD8334      0.0000 
      9 CBD         3.3630   21.2430   28.4950 C.3       1 BD8334      0.0000 
     10 CBE         3.2160   20.5850   27.1470 C.3       1 BD8334      0.0000 
     11 CBQ         4.4630   19.8260   26.8120 C.2       1 BD8334      0.0000 
     12 OAC         5.5970   20.2790   27.0510 O.2       1 BD8334      0.0000 
     13 NBM         4.1340   18.6750   26.2540 N.am      1 BD8334      0.0000 
     14 CCA         5.0630   17.6260   25.7840 C.3       1 BD8334      0.0000 
     15 CBJ         4.3720   16.5230   24.8890 C.3       1 BD8334      0.0000 
     16 CBY         2.8490   16.4810   24.9200 C.2       1 BD8334      0.0000 
     17 CAV         2.0300   16.7180   23.9100 C.2       1 BD8334      0.0000 
     18 NBP         0.7990   16.5830   24.3820 N.pl3     1 BD8334      0.0000 
     19 CAU         0.8450   16.2500   25.6660 C.2       1 BD8334      0.0000 
     20 NBL         2.1220   16.1970   25.9900 N.2       1 BD8334      0.0000 
     21 CBS         6.1140   18.1850   24.8400 C.2       1 BD8334      0.0000 
     22 OAE         7.2380   17.6810   24.7870 O.2       1 BD8334      0.0000 
     23 N           5.6740   19.1600   24.0610 N.am      1 BD8334      0.0000 
     24 CA          6.5780   19.7190   23.0460 C.3       1 BD8334      0.0000 
     25 CB          6.4680   18.6980   21.8620 C.3       1 BD8334      0.0000 
     26 CG          7.2220   19.2350   20.6120 C.ar      1 BD8334      0.0000 
     27 CD1         6.5900   20.1660   19.7740 C.ar      1 BD8334      0.0000 
     28 CE1         7.3230   20.6430   18.6580 C.ar      1 BD8334      0.0000 
     29 CZ          8.6480   20.2230   18.4580 C.ar      1 BD8334      0.0000 
     30 CE2         9.2580   19.3010   19.3090 C.ar      1 BD8334      0.0000 
     31 CD2         8.5650   18.8030   20.4190 C.ar      1 BD8334      0.0000 
     32 C           6.1030   21.0640   22.5170 C.2       1 BD8334      0.0000 
     33 O           4.9110   21.3150   22.3450 O.2       1 BD8334      0.0000 
     34 NBO         7.0790   21.9110   22.2370 N.am      1 BD8334      0.0000 
     35 CCB         6.8160   23.2310   21.6240 C.3       1 BD8334      0.0000 
     36 CBI         5.9800   24.1900   22.4720 C.3       1 BD8334      0.0000 
     37 CBW         6.6490   24.4200   23.7890 C.ar      1 BD8334      0.0000 
     38 CAS         6.3900   23.5090   24.8490 C.ar      1 BD8334      0.0000 
     39 CAQ         6.9700   23.7500   26.0900 C.ar      1 BD8334      0.0000 
     40 CBU         7.7990   24.8660   26.2470 C.ar      1 BD8334      0.0000 
     41 OAG         8.4290   25.0300   27.4500 O.3       1 BD8334      0.0000 
     42 CAR         8.0300   25.7830   25.1830 C.ar      1 BD8334      0.0000 
     43 CAT         7.4490   25.5740   23.9270 C.ar      1 BD8334      0.0000 
     44 CBT         8.1680   23.8260   21.1220 C.2       1 BD8334      0.0000 
     45 OAF         9.2020   23.4560   21.7140 O.2       1 BD8334      0.0000 
     46 NCC         8.1520   24.6570   20.0550 N.am      1 BD8334      0.0000 
     47 CAB         9.4510   25.1700   19.6100 C.3       1 BD8334      0.0000 
     48 CBG         6.9440   25.0830   19.3240 C.3       1 BD8334      0.0000 
     49 CBF         6.8890   26.6240   19.2890 C.3       1 BD8334      0.0000 
     50 CBX         5.4960   26.9920   18.8320 C.ar      1 BD8334      0.0000 
     51 CAP         5.2930   27.7160   17.6740 C.ar      1 BD8334      0.0000 
     52 CAL         3.9910   28.0160   17.2820 C.ar      1 BD8334      0.0000 
     53 CAI         2.9260   27.5850   18.0680 C.ar      1 BD8334      0.0000 
     54 CAM         3.1860   26.8780   19.2250 C.ar      1 BD8334      0.0000 
     55 NBK         4.4430   26.6010   19.5660 N.ar      1 BD8334      0.0000 
     56 H           0.3384   27.0289   29.7349 H         1 BD8334      0.0000 
     57 H          -1.3432   26.7050   30.1904 H         1 BD8334      0.0000 
     58 H          -0.5071   25.4876   32.2273 H         1 BD8334      0.0000 
     59 H           1.1502   25.7276   31.6480 H         1 BD8334      0.0000 
     60 H           0.7764   24.3618   29.7179 H         1 BD8334      0.0000 
     61 H          -0.9779   24.3607   29.9678 H         1 BD8334      0.0000 
     62 H          -0.8004   22.5060   31.2346 H         1 BD8334      0.0000 
     63 H           0.2306   23.3947   32.3691 H         1 BD8334      0.0000 
     64 H           1.4311   21.4270   31.6259 H         1 BD8334      0.0000 
     65 H           2.2125   22.8546   30.9250 H         1 BD8334      0.0000 
     66 H           0.1511   21.9361   29.1332 H         1 BD8334      0.0000 
     67 H           1.2098   20.5802   29.5580 H         1 BD8334      0.0000 
     68 H           2.5652   23.1605   29.0189 H         1 BD8334      0.0000 
     69 H           1.7900   22.4021   27.6175 H         1 BD8334      0.0000 
     70 H           3.2931   20.5084   29.2720 H         1 BD8334      0.0000 
     71 H           4.2895   21.7794   28.5430 H         1 BD8334      0.0000 
     72 H           3.0346   21.3483   26.3898 H         1 BD8334      0.0000 
     73 H           2.3646   19.9041   27.1678 H         1 BD8334      0.0000 
     74 H           3.1014   18.4196   26.1001 H         1 BD8334      0.0000 
     75 H           5.5591   17.1189   26.5746 H         1 BD8334      0.0000 
     76 H           4.7764   15.5401   25.2041 H         1 BD8334      0.0000 
     77 H           4.7174   16.6781   23.8471 H         1 BD8334      0.0000 
     78 H           2.2775   16.9448   23.0061 H         1 BD8334      0.0000 
     79 H           0.0918   16.0816   26.2422 H         1 BD8334      0.0000 
     80 H           4.7376   19.5620   24.1110 H         1 BD8334      0.0000 
     81 H           7.5660   19.7462   23.3556 H         1 BD8334      0.0000 
     82 H           5.4257   18.5601   21.6173 H         1 BD8334      0.0000 
     83 H           6.9083   17.7612   22.1684 H         1 BD8334      0.0000 
     84 H           5.6557   20.4862   19.9516 H         1 BD8334      0.0000 
     85 H           6.8824   21.2913   18.0036 H         1 BD8334      0.0000 
     86 H           9.1820   20.6093   17.6583 H         1 BD8334      0.0000 
     87 H          10.2174   18.9855   19.1228 H         1 BD8334      0.0000 
     88 H           8.9917   18.1611   21.0649 H         1 BD8334      0.0000 
     89 H           8.0812   21.7058   22.4275 H         1 BD8334      0.0000 
     90 H           6.2275   23.0364   20.6744 H         1 BD8334      0.0000 
     91 H           4.9935   23.7556   22.6231 H         1 BD8334      0.0000 
     92 H           5.8740   25.1311   21.9356 H         1 BD8334      0.0000 
     93 H           5.7938   22.7055   24.6898 H         1 BD8334      0.0000 
     94 H           6.7958   23.1243   26.8766 H         1 BD8334      0.0000 
     95 H           8.6276   26.5988   25.3484 H         1 BD8334      0.0000 
     96 H           7.5898   26.2046   23.1658 H         1 BD8334      0.0000 
     97 H           6.0449   24.7222   19.8161 H         1 BD8334      0.0000 
     98 H           6.9619   24.7205   18.2998 H         1 BD8334      0.0000 
     99 H           7.6161   26.9835   18.5897 H         1 BD8334      0.0000 
    100 H           7.0682   27.0022   20.2748 H         1 BD8334      0.0000 
    101 H           6.0853   28.0304   17.1076 H         1 BD8334      0.0000 
    102 H           3.8190   28.5477   16.4251 H         1 BD8334      0.0000 
    103 H           1.9634   27.7924   17.7870 H         1 BD8334      0.0000 
    104 H           2.3861   26.5721   19.8143 H         1 BD8334      0.0000 
    105 H           0.5758   28.3064   31.8351 H         1 BD8334      0.0000 
    106 H          -0.6285   28.9239   30.9666 H         1 BD8334      0.0000 
    107 H          -0.9493   28.0107   32.2509 H         1 BD8334      0.0000 
    108 H           9.9114   25.6898   20.3297 H         1 BD8334      0.0000 
    109 H          10.0693   24.4317   19.3404 H         1 BD8334      0.0000 
    110 H           9.3597   25.7784   18.8217 H         1 BD8334      0.0000 
    111 H           7.9365   24.4333   28.0835 H         1 BD8334      0.0000 
@<TRIPOS>BOND
     1    2    1 1    
     2  105    1 1    
     3  106    1 1    
     4  107    1 1    
     5    3    2 1    
     6   56    2 1    
     7   57    2 1    
     8    4    3 1    
     9   58    3 1    
    10   59    3 1    
    11    5    4 1    
    12   60    4 1    
    13   61    4 1    
    14    6    5 1    
    15   62    5 1    
    16   63    5 1    
    17    7    6 1    
    18   64    6 1    
    19   65    6 1    
    20    8    7 1    
    21   66    7 1    
    22   67    7 1    
    23    9    8 1    
    24   68    8 1    
    25   69    8 1    
    26   10    9 1    
    27   70    9 1    
    28   71    9 1    
    29   11   10 1    
    30   72   10 1    
    31   73   10 1    
    32   12   11 2    
    33   13   11 am   
    34   14   13 1    
    35   74   13 1    
    36   15   14 1    
    37   21   14 1    
    38   75   14 1    
    39   16   15 1    
    40   76   15 1    
    41   77   15 1    
    42   17   16 2    
    43   20   16 1    
    44   18   17 1    
    45   78   17 1    
    46   19   18 1    
    47   20   19 2    
    48   79   19 1    
    49   22   21 2    
    50   23   21 am   
    51   24   23 1    
    52   80   23 1    
    53   25   24 1    
    54   32   24 1    
    55   81   24 1    
    56   26   25 1    
    57   82   25 1    
    58   83   25 1    
    59   27   26 ar   
    60   31   26 ar   
    61   28   27 ar   
    62   84   27 1    
    63   29   28 ar   
    64   85   28 1    
    65   30   29 ar   
    66   86   29 1    
    67   31   30 ar   
    68   87   30 1    
    69   88   31 1    
    70   33   32 2    
    71   34   32 am   
    72   35   34 1    
    73   89   34 1    
    74   36   35 1    
    75   44   35 1    
    76   90   35 1    
    77   37   36 1    
    78   91   36 1    
    79   92   36 1    
    80   38   37 ar   
    81   43   37 ar   
    82   39   38 ar   
    83   93   38 1    
    84   40   39 ar   
    85   94   39 1    
    86   41   40 1    
    87   42   40 ar   
    88  111   41 1    
    89   43   42 ar   
    90   95   42 1    
    91   96   43 1    
    92   45   44 2    
    93   46   44 am   
    94   47   46 1    
    95   48   46 1    
    96  108   47 1    
    97  109   47 1    
    98  110   47 1    
    99   49   48 1    
   100   97   48 1    
   101   98   48 1    
   102   50   49 1    
   103   99   49 1    
   104  100   49 1    
   105   51   50 ar   
   106   55   50 ar   
   107   52   51 ar   
   108  101   51 1    
   109   53   52 ar   
   110  102   52 1    
   111   54   53 ar   
   112  103   53 1    
   113   55   54 ar   
   114  104   54 1    
@<TRIPOS>SUBSTRUCTURE
     1 BD8334      1 GROUP   
@<TRIPOS>SET

