#    Name: 2p55_MRA_1_INTS_M
#    Modification time : Mon Mar 24 18:21:13 2014

@<TRIPOS>MOLECULE
2p55_MRA_1_INTS_M
   71     0     9     0     0
SMALL
NO_CHARGES


@<TRIPOS>ATOM
      1 CA         49.4590   26.6250   -8.4405 C.3       3 GLC5        0.0000 
      2 CA         48.0810   27.0540   -6.9530 C.3       9 GLL5        0.0000 
      3 CA         50.8370   26.1960   -9.9280 C.3       6 GLP5        0.0000 
      4 CA         47.1555   24.1325   -5.9405 C.3       3 GLC5        0.0000 
      5 CA         47.0520   26.2970   -6.3000 C.3       9 GLL5        0.0000 
      6 CA         47.2590   21.9680   -5.5810 C.3       6 GLP5        0.0000 
      7 CA         50.5030   26.2930   -7.7990 C.3       3 GLC5        0.0000 
      8 CA         50.1690   26.3900   -5.6700 C.3       9 GLL5        0.0000 
      9 CA         52.3110   23.8835   -1.9705 C.3       3 GLC5        0.0000 
     10 CA         51.6450   25.0210   -3.6530 C.3       9 GLL5        0.0000 
     11 CA         52.9770   22.7460   -0.2880 C.3       6 GLP5        0.0000 
     12 CA         50.0730   25.2315   -8.1200 C.3       3 GLC5        0.0000 
     13 CA         49.3090   24.2670   -6.3120 C.3       9 GLL5        0.0000 
     14 CA         50.2085   22.5350   -6.4610 C.3       3 GLC5        0.0000 
     15 CA         50.6810   23.0090   -4.4030 C.3       9 GLL5        0.0000 
     16 CA         49.7360   22.0610   -8.5190 C.3       6 GLP5        0.0000 
     17 CA         48.9700   22.4885   -4.9920 C.3       3 GLC5        0.0000 
     18 CA         51.9595   23.5140   -5.6725 C.3       3 GLC5        0.0000 
     19 CA         53.2380   24.0190   -6.9420 C.3       6 GLP5        0.0000 
     20 N          50.8270   30.5865   -6.5355 N.am      2 SEC2        0.0000 
     21 N          50.8700   29.1500   -5.9670 N.am      8 SEL2        0.0000 
     22 N          50.7840   32.0230   -7.1040 N.am      5 SEP2        0.0000 
     23 CA         52.0435   31.6065   -6.7330 C.3       3 GLC5        0.0000 
     24 CA         53.0120   31.1110   -4.8900 C.3       9 GLL5        0.0000 
     25 CA         51.0750   32.1020   -8.5760 C.3       6 GLP5        0.0000 
     26 O          53.8175   34.2120   -3.1715 O.2       1 ALC1        0.0000 
     27 O          53.5980   32.5940   -3.0360 O.2       7 ALL1        0.0000 
     28 O          54.0370   35.8300   -3.3070 O.2       4 ALP1        0.0000 
     29 O          52.8640   33.7775   -2.4790 O.2       1 ALC1        0.0000 
     30 O          52.1300   34.9610   -1.9220 O.2       4 ALP1        0.0000 
     31 CA         49.9385   29.6670   -8.9410 C.3       3 GLC5        0.0000 
     32 CA         48.6400   28.6040   -8.6480 C.3       9 GLL5        0.0000 
     33 CA         51.2370   30.7300   -9.2340 C.3       6 GLP5        0.0000 
     34 CA         49.7385   27.4000   -9.2880 C.3       3 GLC5        0.0000 
     35 CA         47.5457   27.1600   -9.8957 C.3       3 GLC5        0.0000 
     36 CA         46.3550   27.9750   -8.4640 C.3       9 GLL5        0.0000 
     37 CA         48.0680   26.3920  -11.5480 C.3       6 GLP5        0.0000 
     38 CA         47.5482   28.3257   -5.8020 C.3       3 GLC5        0.0000 
     39 CA         47.6920   27.8810   -8.0230 C.3       9 GLL5        0.0000 
     40 CA         47.2100   29.1840   -4.1160 C.3       6 GLP5        0.0000 
     41 CA         45.3388   24.6833   -7.0650 C.3       3 GLC5        0.0000 
     42 CA         44.2940   23.0290   -7.6150 C.3       6 GLP5        0.0000 
     43 CA         46.7968   27.7608   -5.3155 C.3       3 GLC5        0.0000 
     44 CA         45.7150   26.3780   -6.7300 C.3       9 GLL5        0.0000 
     45 CA         44.4928   25.1410   -7.8232 C.3       3 GLC5        0.0000 
     46 CA         45.3730   27.2140   -7.8090 C.3       9 GLL5        0.0000 
     47 CA         44.3923   29.2105   -7.0958 C.3       3 GLC5        0.0000 
     48 CA         44.0100   27.2920   -8.2540 C.3       9 GLL5        0.0000 
     49 CA         44.0930   31.1680   -6.1600 C.3       6 GLP5        0.0000 
     50 CA         42.0870   28.8233   -8.5760 C.3       3 GLC5        0.0000 
     51 CA         40.7300   30.3380   -8.7110 C.3       6 GLP5        0.0000 
     52 CA         43.0270   26.8672   -6.5095 C.3       3 GLC5        0.0000 
     53 CA         42.8780   27.3250   -8.6280 C.3       9 GLL5        0.0000 
     54 CA         42.6100   26.4260   -4.5780 C.3       6 GLP5        0.0000 
     55 CA         48.9085   27.9685   -4.6727 C.3       3 GLC5        0.0000 
     56 CA         51.9225   25.3860   -6.0857 C.3       3 GLC5        0.0000 
     57 CA         52.4735   24.8687   -5.3313 C.3       3 GLC5        0.0000 
     58 CA         51.7730   26.4160   -3.7880 C.3       9 GLL5        0.0000 
     59 CA         53.3525   26.5538   -3.9219 C.3       3 GLC5        0.0000 
     60 CA         55.1780   27.2140   -3.8730 C.3       6 GLP5        0.0000 
     61 CA         49.5185   23.5165   -2.7052 C.3       3 GLC5        0.0000 
     62 CA         50.8010   24.3330   -4.5240 C.3       9 GLL5        0.0000 
     63 CA         48.2960   23.3620   -0.9470 C.3       6 GLP5        0.0000 
     64 CA         51.1130   21.8965   -4.9277 C.3       3 GLC5        0.0000 
     65 CA         51.4850   20.1220   -5.3920 C.3       6 GLP5        0.0000 
     66 CA         49.7172   23.3458   -7.2148 C.3       3 GLC5        0.0000 
     67 CA         50.0880   24.9940   -5.5090 C.3       9 GLL5        0.0000 
     68 CA         48.5679   23.2166   -5.6226 C.3       3 GLC5        0.0000 
     69 CA         51.5574   24.2421   -6.3031 C.3       3 GLC5        0.0000 
     70 CA         46.7954   29.5220   -9.5804 C.3       3 GLC5        0.0000 
     71 CA         45.7590   30.7780  -10.7150 C.3       6 GLP5        0.0000 
@<TRIPOS>BOND
@<TRIPOS>SUBSTRUCTURE
     1 ALC1       26 GROUP        1 X    ALC  0     ROOT ALC X 1
     2 SEC2       20 GROUP        1 X    SEC  0     **** SEC X 2
     3 GLC5        1 GROUP        1 X    GLC  0     **** GLC X 6
     4 ALP1       28 GROUP        1 Y    ALP  0     ROOT ALP Y 8
     5 SEP2       22 GROUP        1 Y    SEP  0     **** SEP Y 9
     6 GLP5        3 GROUP        1 Y    GLP  0     **** GLP Y 13
     7 ALL1       27 GROUP        1 Z    ALL  0     ROOT ALL Z 15
     8 SEL2       21 GROUP        1 Z    SEL  0     **** SEL Z 16
     9 GLL5        2 GROUP        1 Z    GLL  0     **** GLL Z 20
@<TRIPOS>SET

