#    Name: 2p55_MRA_1_ligand
#    Modification time : Mon Mar 24 18:21:13 2014

@<TRIPOS>MOLECULE
2p55_MRA_1_ligand
   37    38     1     0     0
SMALL
NO_CHARGES


@<TRIPOS>ATOM
      1 C1         46.3550   27.9750   -8.4640 C.ar      1 MRA9000     0.0000 
      2 C2         47.6920   27.8810   -8.0230 C.ar      1 MRA9000     0.0000 
      3 C3         48.0810   27.0540   -6.9530 C.ar      1 MRA9000     0.0000 
      4 C4         47.0520   26.2970   -6.3000 C.ar      1 MRA9000     0.0000 
      5 C5         45.7150   26.3780   -6.7300 C.ar      1 MRA9000     0.0000 
      6 C6         45.3730   27.2140   -7.8090 C.ar      1 MRA9000     0.0000 
      7 C7         44.0100   27.2920   -8.2540 C.1       1 MRA9000     0.0000 
      8 C8         42.8780   27.3250   -8.6280 C.1       1 MRA9000     0.0000 
      9 N1         49.4460   27.0650   -6.6460 N.pl3     1 MRA9000     0.0000 
     10 C9         50.1690   26.3900   -5.6700 C.ar      1 MRA9000     0.0000 
     11 C10        51.0450   27.1160   -4.7890 C.ar      1 MRA9000     0.0000 
     12 C11        51.7730   26.4160   -3.7880 C.ar      1 MRA9000     0.0000 
     13 C12        51.6450   25.0210   -3.6530 C.ar      1 MRA9000     0.0000 
     14 C13        50.8010   24.3330   -4.5240 C.ar      1 MRA9000     0.0000 
     15 C14        50.0880   24.9940   -5.5090 C.ar      1 MRA9000     0.0000 
     16 F1         49.3090   24.2670   -6.3120 F         1 MRA9000     0.0000 
     17 F2         50.6810   23.0090   -4.4030 F         1 MRA9000     0.0000 
     18 C15        51.2000   28.5740   -4.9400 C.2       1 MRA9000     0.0000 
     19 O1         50.8700   29.1500   -5.9670 O.2       1 MRA9000     0.0000 
     20 N2         51.7520   29.2680   -3.9190 N.am      1 MRA9000     0.0000 
     21 O2         51.9610   30.6750   -4.0090 O.3       1 MRA9000     0.0000 
     22 C16        53.0120   31.1110   -4.8900 C.3       1 MRA9000     0.0000 
     23 C17        53.7630   32.3570   -4.4180 C.3       1 MRA9000     0.0000 
     24 O3         53.5980   32.5940   -3.0360 O.3       1 MRA9000     0.0000 
     25 F3         48.6400   28.6040   -8.6480 F         1 MRA9000     0.0000 
     26 H          46.1110   28.5810   -9.2390 H         1 MRA9000     0.0000 
     27 H          47.3062   25.6938   -5.5124 H         1 MRA9000     0.0000 
     28 H          44.9918   25.8297   -6.2588 H         1 MRA9000     0.0000 
     29 H          50.0521   27.7269   -7.2946 H         1 MRA9000     0.0000 
     30 H          52.3946   26.9376   -3.1626 H         1 MRA9000     0.0000 
     31 H          52.1628   24.5276   -2.9292 H         1 MRA9000     0.0000 
     32 H          52.0395   28.7962   -3.0401 H         1 MRA9000     0.0000 
     33 H          52.6130   31.3291   -5.9084 H         1 MRA9000     0.0000 
     34 H          53.7673   30.3039   -5.0387 H         1 MRA9000     0.0000 
     35 H          53.4005   33.2088   -5.0292 H         1 MRA9000     0.0000 
     36 H          54.8298   32.2183   -4.6887 H         1 MRA9000     0.0000 
     37 H          53.0595   33.4348   -2.9802 H         1 MRA9000     0.0000 
@<TRIPOS>BOND
     1    2    1 ar   
     2    6    1 ar   
     3   26    1 1    
     4    3    2 ar   
     5   25    2 1    
     6    4    3 ar   
     7    9    3 1    
     8    5    4 ar   
     9   27    4 1    
    10    6    5 ar   
    11   28    5 1    
    12    7    6 1    
    13    8    7 3    
    14   10    9 1    
    15   29    9 1    
    16   11   10 ar   
    17   15   10 ar   
    18   12   11 ar   
    19   18   11 1    
    20   13   12 ar   
    21   30   12 1    
    22   14   13 ar   
    23   31   13 1    
    24   15   14 ar   
    25   17   14 1    
    26   16   15 1    
    27   19   18 2    
    28   20   18 am   
    29   21   20 1    
    30   32   20 1    
    31   22   21 1    
    32   23   22 1    
    33   33   22 1    
    34   34   22 1    
    35   24   23 1    
    36   35   23 1    
    37   36   23 1    
    38   37   24 1    
@<TRIPOS>SUBSTRUCTURE
     1 MRA9000     1 GROUP   
@<TRIPOS>SET

