#    Name: 2zdv_37U_1_INTS_M
#    Modification time : Tue Mar 25 10:36:59 2014

@<TRIPOS>MOLECULE
2zdv_37U_1_INTS_M
   61     0     9     0     0
SMALL
NO_CHARGES


@<TRIPOS>ATOM
      1 O          15.2955  -15.1750   23.8040 O.2       1 ALC1        0.0000 
      2 O          16.4040  -15.9780   23.1390 O.2       7 ALL1        0.0000 
      3 O          14.1870  -14.3720   24.4690 O.2       4 ALP1        0.0000 
      4 N          15.5785  -12.5200   24.0895 N.am      2 SEC2        0.0000 
      5 N          16.5140  -13.1720   23.0990 N.am      8 SEL2        0.0000 
      6 N          14.6430  -11.8680   25.0800 N.am      5 SEP2        0.0000 
      7 CA         17.6000  -13.6570   26.2945 C.3       3 GLC5        0.0000 
      8 CA         18.1060  -15.0860   24.7760 C.3       9 GLL5        0.0000 
      9 CA         17.0940  -12.2280   27.8130 C.3       6 GLP5        0.0000 
     10 CA         16.7295  -15.7905   26.3570 C.3       3 GLC5        0.0000 
     11 CA         15.3530  -16.4950   27.9380 C.3       6 GLP5        0.0000 
     12 CA         20.8570  -11.2440   24.2790 C.3       3 GLC5        0.0000 
     13 CA         21.0660  -12.7950   25.6740 C.3       9 GLL5        0.0000 
     14 CA         20.6480   -9.6930   22.8840 C.3       6 GLP5        0.0000 
     15 CA         22.5885  -11.9010   23.9060 C.3       3 GLC5        0.0000 
     16 CA         22.1320  -13.4240   25.0060 C.3       9 GLL5        0.0000 
     17 CA         23.0450  -10.3780   22.8060 C.3       6 GLP5        0.0000 
     18 CA         17.7280  -11.2965   22.9725 C.3       3 GLC5        0.0000 
     19 CA         17.9940  -11.9640   21.1140 C.3       9 GLL5        0.0000 
     20 CA         17.4620  -10.6290   24.8310 C.3       6 GLP5        0.0000 
     21 CA         14.9135   -8.9015   18.8990 C.3       3 GLC5        0.0000 
     22 CA         14.5430  -10.5760   20.2920 C.3       9 GLL5        0.0000 
     23 CA         15.2840   -7.2270   17.5060 C.3       6 GLP5        0.0000 
     24 O          16.4480   -9.7025   21.6180 O.2       1 ALC1        0.0000 
     25 O          15.8610  -10.7560   20.8960 O.2       7 ALL1        0.0000 
     26 O          17.0350   -8.6490   22.3400 O.2       4 ALP1        0.0000 
     27 CA         11.7560   -8.6845   26.0285 C.3       3 GLC5        0.0000 
     28 CA         12.4030   -8.4200   24.1970 C.3       9 GLL5        0.0000 
     29 CA         11.1090   -8.9490   27.8600 C.3       6 GLP5        0.0000 
     30 CA         10.2310  -12.9200   21.8230 C.3       3 GLC5        0.0000 
     31 CA         11.6870  -11.6140   22.5950 C.3       9 GLL5        0.0000 
     32 CA          8.7750  -14.2260   21.0510 C.3       6 GLP5        0.0000 
     33 CA         19.1714  -14.6814   27.0944 C.3       3 GLC5        0.0000 
     34 CA         19.7850  -13.3530   25.5810 C.3       9 GLL5        0.0000 
     35 CA         19.0390  -15.2850   28.9940 C.3       6 GLP5        0.0000 
     36 CA         22.8685  -12.2767   26.5300 C.3       3 GLC5        0.0000 
     37 CA         24.1380  -11.4440   27.7200 C.3       6 GLP5        0.0000 
     38 CA         18.9130  -11.9972   25.1367 C.3       3 GLC5        0.0000 
     39 CA         18.7752  -10.3492   19.3895 C.3       3 GLC5        0.0000 
     40 CA         19.0640   -8.7440   18.2650 C.3       6 GLP5        0.0000 
     41 CA         21.5655  -13.7570   20.2812 C.3       3 GLC5        0.0000 
     42 CA         20.0650  -12.9590   20.3190 C.3       9 GLL5        0.0000 
     43 CA         23.4740  -13.9880   19.9190 C.3       6 GLP5        0.0000 
     44 CA         19.9619  -11.0749   21.6502 C.3       3 GLC5        0.0000 
     45 CA         18.9962  -14.2383   19.0616 C.3       3 GLC5        0.0000 
     46 CA         18.9790  -11.9450   19.9140 C.3       9 GLL5        0.0000 
     47 CA         18.6070  -15.2040   17.5810 C.3       6 GLP5        0.0000 
     48 CA         10.5563  -11.3462   20.9725 C.3       3 GLC5        0.0000 
     49 CA         12.6320  -11.6150   21.5770 C.3       9 GLL5        0.0000 
     50 CA          8.9530  -11.0780   19.8590 C.3       6 GLP5        0.0000 
     51 CA         15.0605  -10.3302   22.6265 C.3       3 GLC5        0.0000 
     52 CA         13.5190  -10.5390   21.4240 C.3       9 GLL5        0.0000 
     53 CA         16.0900  -10.1030   24.3950 C.3       6 GLP5        0.0000 
     54 CA         12.5720   -7.5231   22.4975 C.3       3 GLC5        0.0000 
     55 CA         12.4640   -6.1050   21.4830 C.3       6 GLP5        0.0000 
     56 CA         14.3850   -9.5221   23.9535 C.3       3 GLC5        0.0000 
     57 CA         10.5579   -8.5714   22.9045 C.3       3 GLC5        0.0000 
     58 CA         12.4860   -9.4550   23.3390 C.3       9 GLL5        0.0000 
     59 CA          9.0880   -7.4070   22.1850 C.3       6 GLP5        0.0000 
     60 CA         12.7614  -11.6716   24.4436 C.3       3 GLC5        0.0000 
     61 CA         13.6550  -12.5390   25.8850 C.3       6 GLP5        0.0000 
@<TRIPOS>BOND
@<TRIPOS>SUBSTRUCTURE
     1 ALC1        1 GROUP        1 X    ALC  0     ROOT ALC X 1
     2 SEC2        4 GROUP        1 X    SEC  0     **** SEC X 2
     3 GLC5        7 GROUP        1 X    GLC  0     **** GLC X 6
     4 ALP1        3 GROUP        1 Y    ALP  0     ROOT ALP Y 8
     5 SEP2        6 GROUP        1 Y    SEP  0     **** SEP Y 9
     6 GLP5        9 GROUP        1 Y    GLP  0     **** GLP Y 13
     7 ALL1        2 GROUP        1 Z    ALL  0     ROOT ALL Z 15
     8 SEL2        5 GROUP        1 Z    SEL  0     **** SEL Z 16
     9 GLL5        8 GROUP        1 Z    GLL  0     **** GLL Z 20
@<TRIPOS>SET

