#    Name: 2zdv_37U_1_ligand
#    Modification time : Tue Mar 25 10:36:59 2014

@<TRIPOS>MOLECULE
2zdv_37U_1_ligand
   52    54     1     0     0
SMALL
NO_CHARGES


@<TRIPOS>ATOM
      1 N25        16.4040  -15.9780   23.1390 N.4       1 37U501      0.0000 
      2 C7         17.6560  -15.1780   23.2980 C.3       1 37U501      0.0000 
      3 C6         17.4890  -13.8170   22.6640 C.2       1 37U501      0.0000 
      4 O27        16.5140  -13.1720   23.0990 O.2       1 37U501      0.0000 
      5 C8         18.1060  -15.0860   24.7760 C.3       1 37U501      0.0000 
      6 C9         19.5390  -14.5190   24.8410 C.ar      1 37U501      0.0000 
      7 C10        20.6090  -15.1320   24.1840 C.ar      1 37U501      0.0000 
      8 C14        19.7850  -13.3530   25.5810 C.ar      1 37U501      0.0000 
      9 C11        21.8970  -14.5790   24.2710 C.ar      1 37U501      0.0000 
     10 C13        21.0660  -12.7950   25.6740 C.ar      1 37U501      0.0000 
     11 C12        22.1320  -13.4240   25.0060 C.ar      1 37U501      0.0000 
     12 N15        18.2870  -13.2700   21.7110 N.am      1 37U501      0.0000 
     13 C5         17.9940  -11.9640   21.1140 C.3       1 37U501      0.0000 
     14 C4         16.5590  -11.8780   20.6380 C.2       1 37U501      0.0000 
     15 O26        16.0900  -12.8400   20.0410 O.2       1 37U501      0.0000 
     16 C17        18.9790  -11.9450   19.9140 C.3       1 37U501      0.0000 
     17 C16        20.0650  -12.9590   20.3190 C.3       1 37U501      0.0000 
     18 C15        19.2490  -14.0930   20.9680 C.3       1 37U501      0.0000 
     19 C1         12.6320  -11.6150   21.5770 C.ar      1 37U501      0.0000 
     20 C2         13.5190  -10.5390   21.4240 C.ar      1 37U501      0.0000 
     21 C3         14.5430  -10.5760   20.2920 C.3       1 37U501      0.0000 
     22 N9         15.8610  -10.7560   20.8960 N.am      1 37U501      0.0000 
     23 C18        13.4280   -9.4700   22.3150 C.ar      1 37U501      0.0000 
     24 C19        12.4860   -9.4550   23.3390 C.ar      1 37U501      0.0000 
     25 F7         12.4030   -8.4200   24.1970 F         1 37U501      0.0000 
     26 C20        11.6110  -10.5340   23.4800 C.ar      1 37U501      0.0000 
     27 C21        11.6870  -11.6140   22.5950 C.ar      1 37U501      0.0000 
     28 H          18.4640  -15.7011   22.7496 H         1 37U501      0.0000 
     29 H          18.0916  -16.0726   25.2124 H         1 37U501      0.0000 
     30 H          17.4369  -14.4289   25.3094 H         1 37U501      0.0000 
     31 H          20.4571  -15.9858   23.6375 H         1 37U501      0.0000 
     32 H          18.9960  -12.8924   26.0722 H         1 37U501      0.0000 
     33 H          22.6776  -15.0435   23.7782 H         1 37U501      0.0000 
     34 H          21.2257  -11.9493   26.2147 H         1 37U501      0.0000 
     35 H          23.0733  -13.0265   25.0660 H         1 37U501      0.0000 
     36 H          18.2489  -11.1845   21.7606 H         1 37U501      0.0000 
     37 H          19.4024  -10.9823   19.8237 H         1 37U501      0.0000 
     38 H          18.4803  -12.2804   19.0462 H         1 37U501      0.0000 
     39 H          20.7059  -12.5271   21.0353 H         1 37U501      0.0000 
     40 H          20.5536  -13.3202   19.4581 H         1 37U501      0.0000 
     41 H          18.7838  -14.6486   20.2128 H         1 37U501      0.0000 
     42 H          19.8745  -14.6343   21.6092 H         1 37U501      0.0000 
     43 H          12.6869  -12.4113   20.9245 H         1 37U501      0.0000 
     44 H          14.4866   -9.6420   19.7465 H         1 37U501      0.0000 
     45 H          14.2982  -11.4004   19.6335 H         1 37U501      0.0000 
     46 H          16.2041  -10.0080   21.5006 H         1 37U501      0.0000 
     47 H          14.0785   -8.6678   22.2108 H         1 37U501      0.0000 
     48 H          10.9131  -10.5353   24.2314 H         1 37U501      0.0000 
     49 H          11.0408  -12.4062   22.7014 H         1 37U501      0.0000 
     50 H          16.4890  -16.8861   23.5490 H         1 37U501      0.0000 
     51 H          15.6210  -15.5325   23.5730 H         1 37U501      0.0000 
     52 H          16.1686  -16.1119   22.1764 H         1 37U501      0.0000 
@<TRIPOS>BOND
     1    2    1 1    
     2   50    1 1    
     3   51    1 1    
     4   52    1 1    
     5    3    2 1    
     6    5    2 1    
     7   28    2 1    
     8    4    3 2    
     9   12    3 am   
    10    6    5 1    
    11   29    5 1    
    12   30    5 1    
    13    7    6 ar   
    14    8    6 ar   
    15    9    7 ar   
    16   31    7 1    
    17   10    8 ar   
    18   32    8 1    
    19   11    9 ar   
    20   33    9 1    
    21   11   10 ar   
    22   34   10 1    
    23   35   11 1    
    24   13   12 1    
    25   18   12 1    
    26   14   13 1    
    27   16   13 1    
    28   36   13 1    
    29   15   14 2    
    30   22   14 am   
    31   17   16 1    
    32   37   16 1    
    33   38   16 1    
    34   18   17 1    
    35   39   17 1    
    36   40   17 1    
    37   41   18 1    
    38   42   18 1    
    39   20   19 ar   
    40   27   19 ar   
    41   43   19 1    
    42   21   20 1    
    43   23   20 ar   
    44   22   21 1    
    45   44   21 1    
    46   45   21 1    
    47   46   22 1    
    48   24   23 ar   
    49   47   23 1    
    50   25   24 1    
    51   26   24 ar   
    52   27   26 ar   
    53   48   26 1    
    54   49   27 1    
@<TRIPOS>SUBSTRUCTURE
     1 37U501      1 GROUP   
@<TRIPOS>SET

