#    Name: 2pe2_464_1_INTS_M
#    Modification time : Mon Mar 24 18:55:08 2014

@<TRIPOS>MOLECULE
2pe2_464_1_INTS_M
   67     0     9     0     0
SMALL
NO_CHARGES


@<TRIPOS>ATOM
      1 CA          3.8780   34.6385   44.3910 C.3       3 GLC5        0.0000 
      2 CA          3.2450   32.5930   44.1170 C.3       9 GLL5        0.0000 
      3 CA          4.5110   36.6840   44.6650 C.3       6 GLP5        0.0000 
      4 O          -0.3465   31.8950   42.1860 O.2       1 ALC1        0.0000 
      5 O           0.4190   32.2540   43.5250 O.2       7 ALL1        0.0000 
      6 O          -1.1120   31.5360   40.8470 O.2       4 ALP1        0.0000 
      7 CA         -0.6000   32.1575   41.9285 C.3       3 GLC5        0.0000 
      8 CA         -1.0520   32.1800   43.7810 C.3       9 GLL5        0.0000 
      9 CA         -0.1480   32.1350   40.0760 C.3       6 GLP5        0.0000 
     10 CA         -6.2415   36.1715   45.1955 C.3       3 GLC5        0.0000 
     11 CA         -4.9780   37.9120   45.8550 C.3       9 GLL5        0.0000 
     12 CA         -7.5050   34.4310   44.5360 C.3       6 GLP5        0.0000 
     13 CA         -7.2610   41.1550   46.5590 C.3       3 GLC5        0.0000 
     14 CA         -6.8170   41.7080   44.5450 C.3       9 GLL5        0.0000 
     15 CA         -7.7050   40.6020   48.5730 C.3       6 GLP5        0.0000 
     16 CA         -7.6875   43.8460   45.9045 C.3       3 GLC5        0.0000 
     17 CA         -7.1580   42.9910   44.1410 C.3       9 GLL5        0.0000 
     18 CA         -8.2170   44.7010   47.6680 C.3       6 GLP5        0.0000 
     19 N          -8.8800   38.8485   43.9665 N.am      2 SEC2        0.0000 
     20 N          -8.0640   39.7220   44.6650 N.am      8 SEL2        0.0000 
     21 N          -9.6960   37.9750   43.2680 N.am      5 SEP2        0.0000 
     22 CA         -9.9135   43.1015   44.9550 C.3       3 GLC5        0.0000 
     23 CA         -9.1400   44.0890   43.2470 C.3       9 GLL5        0.0000 
     24 CA        -10.6870   42.1140   46.6630 C.3       6 GLP5        0.0000 
     25 CA        -10.6920   43.9495   41.7705 C.3       3 GLC5        0.0000 
     26 CA        -12.2440   43.8100   40.2940 C.3       6 GLP5        0.0000 
     27 CA         -8.0665   42.8000   42.0865 C.3       3 GLC5        0.0000 
     28 CA         -6.9930   41.5110   40.9260 C.3       6 GLP5        0.0000 
     29 N          -8.1930   49.0860   42.6355 N.am      2 SEC2        0.0000 
     30 N          -7.7610   47.8370   42.2280 N.am      8 SEL2        0.0000 
     31 N          -8.6250   50.3350   43.0430 N.am      5 SEP2        0.0000 
     32 N          -8.2850   47.0395   41.0905 N.am      2 SEC2        0.0000 
     33 N          -8.8090   46.2420   39.9530 N.am      5 SEP2        0.0000 
     34 O          -5.5815   49.8070   41.4840 O.2       1 ALC1        0.0000 
     35 O          -5.6870   48.5530   42.6200 O.2       7 ALL1        0.0000 
     36 O          -5.4760   51.0610   40.3480 O.2       4 ALP1        0.0000 
     37 CA          4.1002   31.2025   42.6677 C.3       3 GLC5        0.0000 
     38 CA          5.2640   30.5060   41.3230 C.3       6 GLP5        0.0000 
     39 CA          2.4262   35.2880   42.8230 C.3       3 GLC5        0.0000 
     40 CA          2.4450   33.6550   43.3510 C.3       9 GLL5        0.0000 
     41 CA          3.1490   36.9410   42.0860 C.3       6 GLP5        0.0000 
     42 CA          0.7428   33.5620   41.6965 C.3       3 GLC5        0.0000 
     43 CA         -0.2180   33.4890   39.8330 C.3       6 GLP5        0.0000 
     44 CA         -2.6958   33.0902   43.6755 C.3       3 GLC5        0.0000 
     45 CA         -4.1460   33.9180   42.8260 C.3       6 GLP5        0.0000 
     46 CA         -2.8352   37.3575   44.6453 C.3       3 GLC5        0.0000 
     47 CA         -2.3910   36.4540   46.3500 C.3       9 GLL5        0.0000 
     48 CA         -3.1580   37.5720   42.8190 C.3       6 GLP5        0.0000 
     49 CA         -5.0770   38.7715   47.7580 C.3       3 GLC5        0.0000 
     50 CA         -3.7900   38.4780   46.0910 C.3       9 GLL5        0.0000 
     51 CA         -5.7700   39.3480   49.5430 C.3       6 GLP5        0.0000 
     52 CA         -3.9697   38.4196   44.2255 C.3       3 GLC5        0.0000 
     53 CA         -5.2651   41.1683   47.0560 C.3       3 GLC5        0.0000 
     54 CA         -3.9020   39.7800   45.7790 C.3       9 GLL5        0.0000 
     55 CA         -5.5060   41.7280   48.8320 C.3       6 GLP5        0.0000 
     56 CA         -6.5813   41.5125   42.8458 C.3       3 GLC5        0.0000 
     57 CA         -5.5220   41.3200   44.9860 C.3       9 GLL5        0.0000 
     58 CA         -8.8372   42.2317   45.5030 C.3       3 GLC5        0.0000 
     59 CA         -6.8913   42.5493   42.4928 C.3       3 GLC5        0.0000 
     60 CA        -10.3513   45.7263   43.4480 C.3       3 GLC5        0.0000 
     61 CA         -8.3990   45.2780   43.0750 C.3       9 GLL5        0.0000 
     62 CA        -11.9330   46.7690   43.7350 C.3       6 GLP5        0.0000 
     63 CA         -7.3790   45.9435   45.1649 C.3       3 GLC5        0.0000 
     64 CA         -7.1960   46.8690   46.9400 C.3       6 GLP5        0.0000 
     65 CA         -7.1425   45.3725   41.3650 C.3       3 GLC5        0.0000 
     66 CA         -7.0290   45.3320   43.4310 C.3       9 GLL5        0.0000 
     67 CA         -6.5710   45.4400   39.4770 C.3       6 GLP5        0.0000 
@<TRIPOS>BOND
@<TRIPOS>SUBSTRUCTURE
     1 ALC1        4 GROUP        1 X    ALC  0     ROOT ALC X 1
     2 SEC2       19 GROUP        1 X    SEC  0     **** SEC X 2
     3 GLC5        1 GROUP        1 X    GLC  0     **** GLC X 6
     4 ALP1        6 GROUP        1 Y    ALP  0     ROOT ALP Y 8
     5 SEP2       21 GROUP        1 Y    SEP  0     **** SEP Y 9
     6 GLP5        3 GROUP        1 Y    GLP  0     **** GLP Y 13
     7 ALL1        5 GROUP        1 Z    ALL  0     ROOT ALL Z 15
     8 SEL2       20 GROUP        1 Z    SEL  0     **** SEL Z 16
     9 GLL5        2 GROUP        1 Z    GLL  0     **** GLL Z 20
@<TRIPOS>SET

