#    Name: 2pe2_464_1_ligand
#    Modification time : Mon Mar 24 18:55:08 2014

@<TRIPOS>MOLECULE
2pe2_464_1_ligand
   68    72     1     0     0
SMALL
NO_CHARGES


@<TRIPOS>ATOM
      1 C38         1.1440   31.2170   44.3120 C.3       1 464501      0.0000 
      2 C39         2.6280   31.2050   43.9080 C.3       1 464501      0.0000 
      3 C40         3.2450   32.5930   44.1170 C.3       1 464501      0.0000 
      4 C41         2.4450   33.6550   43.3510 C.3       1 464501      0.0000 
      5 C42         0.9620   33.6150   43.7690 C.3       1 464501      0.0000 
      6 N37         0.4190   32.2540   43.5250 N.4       1 464501      0.0000 
      7 C36        -1.0520   32.1800   43.7810 C.3       1 464501      0.0000 
      8 C35        -1.4390   32.3450   45.2690 C.3       1 464501      0.0000 
      9 N33        -1.5920   33.7690   45.6290 N.am      1 464501      0.0000 
     10 C31        -0.9780   34.3160   46.6830 C.2       1 464501      0.0000 
     11 O32        -0.2190   33.6930   47.4300 O.2       1 464501      0.0000 
     12 C29        -1.2600   35.8190   46.9210 C.ar      1 464501      0.0000 
     13 C30        -2.3910   36.4540   46.3500 C.ar      1 464501      0.0000 
     14 C28        -0.3830   36.5580   47.7320 C.ar      1 464501      0.0000 
     15 C27        -0.6180   37.9190   47.9730 C.ar      1 464501      0.0000 
     16 C26        -1.7360   38.5530   47.4060 C.ar      1 464501      0.0000 
     17 C25        -2.6340   37.8320   46.5930 C.ar      1 464501      0.0000 
     18 C23        -3.7900   38.4780   46.0910 C.2       1 464501      0.0000 
     19 C24        -3.9020   39.7800   45.7790 C.2       1 464501      0.0000 
     20 C22        -4.9780   37.9120   45.8550 C.2       1 464501      0.0000 
     21 N20        -5.8110   38.8550   45.4150 N.pl3     1 464501      0.0000 
     22 C19        -5.1510   40.0140   45.3690 C.2       1 464501      0.0000 
     23 C18        -5.5220   41.3200   44.9860 C.3       1 464501      0.0000 
     24 C4         -6.8170   41.7080   44.5450 C.2       1 464501      0.0000 
     25 C6         -7.1580   42.9910   44.1410 C.ar      1 464501      0.0000 
     26 C7         -6.4210   44.1840   43.9780 C.ar      1 464501      0.0000 
     27 C2         -7.9630   40.9250   44.4060 C.2       1 464501      0.0000 
     28 O3         -8.0640   39.7220   44.6650 O.2       1 464501      0.0000 
     29 N1         -8.9680   41.6810   43.9450 N.2       1 464501      0.0000 
     30 C5         -8.5210   42.9410   43.7690 C.ar      1 464501      0.0000 
     31 C10        -9.1400   44.0890   43.2470 C.ar      1 464501      0.0000 
     32 C9         -8.3990   45.2780   43.0750 C.ar      1 464501      0.0000 
     33 C8         -7.0290   45.3320   43.4310 C.ar      1 464501      0.0000 
     34 N11        -6.2530   46.4360   43.2340 N.am      1 464501      0.0000 
     35 C13        -6.6340   47.6230   42.6920 C.2       1 464501      0.0000 
     36 O17        -7.7610   47.8370   42.2280 O.2       1 464501      0.0000 
     37 N14        -5.6870   48.5530   42.6200 N.am      1 464501      0.0000 
     38 H           1.0773   31.4317   45.3755 H         1 464501      0.0000 
     39 H           0.7256   30.2325   44.1193 H         1 464501      0.0000 
     40 H           2.7101   30.9289   42.8626 H         1 464501      0.0000 
     41 H           3.1571   30.4810   44.5177 H         1 464501      0.0000 
     42 H           4.2691   32.5880   43.7568 H         1 464501      0.0000 
     43 H           3.2364   32.8334   45.1756 H         1 464501      0.0000 
     44 H           2.5187   33.4621   42.2862 H         1 464501      0.0000 
     45 H           2.8490   34.6373   43.5706 H         1 464501      0.0000 
     46 H           0.4211   34.3534   43.1848 H         1 464501      0.0000 
     47 H           0.8957   33.8705   44.8223 H         1 464501      0.0000 
     48 H           0.5753   32.0166   42.4470 H         1 464501      0.0000 
     49 H          -1.4474   31.2101   43.4320 H         1 464501      0.0000 
     50 H          -1.5752   32.9628   43.2044 H         1 464501      0.0000 
     51 H          -0.6583   31.8739   45.8749 H         1 464501      0.0000 
     52 H          -2.3737   31.8003   45.4369 H         1 464501      0.0000 
     53 H          -2.2157   34.3205   45.0001 H         1 464501      0.0000 
     54 H          -3.0328   35.9212   45.7629 H         1 464501      0.0000 
     55 H           0.4340   36.0981   48.1499 H         1 464501      0.0000 
     56 H           0.0266   38.4536   48.5640 H         1 464501      0.0000 
     57 H          -1.9025   39.5506   47.5841 H         1 464501      0.0000 
     58 H          -3.1904   40.4373   45.8427 H         1 464501      0.0000 
     59 H          -5.1945   36.9745   45.9829 H         1 464501      0.0000 
     60 H          -6.7420   38.7220   45.1690 H         1 464501      0.0000 
     61 H          -4.7479   41.6942   44.1808 H         1 464501      0.0000 
     62 H          -5.2098   42.0535   45.8533 H         1 464501      0.0000 
     63 H          -5.4357   44.2147   44.2600 H         1 464501      0.0000 
     64 H         -10.1304   44.0662   42.9899 H         1 464501      0.0000 
     65 H          -8.8544   46.1111   42.6892 H         1 464501      0.0000 
     66 H          -5.2133   46.3562   43.5459 H         1 464501      0.0000 
     67 H          -4.7755   48.2774   42.9253 H         1 464501      0.0000 
     68 H          -5.9715   49.4443   42.2670 H         1 464501      0.0000 
@<TRIPOS>BOND
     1    2    1 1    
     2    6    1 1    
     3   38    1 1    
     4   39    1 1    
     5    3    2 1    
     6   40    2 1    
     7   41    2 1    
     8    4    3 1    
     9   42    3 1    
    10   43    3 1    
    11    5    4 1    
    12   44    4 1    
    13   45    4 1    
    14    6    5 1    
    15   46    5 1    
    16   47    5 1    
    17    7    6 1    
    18   48    6 1    
    19    8    7 1    
    20   49    7 1    
    21   50    7 1    
    22    9    8 1    
    23   51    8 1    
    24   52    8 1    
    25   10    9 am   
    26   53    9 1    
    27   11   10 2    
    28   12   10 1    
    29   13   12 ar   
    30   14   12 ar   
    31   17   13 ar   
    32   54   13 1    
    33   15   14 ar   
    34   55   14 1    
    35   16   15 ar   
    36   56   15 1    
    37   17   16 ar   
    38   57   16 1    
    39   18   17 1    
    40   19   18 1    
    41   20   18 2    
    42   22   19 2    
    43   58   19 1    
    44   21   20 1    
    45   59   20 1    
    46   22   21 1    
    47   60   21 1    
    48   23   22 1    
    49   24   23 1    
    50   61   23 1    
    51   62   23 1    
    52   25   24 2    
    53   27   24 1    
    54   26   25 ar   
    55   30   25 ar   
    56   33   26 ar   
    57   63   26 1    
    58   28   27 2    
    59   29   27 1    
    60   30   29 2    
    61   31   30 ar   
    62   32   31 ar   
    63   64   31 1    
    64   33   32 ar   
    65   65   32 1    
    66   34   33 1    
    67   35   34 am   
    68   66   34 1    
    69   36   35 2    
    70   37   35 am   
    71   67   37 1    
    72   68   37 1    
@<TRIPOS>SUBSTRUCTURE
     1 464501      1 GROUP   
@<TRIPOS>SET

