#    Name: 1G32_1_CAVITY_N1_ALL.mol2
#    Modification time : Tue Mar 11 00:38:56 2014

@<TRIPOS>MOLECULE
1G32_1_CAVITY_N1_ALL.mol2
   89     0     6     0     0
SMALL
NO_CHARGES


@<TRIPOS>ATOM
      1 N          18.0379  -15.1375   23.8157 N.2       2 ALA2        0.0000 
      2 DU         18.8895  -15.2417   22.5853 H         6 CUB7        0.0000 
      3 CZ         19.7412  -15.3459   21.3549 C.ar      4 PHE5        0.0000 
      4 N          16.8745  -15.7059   23.0586 N.2       2 ALA2        0.0000 
      5 CZ         17.7261  -15.8101   21.8282 C.ar      4 PHE5        0.0000 
      6 N          15.7110  -16.2743   22.3015 N.2       2 ALA2        0.0000 
      7 CZ         16.5626  -16.3785   21.0711 C.ar      4 PHE5        0.0000 
      8 N          13.6960  -16.7386   22.7747 N.2       2 ALA2        0.0000 
      9 N          14.5476  -16.8428   21.5443 N.2       2 ALA2        0.0000 
     10 DU         15.3992  -16.9470   20.3139 H         6 CUB7        0.0000 
     11 O          12.5325  -17.3070   22.0176 O.2       2 ALA2        0.0000 
     12 O          13.3841  -17.4112   20.7872 O.2       2 ALA2        0.0000 
     13 CA         11.3691  -17.8754   21.2604 C.3       5 GLY6        0.0000 
     14 DU         12.2207  -17.9796   20.0300 H         6 CUB7        0.0000 
     15 DU         13.0723  -18.0838   18.7996 H         6 CUB7        0.0000 
     16 CA         11.0572  -18.5481   19.2729 C.3       5 GLY6        0.0000 
     17 NZ         11.9089  -18.6523   18.0425 N.2       3 LYS4        0.0000 
     18 N          10.7454  -19.2207   17.2853 N.2       2 ALA2        0.0000 
     19 CA         19.6393  -13.2890   22.9389 C.3       5 GLY6        0.0000 
     20 CA         20.4909  -13.3932   21.7085 C.3       5 GLY6        0.0000 
     21 CA         17.6243  -13.7533   23.4122 C.3       5 GLY6        0.0000 
     22 CA         18.4759  -13.8575   22.1818 C.3       5 GLY6        0.0000 
     23 CZ         19.3275  -13.9617   20.9514 C.ar      4 PHE5        0.0000 
     24 N          16.4608  -14.3217   22.6550 N.2       2 ALA2        0.0000 
     25 CZ         17.3124  -14.4259   21.4246 C.ar      4 PHE5        0.0000 
     26 N          15.2974  -14.8901   21.8979 N.2       2 ALA2        0.0000 
     27 CZ         16.1490  -14.9943   20.6675 C.ar      4 PHE5        0.0000 
     28 N          13.2823  -15.3544   22.3712 N.2       2 ALA2        0.0000 
     29 N          14.1339  -15.4586   21.1408 N.2       2 ALA2        0.0000 
     30 CZ         14.9855  -15.5628   19.9104 C.ar      4 PHE5        0.0000 
     31 CZ         15.8372  -15.6670   18.6800 C.ar      4 PHE5        0.0000 
     32 N          12.1188  -15.9228   21.6140 N.2       2 ALA2        0.0000 
     33 DU         12.9705  -16.0270   20.3836 H         6 CUB7        0.0000 
     34 DU         13.8221  -16.1312   19.1532 H         6 CUB7        0.0000 
     35 NZ         14.6737  -16.2354   17.9228 N.2       3 LYS4        0.0000 
     36 NZ         15.5253  -16.3396   16.6924 N.2       3 LYS4        0.0000 
     37 CA         10.9554  -16.4912   20.8569 C.3       5 GLY6        0.0000 
     38 CA         11.8070  -16.5954   19.6265 C.3       5 GLY6        0.0000 
     39 CA         12.6586  -16.6996   18.3961 C.3       5 GLY6        0.0000 
     40 NZ         13.5103  -16.8038   17.1657 N.2       3 LYS4        0.0000 
     41 CA         10.6436  -17.1639   18.8693 C.3       5 GLY6        0.0000 
     42 CA         18.0622  -12.4732   21.7782 C.3       5 GLY6        0.0000 
     43 CZ         18.9138  -12.5774   20.5478 C.ar      4 PHE5        0.0000 
     44 CZ         19.7654  -12.6816   19.3174 C.ar      4 PHE5        0.0000 
     45 O          16.0471  -12.9375   22.2515 O.2       2 ALA2        0.0000 
     46 CZ         16.8988  -13.0417   21.0211 C.ar      4 PHE5        0.0000 
     47 CZ         17.7504  -13.1459   19.7907 C.ar      4 PHE5        0.0000 
     48 N          14.8837  -13.5059   21.4944 N.2       2 ALA2        0.0000 
     49 CZ         15.7353  -13.6101   20.2640 C.ar      4 PHE5        0.0000 
     50 N          12.8686  -13.9702   21.9676 N.2       2 ALA2        0.0000 
     51 DU         13.7202  -14.0744   20.7372 H         6 CUB7        0.0000 
     52 DU         14.5719  -14.1786   19.5068 H         6 CUB7        0.0000 
     53 CZ         15.4235  -14.2828   18.2764 C.ar      4 PHE5        0.0000 
     54 N          11.7052  -14.5386   21.2105 N.2       2 ALA2        0.0000 
     55 O          12.5568  -14.6428   19.9801 O.2       2 ALA2        0.0000 
     56 CA         13.4084  -14.7470   18.7497 C.3       5 GLY6        0.0000 
     57 CA         14.2600  -14.8512   17.5193 C.3       5 GLY6        0.0000 
     58 NZ         15.1117  -14.9554   16.2889 N.2       3 LYS4        0.0000 
     59 O          11.3933  -15.2112   19.2229 O.2       2 ALA2        0.0000 
     60 N          18.5001  -11.1932   20.1443 N.2       2 ALA2        0.0000 
     61 CA         15.6335  -11.5533   21.8479 C.3       5 GLY6        0.0000 
     62 N          16.4851  -11.6575   20.6175 N.2       2 ALA2        0.0000 
     63 N          17.3367  -11.7617   19.3871 N.2       2 ALA2        0.0000 
     64 O          12.7668  -11.9133   23.5516 O.2       2 ALA2        0.0000 
     65 O          13.6184  -12.0175   22.3212 O.2       2 ALA2        0.0000 
     66 CA         14.4700  -12.1217   21.0908 C.3       5 GLY6        0.0000 
     67 DU         15.3216  -12.2259   19.8604 H         6 CUB7        0.0000 
     68 CZ         16.1733  -12.3301   18.6300 C.ar      4 PHE5        0.0000 
     69 N          11.6033  -12.4818   22.7945 N.2       2 ALA2        0.0000 
     70 DU         12.4549  -12.5860   21.5641 H         6 CUB7        0.0000 
     71 O          13.3066  -12.6902   20.3337 O.2       2 ALA2        0.0000 
     72 CA         14.1582  -12.7944   19.1033 C.3       5 GLY6        0.0000 
     73 CZ         15.0098  -12.8986   17.8729 C.ar      4 PHE5        0.0000 
     74 CZ         15.8614  -13.0028   16.6425 C.ar      4 PHE5        0.0000 
     75 CA         11.2915  -13.1544   20.8069 C.3       5 GLY6        0.0000 
     76 O          12.1431  -13.2586   19.5765 O.2       2 ALA2        0.0000 
     77 CA         13.8464  -13.4670   17.1157 C.3       5 GLY6        0.0000 
     78 CA         14.6980  -13.5712   15.8853 C.3       5 GLY6        0.0000 
     79 N          16.0714  -10.2733   20.2140 N.2       2 ALA2        0.0000 
     80 N          12.3531  -10.5291   23.1480 N.2       2 ALA2        0.0000 
     81 CA         13.2047  -10.6333   21.9176 C.3       5 GLY6        0.0000 
     82 CA         14.0563  -10.7375   20.6872 C.3       5 GLY6        0.0000 
     83 CA         14.9080  -10.8417   19.4568 C.3       5 GLY6        0.0000 
     84 N          11.1896  -11.0976   22.3909 N.2       2 ALA2        0.0000 
     85 N          12.0413  -11.2018   21.1605 N.2       2 ALA2        0.0000 
     86 N          12.8929  -11.3060   19.9301 N.2       2 ALA2        0.0000 
     87 OG         13.7445  -11.4102   18.6997 O.2       1 SER1        0.0000 
     88 OG         14.5961  -11.5144   17.4693 O.2       1 SER1        0.0000 
     89 CA         14.2843  -12.1870   15.4818 C.3       5 GLY6        0.0000 
@<TRIPOS>BOND
@<TRIPOS>SUBSTRUCTURE
     1 SER1       87 GROUP   
     2 ALA2        1 GROUP   
     3 LYS4       17 GROUP   
     4 PHE5        3 GROUP   
     5 GLY6       13 GROUP   
     6 CUB7        2 GROUP   
@<TRIPOS>SET

