#    Name: 1g32_R11_1_INTS_M
#    Modification time : Tue Mar 25 02:28:30 2014

@<TRIPOS>MOLECULE
1g32_R11_1_INTS_M
   63     0     6     0     0
SMALL
NO_CHARGES


@<TRIPOS>ATOM
      1 O           9.0860  -12.5775   24.6160 O.2       1 ALC1        0.0000 
      2 O          10.1660  -12.6970   23.8340 O.2       5 ALL1        0.0000 
      3 O           8.0060  -12.4580   25.3980 O.2       3 ALP1        0.0000 
      4 O          10.2920  -14.2190   23.6705 O.2       1 ALC1        0.0000 
      5 O          10.4180  -15.7410   23.5070 O.2       3 ALP1        0.0000 
      6 O           9.5420  -10.5055   25.0110 O.2       1 ALC1        0.0000 
      7 O          10.8230  -10.7090   24.4120 O.2       5 ALL1        0.0000 
      8 O           8.2610  -10.3020   25.6100 O.2       3 ALP1        0.0000 
      9 O           9.4145  -11.5835   24.9050 O.2       1 ALC1        0.0000 
     10 CA         10.4580  -13.9900   21.3260 C.3       2 GLC5        0.0000 
     11 CA         12.2170  -12.9390   21.7620 C.3       6 GLL5        0.0000 
     12 CA          8.6990  -15.0410   20.8900 C.3       4 GLP5        0.0000 
     13 CA         12.1815  -12.9210   18.8030 C.3       2 GLC5        0.0000 
     14 CA         13.2200  -12.9870   20.7710 C.3       6 GLL5        0.0000 
     15 CA         11.1430  -12.8550   16.8350 C.3       4 GLP5        0.0000 
     16 CA         17.9710  -10.4310   18.9350 C.3       2 GLC5        0.0000 
     17 CA         16.6070  -11.5930   19.7590 C.3       6 GLL5        0.0000 
     18 CA         19.3350   -9.2690   18.1110 C.3       4 GLP5        0.0000 
     19 CA         17.4965  -13.2620   18.9240 C.3       2 GLC5        0.0000 
     20 CA         18.3860  -14.9310   18.0890 C.3       4 GLP5        0.0000 
     21 CA         15.8495   -9.9550   19.2220 C.3       2 GLC5        0.0000 
     22 CA         15.0920   -8.3170   18.6850 C.3       4 GLP5        0.0000 
     23 CA         19.5970  -10.5320   18.9350 C.3       2 GLC5        0.0000 
     24 CA         19.8590  -11.7950   19.7590 C.3       6 GLL5        0.0000 
     25 CA         21.3400  -13.1460   19.3005 C.3       2 GLC5        0.0000 
     26 CA         22.8210  -14.4970   18.8420 C.3       4 GLP5        0.0000 
     27 CA         19.3220  -12.9690   18.3745 C.3       2 GLC5        0.0000 
     28 CA         18.7850  -14.1430   16.9900 C.3       4 GLP5        0.0000 
     29 CA         20.4380  -11.2115   21.4085 C.3       2 GLC5        0.0000 
     30 CA         21.0170  -10.6280   23.0580 C.3       4 GLP5        0.0000 
     31 CA         21.9155  -11.5000   25.9215 C.3       2 GLC5        0.0000 
     32 CA         21.1070  -13.1530   27.1880 C.3       6 GLL5        0.0000 
     33 CA         22.7240   -9.8470   24.6550 C.3       4 GLP5        0.0000 
     34 CA         19.0210  -12.7705   25.5765 C.3       2 GLC5        0.0000 
     35 CA         20.3730  -14.0790   26.4250 C.3       6 GLL5        0.0000 
     36 CA         17.6690  -11.4620   24.7280 C.3       4 GLP5        0.0000 
     37 CA         10.5293  -12.1508   20.9940 C.3       2 GLC5        0.0000 
     38 CA         12.0760  -11.8060   22.6420 C.3       6 GLL5        0.0000 
     39 CA          8.9120  -11.9290   19.7860 C.3       4 GLP5        0.0000 
     40 CA         14.5790   -9.8310   19.8620 C.3       2 GLC5        0.0000 
     41 CA         14.0130  -10.7820   21.4600 C.3       6 GLL5        0.0000 
     42 CA         13.0440   -8.9500   21.7777 C.3       2 GLC5        0.0000 
     43 CA         12.5750   -7.1450   21.5990 C.3       4 GLP5        0.0000 
     44 CA         14.9367  -10.9543   23.0025 C.3       2 GLC5        0.0000 
     45 CA         13.0130  -10.7280   22.4530 C.3       6 GLL5        0.0000 
     46 CA         16.3340  -10.8720   24.2590 C.3       4 GLP5        0.0000 
     47 CA         13.2259  -12.4536   23.9793 C.3       2 GLC5        0.0000 
     48 CA         13.8720  -13.3570   25.6310 C.3       4 GLP5        0.0000 
     49 CA         18.0605  -12.6028   23.2908 C.3       2 GLC5        0.0000 
     50 CA         19.0790  -13.5130   21.5770 C.3       6 GLL5        0.0000 
     51 CA         20.4999  -12.5137   22.7521 C.3       2 GLC5        0.0000 
     52 CA         18.0445  -13.3422   24.0595 C.3       2 GLC5        0.0000 
     53 CA         19.0360  -15.4790   23.6240 C.3       6 GLL5        0.0000 
     54 CA         21.1662  -16.4642   28.1613 C.3       2 GLC5        0.0000 
     55 CA         20.8880  -15.4060   26.2450 C.3       6 GLL5        0.0000 
     56 CA         20.8170  -17.3350   29.7710 C.3       4 GLP5        0.0000 
     57 CA         21.8828  -14.2997   29.1668 C.3       2 GLC5        0.0000 
     58 CA         22.3250  -13.5250   27.7860 C.3       6 GLL5        0.0000 
     59 CA         21.1690  -14.4240   30.6220 C.3       4 GLP5        0.0000 
     60 CA         23.4284  -12.9076   27.5809 C.3       2 GLC5        0.0000 
     61 CA         22.8680  -14.8260   27.6370 C.3       6 GLL5        0.0000 
     62 CA         25.0050  -12.1510   27.7120 C.3       4 GLP5        0.0000 
     63 CA         20.9545  -14.0200   28.7142 C.3       2 GLC5        0.0000 
@<TRIPOS>BOND
@<TRIPOS>SUBSTRUCTURE
     1 ALC1        1 GROUP        1 X    ALC  0     ROOT ALC X 1
     2 GLC5       10 GROUP        1 X    GLC  0     **** GLC X 6
     3 ALP1        3 GROUP        1 Y    ALP  0     ROOT ALP Y 8
     4 GLP5       12 GROUP        1 Y    GLP  0     **** GLP Y 13
     5 ALL1        2 GROUP        1 Z    ALL  0     ROOT ALL Z 15
     6 GLL5       11 GROUP        1 Z    GLL  0     **** GLL Z 20
@<TRIPOS>SET

