#    Name: 1g32_R11_1_ligand
#    Modification time : Tue Mar 25 02:28:30 2014

@<TRIPOS>MOLECULE
1g32_R11_1_ligand
   58    62     1     0     0
SMALL
NO_CHARGES


@<TRIPOS>ATOM
      1 N1         10.1660  -12.6970   23.8340 N.pl3     1 R111        0.0000 
      2 N2         10.8230  -10.7090   24.4120 N.pl3     1 R111        0.0000 
      3 C1         11.0710  -11.7560   23.6370 C.ar      1 R111        0.0000 
      4 C2         12.0760  -11.8060   22.6420 C.ar      1 R111        0.0000 
      5 C3         12.2170  -12.9390   21.7620 C.ar      1 R111        0.0000 
      6 C4         13.2200  -12.9870   20.7710 C.ar      1 R111        0.0000 
      7 C5         14.1190  -11.9080   20.6180 C.ar      1 R111        0.0000 
      8 C6         14.0130  -10.7820   21.4600 C.ar      1 R111        0.0000 
      9 C7         13.0130  -10.7280   22.4530 C.ar      1 R111        0.0000 
     10 N          15.1590  -11.9140   19.6150 N.pl3     1 R111        0.0000 
     11 C          16.6070  -11.5930   19.7590 C.3       1 R111        0.0000 
     12 N3         16.7710  -13.3400   21.5380 N.2       1 R111        0.0000 
     13 C8         17.4550  -12.5180   20.6530 C.2       1 R111        0.0000 
     14 N9         18.8740  -12.5480   20.5970 N.pl3     1 R111        0.0000 
     15 C3A        19.0790  -13.5130   21.5770 C.ar      1 R111        0.0000 
     16 C7A        17.8250  -13.9740   22.1300 C.ar      1 R111        0.0000 
     17 C10        20.3100  -14.0490   22.0620 C.ar      1 R111        0.0000 
     18 C11        20.2710  -15.0180   23.0730 C.ar      1 R111        0.0000 
     19 C12        19.0360  -15.4790   23.6240 C.ar      1 R111        0.0000 
     20 C13        17.8040  -14.9660   23.1580 C.ar      1 R111        0.0000 
     21 C14        19.8590  -11.7950   19.7590 C.3       1 R111        0.0000 
     22 C9         19.0640  -16.5290   24.7460 C.3       1 R111        0.0000 
     23 N4         20.3380  -16.4640   25.5410 N.pl3     1 R111        0.0000 
     24 C15        21.3530  -17.4090   25.8040 C.2       1 R111        0.0000 
     25 N16        22.4750  -17.0940   26.5840 N.2       1 R111        0.0000 
     26 C17        22.1430  -15.7810   26.8580 C.ar      1 R111        0.0000 
     27 C18        20.8880  -15.4060   26.2450 C.ar      1 R111        0.0000 
     28 C19        22.8680  -14.8260   27.6370 C.ar      1 R111        0.0000 
     29 C20        22.3250  -13.5250   27.7860 C.ar      1 R111        0.0000 
     30 C21        21.1070  -13.1530   27.1880 C.ar      1 R111        0.0000 
     31 C22        20.3730  -14.0790   26.4250 C.ar      1 R111        0.0000 
     32 C23        21.2740  -18.8190   25.2420 C.3       1 R111        0.0000 
     33 H           9.4907  -12.5153   24.5488 H         1 R111        0.0000 
     34 H          10.2381  -13.5059   23.2505 H         1 R111        0.0000 
     35 H          11.4271   -9.9209   24.2935 H         1 R111        0.0000 
     36 H          10.0543  -10.8022   25.0448 H         1 R111        0.0000 
     37 H          11.5634  -13.7259   21.8697 H         1 R111        0.0000 
     38 H          13.2972  -13.8043   20.1616 H         1 R111        0.0000 
     39 H          14.6647  -10.0001   21.3502 H         1 R111        0.0000 
     40 H          12.9401   -9.9039   23.0643 H         1 R111        0.0000 
     41 H          14.8628  -12.1859   18.6212 H         1 R111        0.0000 
     42 H          16.7220  -10.5480   20.1485 H         1 R111        0.0000 
     43 H          17.0876  -11.5680   18.7464 H         1 R111        0.0000 
     44 H          21.1875  -13.7273   21.6751 H         1 R111        0.0000 
     45 H          21.1510  -15.4166   23.4373 H         1 R111        0.0000 
     46 H          16.9283  -15.2877   23.5372 H         1 R111        0.0000 
     47 H          18.9555  -17.5216   24.2968 H         1 R111        0.0000 
     48 H          18.2054  -16.3588   25.4037 H         1 R111        0.0000 
     49 H          23.7422  -15.0769   28.0669 H         1 R111        0.0000 
     50 H          22.8436  -12.8311   28.3527 H         1 R111        0.0000 
     51 H          20.7511  -12.1976   27.3097 H         1 R111        0.0000 
     52 H          19.4883  -13.8239   26.0016 H         1 R111        0.0000 
     53 H          20.8012  -12.0567   19.9681 H         1 R111        0.0000 
     54 H          19.7188  -11.9599   18.7827 H         1 R111        0.0000 
     55 H          19.7904  -10.8077   19.9023 H         1 R111        0.0000 
     56 H          22.0643  -19.3703   25.5095 H         1 R111        0.0000 
     57 H          20.4585  -19.3012   25.5620 H         1 R111        0.0000 
     58 H          21.2413  -18.8191   24.2425 H         1 R111        0.0000 
@<TRIPOS>BOND
     1    3    1 ar   
     2   33    1 1    
     3   34    1 1    
     4    3    2 ar   
     5   35    2 1    
     6   36    2 1    
     7    4    3 1    
     8    5    4 ar   
     9    9    4 ar   
    10    6    5 ar   
    11   37    5 1    
    12    7    6 ar   
    13   38    6 1    
    14    8    7 ar   
    15   10    7 1    
    16    9    8 ar   
    17   39    8 1    
    18   40    9 1    
    19   11   10 1    
    20   41   10 1    
    21   13   11 1    
    22   42   11 1    
    23   43   11 1    
    24   13   12 2    
    25   16   12 1    
    26   14   13 1    
    27   15   14 1    
    28   21   14 1    
    29   16   15 ar   
    30   17   15 ar   
    31   20   16 ar   
    32   18   17 ar   
    33   44   17 1    
    34   19   18 ar   
    35   45   18 1    
    36   20   19 ar   
    37   22   19 1    
    38   46   20 1    
    39   53   21 1    
    40   54   21 1    
    41   55   21 1    
    42   23   22 1    
    43   47   22 1    
    44   48   22 1    
    45   24   23 1    
    46   27   23 1    
    47   25   24 2    
    48   32   24 1    
    49   26   25 1    
    50   27   26 ar   
    51   28   26 ar   
    52   31   27 ar   
    53   29   28 ar   
    54   49   28 1    
    55   30   29 ar   
    56   50   29 1    
    57   31   30 ar   
    58   51   30 1    
    59   52   31 1    
    60   56   32 1    
    61   57   32 1    
    62   58   32 1    
@<TRIPOS>SUBSTRUCTURE
     1 R111        1 GROUP   
@<TRIPOS>SET

