#    Name: 4a79_P1B_1_INTS_M
#    Modification time : Tue Mar 25 05:13:01 2014

@<TRIPOS>MOLECULE
4a79_P1B_1_INTS_M
   64     0     3     0     0
SMALL
NO_CHARGES


@<TRIPOS>ATOM
      1 CA         50.5300  155.8415   26.4160 C.3       1 GLC5        0.0000 
      2 CA         52.0760  154.6880   26.7090 C.3       3 GLL5        0.0000 
      3 CA         48.9840  156.9950   26.1230 C.3       2 GLP5        0.0000 
      4 CA         51.1630  156.4475   25.1325 C.3       1 GLC5        0.0000 
      5 CA         53.0010  155.8100   25.6460 C.3       3 GLL5        0.0000 
      6 CA         49.3250  157.0850   24.6190 C.3       2 GLP5        0.0000 
      7 CA         54.9380  156.1395   26.3550 C.3       1 GLC5        0.0000 
      8 CA         56.8750  156.4690   27.0640 C.3       2 GLP5        0.0000 
      9 CA         53.0345  157.7990   25.6725 C.3       1 GLC5        0.0000 
     10 CA         53.0680  159.7880   25.6990 C.3       2 GLP5        0.0000 
     11 CA         52.8250  156.1315   23.6725 C.3       1 GLC5        0.0000 
     12 CA         52.6490  156.4530   21.6990 C.3       2 GLP5        0.0000 
     13 CA         46.3010  161.3710   34.5370 C.3       1 GLC5        0.0000 
     14 CA         47.7110  159.8210   34.4310 C.3       3 GLL5        0.0000 
     15 CA         44.8910  162.9210   34.6430 C.3       2 GLP5        0.0000 
     16 CA         49.7240  156.3880   27.7295 C.3       1 GLC5        0.0000 
     17 CA         50.4640  155.7810   29.3360 C.3       3 GLL5        0.0000 
     18 CA         49.5445  159.3815   28.6220 C.3       1 GLC5        0.0000 
     19 CA         49.8700  160.4280   30.4310 C.3       3 GLL5        0.0000 
     20 CA         49.2190  158.3350   26.8130 C.3       2 GLP5        0.0000 
     21 CA         50.9130  160.9625   28.7180 C.3       1 GLC5        0.0000 
     22 CA         51.9560  161.4970   27.0050 C.3       2 GLP5        0.0000 
     23 CA         50.4585  159.6150   38.1790 C.3       1 GLC5        0.0000 
     24 CA         49.1750  158.7930   37.1220 C.3       3 GLL5        0.0000 
     25 CA         51.7420  160.4370   39.2360 C.3       2 GLP5        0.0000 
     26 CA         47.4705  158.4110   37.5900 C.3       1 GLC5        0.0000 
     27 CA         45.7660  158.0290   38.0580 C.3       2 GLP5        0.0000 
     28 CA         49.2925  156.6210   37.6270 C.3       1 GLC5        0.0000 
     29 CA         49.4100  154.4490   38.1320 C.3       2 GLP5        0.0000 
     30 CA         49.9400  160.8975   37.7245 C.3       1 GLC5        0.0000 
     31 CA         48.6370  160.1880   36.7830 C.3       3 GLL5        0.0000 
     32 CA         51.2430  161.6070   38.6660 C.3       2 GLP5        0.0000 
     33 CA         47.0110  159.7155   37.1135 C.3       1 GLC5        0.0000 
     34 CA         45.3850  159.2430   37.4440 C.3       2 GLP5        0.0000 
     35 CA         50.3700  162.8235   35.9880 C.3       1 GLC5        0.0000 
     36 CA         49.5700  161.3230   34.7060 C.3       3 GLL5        0.0000 
     37 CA         51.1700  164.3240   37.2700 C.3       2 GLP5        0.0000 
     38 CA         46.3710  158.4340   32.4830 C.3       1 GLC5        0.0000 
     39 CA         47.7420  160.0890   33.0660 C.3       3 GLL5        0.0000 
     40 CA         45.0000  156.7790   31.9000 C.3       2 GLP5        0.0000 
     41 CA         48.9215  162.8020   33.8500 C.3       1 GLC5        0.0000 
     42 CA         48.7050  160.9710   32.5720 C.3       3 GLL5        0.0000 
     43 CA         49.1380  164.6330   35.1280 C.3       2 GLP5        0.0000 
     44 CA         49.2142  158.3875   33.5867 C.3       1 GLC5        0.0000 
     45 CA         50.7020  156.8200   33.4250 C.3       2 GLP5        0.0000 
     46 CA         50.6145  157.5033   27.8322 C.3       1 GLC5        0.0000 
     47 CA         52.2920  157.3110   28.8940 C.3       3 GLL5        0.0000 
     48 CA         52.4290  157.1634   30.8809 C.3       1 GLC5        0.0000 
     49 CA         51.5680  158.3380   29.5100 C.3       3 GLL5        0.0000 
     50 CA         53.0690  156.8220   32.5810 C.3       2 GLP5        0.0000 
     51 CA         49.7793  157.9199   28.3340 C.3       1 GLC5        0.0000 
     52 CA         49.7470  156.8010   29.9390 C.3       3 GLL5        0.0000 
     53 CA         49.3042  154.5855   30.0213 C.3       1 GLC5        0.0000 
     54 CA         48.5030  152.8800   30.4050 C.3       2 GLP5        0.0000 
     55 CA         50.4724  156.7152   31.5429 C.3       1 GLC5        0.0000 
     56 CA         49.8455  162.6538   30.4335 C.3       1 GLC5        0.0000 
     57 CA         50.3710  164.4580   30.1100 C.3       2 GLP5        0.0000 
     58 CA         50.6155  159.4783   35.9952 C.3       1 GLC5        0.0000 
     59 CA         52.3250  159.4660   35.0380 C.3       2 GLP5        0.0000 
     60 CA         49.1205  162.7590   35.0568 C.3       1 GLC5        0.0000 
     61 CA         48.6360  160.4470   35.2650 C.3       3 GLL5        0.0000 
     62 CA         50.7140  160.1755   35.0117 C.3       1 GLC5        0.0000 
     63 CA         46.5474  161.6320   32.2874 C.3       1 GLC5        0.0000 
     64 CA         44.8550  162.6590   32.1280 C.3       2 GLP5        0.0000 
@<TRIPOS>BOND
@<TRIPOS>SUBSTRUCTURE
     1 GLC5        1 GROUP        1 X    GLC  0     ROOT GLC X 6
     2 GLP5        3 GROUP        1 Y    GLP  0     ROOT GLP Y 13
     3 GLL5        2 GROUP        1 Z    GLL  0     ROOT GLL Z 20
@<TRIPOS>SET

