#    Name: 4a79_P1B_1_ligand
#    Modification time : Tue Mar 25 05:13:01 2014

@<TRIPOS>MOLECULE
4a79_P1B_1_ligand
   45    47     1     0     0
SMALL
NO_CHARGES


@<TRIPOS>ATOM
      1 O4         52.2780  152.2830   26.7790 O.2       1 P1B601      0.0000 
      2 C4         52.5720  153.3300   26.2080 C.2       1 P1B601      0.0000 
      3 N3         53.3420  153.3640   25.1010 N.am      1 P1B601      0.0000 
      4 C5         52.0760  154.6880   26.7090 C.3       1 P1B601      0.0000 
      5 S1         53.0010  155.8100   25.6460 S.3       1 P1B601      0.0000 
      6 C2         53.7950  154.5860   24.7540 C.2       1 P1B601      0.0000 
      7 O2         54.6650  154.8090   23.9110 O.2       1 P1B601      0.0000 
      8 C6         52.4870  154.8770   28.1570 C.3       1 P1B601      0.0000 
      9 C21        47.7110  159.8210   34.4310 C.ar      1 P1B601      0.0000 
     10 C7         51.7280  156.0320   28.8090 C.ar      1 P1B601      0.0000 
     11 C12        52.2920  157.3110   28.8940 C.ar      1 P1B601      0.0000 
     12 C11        51.5680  158.3380   29.5100 C.ar      1 P1B601      0.0000 
     13 C10        50.2960  158.0790   30.0320 C.ar      1 P1B601      0.0000 
     14 C9         49.7470  156.8010   29.9390 C.ar      1 P1B601      0.0000 
     15 C8         50.4640  155.7810   29.3360 C.ar      1 P1B601      0.0000 
     16 O13        49.5390  159.0360   30.6360 O.3       1 P1B601      0.0000 
     17 C14        49.8700  160.4280   30.4310 C.3       1 P1B601      0.0000 
     18 C15        48.7700  161.2710   31.0830 C.3       1 P1B601      0.0000 
     19 C24        49.1750  158.7930   37.1220 C.3       1 P1B601      0.0000 
     20 C23        48.6370  160.1880   36.7830 C.3       1 P1B601      0.0000 
     21 C20        48.6360  160.4470   35.2650 C.ar      1 P1B601      0.0000 
     22 C19        49.5700  161.3230   34.7060 C.ar      1 P1B601      0.0000 
     23 N18        49.5900  161.5590   33.3970 N.ar      1 P1B601      0.0000 
     24 C22        47.7420  160.0890   33.0660 C.ar      1 P1B601      0.0000 
     25 C17        48.7050  160.9710   32.5720 C.ar      1 P1B601      0.0000 
     26 H          53.5634  152.5338   24.5701 H         1 P1B601      0.0000 
     27 H          51.1137  154.8633   26.4804 H         1 P1B601      0.0000 
     28 H          53.5592  155.0823   28.2072 H         1 P1B601      0.0000 
     29 H          52.2863  153.9591   28.7151 H         1 P1B601      0.0000 
     30 H          47.0210  159.1752   34.8173 H         1 P1B601      0.0000 
     31 H          53.2199  157.4915   28.5112 H         1 P1B601      0.0000 
     32 H          51.9691  159.2785   29.5786 H         1 P1B601      0.0000 
     33 H          48.8086  156.6196   30.3197 H         1 P1B601      0.0000 
     34 H          50.0642  154.8338   29.2757 H         1 P1B601      0.0000 
     35 H          49.9072  160.6792   29.3756 H         1 P1B601      0.0000 
     36 H          50.8154  160.6873   30.8972 H         1 P1B601      0.0000 
     37 H          47.8177  161.0318   30.6216 H         1 P1B601      0.0000 
     38 H          48.9913  162.3224   30.9329 H         1 P1B601      0.0000 
     39 H          49.2579  160.9409   37.2706 H         1 P1B601      0.0000 
     40 H          47.6172  160.2810   37.1591 H         1 P1B601      0.0000 
     41 H          50.2502  161.7849   35.3502 H         1 P1B601      0.0000 
     42 H          47.0728  159.6492   32.4344 H         1 P1B601      0.0000 
     43 H          50.1157  158.6707   36.8055 H         1 P1B601      0.0000 
     44 H          49.1730  158.6236   38.1075 H         1 P1B601      0.0000 
     45 H          48.6273  158.0709   36.6993 H         1 P1B601      0.0000 
@<TRIPOS>BOND
     1    2    1 2    
     2    3    2 am   
     3    4    2 1    
     4    6    3 am   
     5   26    3 1    
     6    5    4 1    
     7    8    4 1    
     8   27    4 1    
     9    6    5 1    
    10    7    6 2    
    11   10    8 1    
    12   28    8 1    
    13   29    8 1    
    14   21    9 ar   
    15   24    9 ar   
    16   30    9 1    
    17   11   10 ar   
    18   15   10 ar   
    19   12   11 ar   
    20   31   11 1    
    21   13   12 ar   
    22   32   12 1    
    23   14   13 ar   
    24   16   13 1    
    25   15   14 ar   
    26   33   14 1    
    27   34   15 1    
    28   17   16 1    
    29   18   17 1    
    30   35   17 1    
    31   36   17 1    
    32   25   18 1    
    33   37   18 1    
    34   38   18 1    
    35   20   19 1    
    36   43   19 1    
    37   44   19 1    
    38   45   19 1    
    39   21   20 1    
    40   39   20 1    
    41   40   20 1    
    42   22   21 ar   
    43   23   22 ar   
    44   41   22 1    
    45   25   23 ar   
    46   25   24 ar   
    47   42   24 1    
@<TRIPOS>SUBSTRUCTURE
     1 P1B601      1 GROUP   
@<TRIPOS>SET

