#    Name: 3kvm_951_2_INTS_M
#    Modification time : Mon Mar 24 20:37:22 2014

@<TRIPOS>MOLECULE
3kvm_951_2_INTS_M
   65     0     9     0     0
SMALL
NO_CHARGES


@<TRIPOS>ATOM
      1 CA         36.4965  -17.3475  -25.1585 C.3       3 GLC5        0.0000 
      2 CA         34.9480  -16.9850  -23.7220 C.3       9 GLL5        0.0000 
      3 CA         38.0450  -17.7100  -26.5950 C.3       6 GLP5        0.0000 
      4 CA         31.4640  -11.7265  -23.8240 C.3       3 GLC5        0.0000 
      5 CA         32.7590  -11.7740  -22.2770 C.3       9 GLL5        0.0000 
      6 CA         30.1690  -11.6790  -25.3710 C.3       6 GLP5        0.0000 
      7 CA         36.3565  -14.9945  -22.2735 C.3       3 GLC5        0.0000 
      8 CA         34.6110  -15.9920  -22.8080 C.3       9 GLL5        0.0000 
      9 CA         38.1020  -13.9970  -21.7390 C.3       6 GLP5        0.0000 
     10 NZ         35.0585  -15.6790  -27.0410 N.4       2 LYC4        0.0000 
     11 NZ         34.4440  -15.6760  -25.6580 N.4       8 LYL4        0.0000 
     12 NZ         35.2510  -16.7160  -29.1350 N.4       5 LYP4        0.0000 
     13 N          35.0585  -15.6790  -27.0410 N.am      1 SEC2        0.0000 
     14 N          34.4440  -15.6760  -25.6580 N.am      7 SEL2        0.0000 
     15 N          35.6730  -15.6820  -28.4240 N.am      4 SEP2        0.0000 
     16 NZ         34.4285  -17.7185  -27.2485 N.4       2 LYC4        0.0000 
     17 NZ         34.4710  -17.8680  -25.8910 N.4       8 LYL4        0.0000 
     18 N          34.4285  -17.7185  -27.2485 N.am      1 SEC2        0.0000 
     19 N          34.4710  -17.8680  -25.8910 N.am      7 SEL2        0.0000 
     20 N          34.3860  -17.5690  -28.6060 N.am      4 SEP2        0.0000 
     21 CA         34.0595   -9.0865  -20.1865 C.3       3 GLC5        0.0000 
     22 CA         32.5880   -7.6730  -19.4970 C.3       9 GLL5        0.0000 
     23 CA         35.5310  -10.5000  -20.8760 C.3       6 GLP5        0.0000 
     24 CA         34.2470   -6.2375  -19.9215 C.3       3 GLC5        0.0000 
     25 CA         35.9060   -4.8020  -20.3460 C.3       6 GLP5        0.0000 
     26 CA         33.6375   -7.4525  -17.6295 C.3       3 GLC5        0.0000 
     27 CA         34.6870   -7.2320  -15.7620 C.3       6 GLP5        0.0000 
     28 CA         31.5180   -7.8785  -17.9195 C.3       3 GLC5        0.0000 
     29 CA         30.4480   -8.0840  -16.3420 C.3       6 GLP5        0.0000 
     30 CA         36.6315  -18.6760  -24.8470 C.3       3 GLC5        0.0000 
     31 CA         35.5480  -18.1610  -23.2760 C.3       9 GLL5        0.0000 
     32 CA         37.7150  -19.1910  -26.4180 C.3       6 GLP5        0.0000 
     33 CA         33.7305   -9.7993  -21.3825 C.3       3 GLC5        0.0000 
     34 CA         31.7500   -8.4350  -22.0020 C.3       9 GLL5        0.0000 
     35 CA         30.0395   -8.7288  -21.5340 C.3       3 GLC5        0.0000 
     36 CA         32.1100   -9.7620  -21.7760 C.3       9 GLL5        0.0000 
     37 CA         28.1490   -8.3590  -21.1790 C.3       6 GLP5        0.0000 
     38 CA         33.2728  -16.7537  -22.4725 C.3       3 GLC5        0.0000 
     39 CA         31.7660  -17.0190  -21.6800 C.3       6 GLP5        0.0000 
     40 CA         30.8618  -12.0772  -19.8027 C.3       3 GLC5        0.0000 
     41 CA         32.6450  -11.6970  -20.9520 C.3       9 GLL5        0.0000 
     42 CA         29.2800  -13.0740  -18.8040 C.3       6 GLP5        0.0000 
     43 CA         34.0661  -10.9636  -21.2076 C.3       3 GLC5        0.0000 
     44 CA         30.3830   -7.5308  -20.1288 C.3       3 GLC5        0.0000 
     45 CA         28.5030   -7.5220  -19.9700 C.3       6 GLP5        0.0000 
     46 CA         37.1025  -16.8340  -21.9707 C.3       3 GLC5        0.0000 
     47 CA         38.5260  -15.4150  -21.3430 C.3       6 GLP5        0.0000 
     48 CA         36.7710  -19.7615  -23.1067 C.3       3 GLC5        0.0000 
     49 CA         35.8100  -18.3450  -21.9210 C.3       9 GLL5        0.0000 
     50 CA         37.8630  -21.2700  -23.6150 C.3       6 GLP5        0.0000 
     51 CA         33.7225  -17.6360  -22.1393 C.3       3 GLC5        0.0000 
     52 CA         30.1700   -8.8167  -24.5838 C.3       3 GLC5        0.0000 
     53 CA         31.2160   -8.1350  -23.2530 C.3       9 GLL5        0.0000 
     54 CA         29.2930  -10.1520  -25.7450 C.3       6 GLP5        0.0000 
     55 CA         29.5980   -7.9203  -22.3008 C.3       3 GLC5        0.0000 
     56 CA         36.8498  -16.0888  -21.2870 C.3       3 GLC5        0.0000 
     57 CA         34.8740  -16.1750  -21.4540 C.3       9 GLL5        0.0000 
     58 CA         33.4698  -16.8908  -21.4555 C.3       3 GLC5        0.0000 
     59 CA         35.4730  -17.3500  -21.0080 C.3       9 GLL5        0.0000 
     60 CA         31.6565   -5.7614  -19.2166 C.3       3 GLC5        0.0000 
     61 CA         31.3810   -4.7040  -17.5810 C.3       6 GLP5        0.0000 
     62 CA         29.9200   -6.7368  -21.0070 C.3       3 GLC5        0.0000 
     63 CA         31.6010   -6.0980  -21.4170 C.3       9 GLL5        0.0000 
     64 CA         36.0203  -19.5408  -20.2922 C.3       3 GLC5        0.0000 
     65 CA         36.3990  -21.2340  -19.1200 C.3       6 GLP5        0.0000 
@<TRIPOS>BOND
@<TRIPOS>SUBSTRUCTURE
     1 SEC2       13 GROUP        1 X    SEC  0     ROOT SEC X 2
     2 LYC4       10 GROUP        1 X    LYC  0     **** LYC X 4
     3 GLC5        1 GROUP        1 X    GLC  0     **** GLC X 6
     4 SEP2       15 GROUP        1 Y    SEP  0     ROOT SEP Y 9
     5 LYP4       12 GROUP        1 Y    LYP  0     **** LYP Y 11
     6 GLP5        3 GROUP        1 Y    GLP  0     **** GLP Y 13
     7 SEL2       14 GROUP        1 Z    SEL  0     ROOT SEL Z 16
     8 LYL4       11 GROUP        1 Z    LYL  0     **** LYL Z 18
     9 GLL5        2 GROUP        1 Z    GLL  0     **** GLL Z 20
@<TRIPOS>SET

