#    Name: 3kvm_951_2_ligand
#    Modification time : Mon Mar 24 20:37:22 2014

@<TRIPOS>MOLECULE
3kvm_951_2_ligand
   36    38     1     0     0
SMALL
NO_CHARGES


@<TRIPOS>ATOM
      1 CAA        32.1100   -9.7620  -21.7760 C.2       1 951402      0.0000 
      2 CAB        34.9480  -16.9850  -23.7220 C.ar      1 951402      0.0000 
      3 OAC        32.4220  -10.5730  -22.8280 O.3       1 951402      0.0000 
      4 CAD        31.7500   -8.4350  -22.0020 C.ar      1 951402      0.0000 
      5 CAE        34.6090  -16.8300  -25.2070 C.2       1 951402      0.0000 
      6 CAF        32.2420  -10.4640  -20.6510 C.2       1 951402      0.0000 
      7 CAG        32.7590  -11.7740  -22.2770 C.2       1 951402      0.0000 
      8 NAH        33.7310  -13.9470  -22.4890 N.2       1 951402      0.0000 
      9 CAI        32.6450  -11.6970  -20.9520 C.2       1 951402      0.0000 
     10 CAJ        33.2580  -12.8340  -23.0230 C.2       1 951402      0.0000 
     11 CAK        34.6110  -15.9920  -22.8080 C.ar      1 951402      0.0000 
     12 CAL        31.9380   -7.4060  -21.0780 C.ar      1 951402      0.0000 
     13 OAM        34.4440  -15.6760  -25.6580 O.co2     1 951402      0.0000 
     14 NAN        34.1020  -14.8390  -23.2460 N.pl3     1 951402      0.0000 
     15 OAO        34.4710  -17.8680  -25.8910 O.co2     1 951402      0.0000 
     16 CLAP       32.5880   -7.6730  -19.4970 Cl        1 951402      0.0000 
     17 CAQ        35.5480  -18.1610  -23.2760 C.ar      1 951402      0.0000 
     18 CAR        31.2160   -8.1350  -23.2530 C.ar      1 951402      0.0000 
     19 CAS        34.8740  -16.1750  -21.4540 C.ar      1 951402      0.0000 
     20 CAT        31.6010   -6.0980  -21.4170 C.ar      1 951402      0.0000 
     21 CAU        35.8100  -18.3450  -21.9210 C.ar      1 951402      0.0000 
     22 CAV        30.8780   -6.8280  -23.5920 C.ar      1 951402      0.0000 
     23 CAW        35.4730  -17.3500  -21.0080 C.ar      1 951402      0.0000 
     24 CAX        31.0730   -5.8050  -22.6710 C.ar      1 951402      0.0000 
     25 H          32.0705  -10.1276  -19.7503 H         1 951402      0.0000 
     26 H          32.8232  -12.4096  -20.3214 H         1 951402      0.0000 
     27 H          33.2470  -12.7169  -24.0820 H         1 951402      0.0000 
     28 H          34.0325  -14.7303  -24.3221 H         1 951402      0.0000 
     29 H          35.7983  -18.8963  -23.9515 H         1 951402      0.0000 
     30 H          31.0687   -8.8945  -23.9394 H         1 951402      0.0000 
     31 H          34.6247  -15.4386  -20.7787 H         1 951402      0.0000 
     32 H          31.7441   -5.3395  -20.7322 H         1 951402      0.0000 
     33 H          36.2512  -19.2136  -21.5959 H         1 951402      0.0000 
     34 H          30.4867   -6.6212  -24.5177 H         1 951402      0.0000 
     35 H          35.6655  -17.4820  -20.0083 H         1 951402      0.0000 
     36 H          30.8291   -4.8386  -22.9139 H         1 951402      0.0000 
@<TRIPOS>BOND
     1    3    1 1    
     2    4    1 1    
     3    6    1 2    
     4    5    2 1    
     5   11    2 ar   
     6   17    2 ar   
     7    7    3 1    
     8   12    4 ar   
     9   18    4 ar   
    10   13    5 ar   
    11   15    5 ar   
    12    9    6 1    
    13   25    6 1    
    14    9    7 2    
    15   10    7 1    
    16   10    8 2    
    17   14    8 1    
    18   26    9 1    
    19   27   10 1    
    20   14   11 1    
    21   19   11 ar   
    22   16   12 1    
    23   20   12 ar   
    24   28   14 1    
    25   21   17 ar   
    26   29   17 1    
    27   22   18 ar   
    28   30   18 1    
    29   23   19 ar   
    30   31   19 1    
    31   24   20 ar   
    32   32   20 1    
    33   23   21 ar   
    34   33   21 1    
    35   24   22 ar   
    36   34   22 1    
    37   35   23 1    
    38   36   24 1    
@<TRIPOS>SUBSTRUCTURE
     1 951402      1 GROUP   
@<TRIPOS>SET

