#    Name: 3u4r_08F_2_INTS_M
#    Modification time : Mon Mar 24 21:38:31 2014

@<TRIPOS>MOLECULE
3u4r_08F_2_INTS_M
   77     0     9     0     0
SMALL
NO_CHARGES


@<TRIPOS>ATOM
      1 CA         24.7265   -4.2365    6.2520 C.3       3 GLC5        0.0000 
      2 CA         24.0540   -2.4720    5.1240 C.3       9 GLL5        0.0000 
      3 CA         25.3990   -6.0010    7.3800 C.3       6 GLP5        0.0000 
      4 CA         23.0215    3.5170    5.2100 C.3       3 GLC5        0.0000 
      5 CA         22.3410    1.7200    4.5410 C.3       9 GLL5        0.0000 
      6 CA         23.7020    5.3140    5.8790 C.3       6 GLP5        0.0000 
      7 CA         24.3345    1.6820    4.6195 C.3       3 GLC5        0.0000 
      8 CA         26.3280    1.6440    4.6980 C.3       6 GLP5        0.0000 
      9 O          26.4075    1.5835   -2.3115 O.2       1 ALC1        0.0000 
     10 O          25.6820    0.6040   -1.6120 O.2       7 ALL1        0.0000 
     11 O          27.1330    2.5630   -3.0110 O.2       4 ALP1        0.0000 
     12 CA         26.8590   -0.8445   -3.7315 C.3       3 GLC5        0.0000 
     13 CA         25.3660   -0.5130   -2.3450 C.3       9 GLL5        0.0000 
     14 CA         28.3520   -1.1760   -5.1180 C.3       6 GLP5        0.0000 
     15 CA         25.5185   -2.9670   -3.1605 C.3       3 GLC5        0.0000 
     16 CA         24.5770   -1.4700   -1.8270 C.3       9 GLL5        0.0000 
     17 CA         26.4600   -4.4640   -4.4940 C.3       6 GLP5        0.0000 
     18 N          26.1875    3.0165    0.6540 N.am      2 SEC2        0.0000 
     19 N          25.5280    1.8220    0.3520 N.am      8 SEL2        0.0000 
     20 N          26.8470    4.2110    0.9560 N.am      5 SEP2        0.0000 
     21 N          16.5245    2.5030    4.3005 N.am      2 SEC2        0.0000 
     22 N          18.0510    2.0130    4.1390 N.am      8 SEL2        0.0000 
     23 N          14.9980    2.9930    4.4620 N.am      5 SEP2        0.0000 
     24 CA         18.8925   -0.2425    4.6520 C.3       3 GLC5        0.0000 
     25 CA         18.7500    1.1230    3.3730 C.3       9 GLL5        0.0000 
     26 CA         19.0350   -1.6080    5.9310 C.3       6 GLP5        0.0000 
     27 CA         20.3110   -0.1245    4.8910 C.3       3 GLC5        0.0000 
     28 CA         20.1470    1.0130    3.4810 C.3       9 GLL5        0.0000 
     29 CA         20.4750   -1.2620    6.3010 C.3       6 GLP5        0.0000 
     30 O          17.4265   -0.9735    2.2445 O.2       1 ALC1        0.0000 
     31 O          18.0550    0.3230    2.4730 O.2       7 ALL1        0.0000 
     32 O          16.7980   -2.2700    2.0160 O.2       4 ALP1        0.0000 
     33 CA         27.2880   -4.7660    4.5625 C.3       3 GLC5        0.0000 
     34 CA         25.2500   -4.6260    3.9320 C.3       9 GLL5        0.0000 
     35 CA         29.3260   -4.9060    5.1930 C.3       6 GLP5        0.0000 
     36 CA         23.2420   -5.4185    4.5255 C.3       3 GLC5        0.0000 
     37 CA         21.2340   -6.2110    5.1190 C.3       6 GLP5        0.0000 
     38 CA         25.3245   -5.3135    5.6560 C.3       3 GLC5        0.0000 
     39 CA         24.4935   -5.7560    2.7840 C.3       3 GLC5        0.0000 
     40 CA         23.7370   -6.8860    1.6360 C.3       6 GLP5        0.0000 
     41 O          16.6515    6.0295    4.8295 O.2       1 ALC1        0.0000 
     42 O          17.8580    6.4510    4.0960 O.2       7 ALL1        0.0000 
     43 O          15.4450    5.6080    5.5630 O.2       4 ALP1        0.0000 
     44 CA         16.3970    9.8070    6.3575 C.3       3 GLC5        0.0000 
     45 CA         16.3400    8.6960    4.7650 C.3       9 GLL5        0.0000 
     46 CA         16.4540   10.9180    7.9500 C.3       6 GLP5        0.0000 
     47 CA         17.4535    8.1735    6.4715 C.3       3 GLC5        0.0000 
     48 CA         18.5670    7.6510    8.1780 C.3       6 GLP5        0.0000 
     49 CA         15.1395    7.6600    5.9330 C.3       3 GLC5        0.0000 
     50 CA         13.9390    6.6240    7.1010 C.3       6 GLP5        0.0000 
     51 CA         26.0915   -1.3175   -0.0663 C.3       3 GLC5        0.0000 
     52 CA         24.3290   -0.2540    0.3160 C.3       9 GLL5        0.0000 
     53 CA         27.9920   -1.8410   -0.0590 C.3       6 GLP5        0.0000 
     54 CA         26.2250   -1.7775    2.9250 C.3       3 GLC5        0.0000 
     55 CA         24.5780   -2.3090    2.7360 C.3       9 GLL5        0.0000 
     56 CA         27.8710   -0.8850    2.5140 C.3       6 GLP5        0.0000 
     57 CA         25.9075   -0.7100    2.3558 C.3       3 GLC5        0.0000 
     58 CA         24.0220   -1.0090    2.7130 C.3       9 GLL5        0.0000 
     59 CA         24.2480   -2.3690    7.0395 C.3       3 GLC5        0.0000 
     60 CA         23.4980   -1.1760    5.1280 C.3       9 GLL5        0.0000 
     61 CA         24.7200   -2.9140    8.9530 C.3       6 GLP5        0.0000 
     62 CA         22.1232   -1.4535    5.5604 C.3       3 GLC5        0.0000 
     63 CA         21.4275    2.6630    6.4642 C.3       3 GLC5        0.0000 
     64 CA         21.2600    3.5540    8.4560 C.3       6 GLP5        0.0000 
     65 CA         21.1120    0.9575    5.9497 C.3       3 GLC5        0.0000 
     66 CA         20.8490    1.8240    4.4040 C.3       9 GLL5        0.0000 
     67 CA         20.6290    0.1430    7.4270 C.3       6 GLP5        0.0000 
     68 CA         26.4818   -1.4163   -1.0725 C.3       3 GLC5        0.0000 
     69 CA         20.7152    7.0785    1.7485 C.3       3 GLC5        0.0000 
     70 CA         20.6130    4.9090    2.0280 C.3       9 GLL5        0.0000 
     71 CA         21.1300    8.8460    0.9740 C.3       6 GLP5        0.0000 
     72 CA         20.3480    3.1555    6.7830 C.3       3 GLC5        0.0000 
     73 CA         20.1240    2.7250    5.1980 C.3       9 GLL5        0.0000 
     74 CA         18.2670    2.4250    6.4870 C.3       3 GLC5        0.0000 
     75 CA         17.0980    2.0930    7.8640 C.3       6 GLP5        0.0000 
     76 CA         20.0325    1.4500    6.2685 C.3       3 GLC5        0.0000 
     77 CA         18.7480    2.7890    5.0220 C.3       9 GLL5        0.0000 
@<TRIPOS>BOND
@<TRIPOS>SUBSTRUCTURE
     1 ALC1        9 GROUP        1 X    ALC  0     ROOT ALC X 1
     2 SEC2       18 GROUP        1 X    SEC  0     **** SEC X 2
     3 GLC5        1 GROUP        1 X    GLC  0     **** GLC X 6
     4 ALP1       11 GROUP        1 Y    ALP  0     ROOT ALP Y 8
     5 SEP2       20 GROUP        1 Y    SEP  0     **** SEP Y 9
     6 GLP5        3 GROUP        1 Y    GLP  0     **** GLP Y 13
     7 ALL1       10 GROUP        1 Z    ALL  0     ROOT ALL Z 15
     8 SEL2       19 GROUP        1 Z    SEL  0     **** SEL Z 16
     9 GLL5        2 GROUP        1 Z    GLL  0     **** GLL Z 20
@<TRIPOS>SET

