#    Name: 3u4r_08F_2_ligand
#    Modification time : Mon Mar 24 21:38:31 2014

@<TRIPOS>MOLECULE
3u4r_08F_2_ligand
   65    69     1     0     0
SMALL
NO_CHARGES


@<TRIPOS>ATOM
      1 S1         17.9680    8.1780    4.2820 S.o2      1 08F579      0.0000 
      2 O1         18.3830    8.8340    3.0660 O.2       1 08F579      0.0000 
      3 O2         18.7660    8.3980    5.4640 O.2       1 08F579      0.0000 
      4 S2         22.3750    4.9640    1.8790 S.o2      1 08F579      0.0000 
      5 O3         22.6000    5.1650    0.4570 O.2       1 08F579      0.0000 
      6 O4         22.7590    5.9020    2.8980 O.2       1 08F579      0.0000 
      7 C1         24.3290   -0.2540    0.3160 C.2       1 08F579      0.0000 
      8 C2         24.5780   -2.3090    2.7360 C.ar      1 08F579      0.0000 
      9 C3         24.5800   -3.0310    3.9360 C.ar      1 08F579      0.0000 
     10 C4         24.0220   -1.0090    2.7130 C.ar      1 08F579      0.0000 
     11 C5         23.4800   -0.4600    3.9030 C.ar      1 08F579      0.0000 
     12 N1         22.9950    0.7940    3.5890 N.pl3     1 08F579      0.0000 
     13 C6         23.2050    1.0590    2.2290 C.2       1 08F579      0.0000 
     14 C7         23.8660   -0.0610    1.6820 C.2       1 08F579      0.0000 
     15 C8         24.0540   -2.4720    5.1240 C.ar      1 08F579      0.0000 
     16 C9         23.4980   -1.1760    5.1280 C.ar      1 08F579      0.0000 
     17 C10        22.7590    2.2710    1.5600 C.2       1 08F579      0.0000 
     18 C11        22.3410    1.7200    4.5410 C.3       1 08F579      0.0000 
     19 O5         22.3010    2.2930    0.4180 O.2       1 08F579      0.0000 
     20 C12        25.2280    0.8220   -0.2950 C.2       1 08F579      0.0000 
     21 N2         25.6820    0.6040   -1.6120 N.am      1 08F579      0.0000 
     22 C13        25.3660   -0.5130   -2.3450 C.2       1 08F579      0.0000 
     23 C14        24.5770   -1.4700   -1.8270 C.2       1 08F579      0.0000 
     24 C15        24.0530   -1.3340   -0.4630 C.2       1 08F579      0.0000 
     25 O6         25.5280    1.8220    0.3520 O.2       1 08F579      0.0000 
     26 N3         22.8880    3.4280    2.3540 N.am      1 08F579      0.0000 
     27 C16        20.6130    4.9090    2.0280 C.ar      1 08F579      0.0000 
     28 C17        20.8490    1.8240    4.4040 C.ar      1 08F579      0.0000 
     29 C18        20.1240    2.7250    5.1980 C.ar      1 08F579      0.0000 
     30 C19        18.7480    2.7890    5.0220 C.ar      1 08F579      0.0000 
     31 N4         18.0510    2.0130    4.1390 N.ar      1 08F579      0.0000 
     32 C20        18.7500    1.1230    3.3730 C.ar      1 08F579      0.0000 
     33 C21        20.1470    1.0130    3.4810 C.ar      1 08F579      0.0000 
     34 N5         18.0550    0.3230    2.4730 N.pl3     1 08F579      0.0000 
     35 CL1        25.2500   -4.6260    3.9320 Cl        1 08F579      0.0000 
     36 C22        19.8760    4.0840    1.1700 C.ar      1 08F579      0.0000 
     37 C23        18.4860    4.0530    1.2890 C.ar      1 08F579      0.0000 
     38 C24        17.8560    4.8420    2.2600 C.ar      1 08F579      0.0000 
     39 C25        18.6020    5.6770    3.1310 C.ar      1 08F579      0.0000 
     40 C26        19.9880    5.7130    3.0180 C.ar      1 08F579      0.0000 
     41 N6         17.8580    6.4510    4.0960 N.pl3     1 08F579      0.0000 
     42 C27        16.3400    8.6960    4.7650 C.3       1 08F579      0.0000 
     43 H          24.9705   -2.7097    1.8873 H         1 08F579      0.0000 
     44 H          24.0781   -3.0180    5.9933 H         1 08F579      0.0000 
     45 H          23.1260   -0.7696    5.9680 H         1 08F579      0.0000 
     46 H          22.7804    2.7389    4.4293 H         1 08F579      0.0000 
     47 H          22.5817    1.4104    5.5850 H         1 08F579      0.0000 
     48 H          26.2936    1.3444   -2.0416 H         1 08F579      0.0000 
     49 H          25.7478   -0.6079   -3.3109 H         1 08F579      0.0000 
     50 H          24.3094   -2.3162   -2.3409 H         1 08F579      0.0000 
     51 H          23.4564   -2.1120   -0.1230 H         1 08F579      0.0000 
     52 H          23.2984    3.4528    3.2820 H         1 08F579      0.0000 
     53 H          20.5963    3.3087    5.8777 H         1 08F579      0.0000 
     54 H          18.2118    3.4875    5.6149 H         1 08F579      0.0000 
     55 H          20.6584    0.3504    2.8964 H         1 08F579      0.0000 
     56 H          17.6964   -0.5374    2.8350 H         1 08F579      0.0000 
     57 H          17.9737    0.6771    1.5414 H         1 08F579      0.0000 
     58 H          20.3496    3.5152    0.4695 H         1 08F579      0.0000 
     59 H          17.9278    3.4579    0.6715 H         1 08F579      0.0000 
     60 H          16.8284    4.8208    2.3497 H         1 08F579      0.0000 
     61 H          20.5531    6.2976    3.6244 H         1 08F579      0.0000 
     62 H          17.2007    6.0705    4.7586 H         1 08F579      0.0000 
     63 H          16.0438    8.2503    5.6097 H         1 08F579      0.0000 
     64 H          16.2957    9.6824    4.9230 H         1 08F579      0.0000 
     65 H          15.6588    8.4804    4.0654 H         1 08F579      0.0000 
@<TRIPOS>BOND
     1    2    1 2    
     2    3    1 2    
     3   41    1 1    
     4   42    1 1    
     5    5    4 2    
     6    6    4 2    
     7   26    4 1    
     8   27    4 1    
     9   14    7 1    
    10   20    7 1    
    11   24    7 2    
    12    9    8 ar   
    13   10    8 ar   
    14   43    8 1    
    15   15    9 ar   
    16   35    9 1    
    17   11   10 ar   
    18   14   10 1    
    19   12   11 1    
    20   16   11 ar   
    21   13   12 1    
    22   18   12 1    
    23   14   13 2    
    24   17   13 1    
    25   16   15 ar   
    26   44   15 1    
    27   45   16 1    
    28   19   17 2    
    29   26   17 am   
    30   28   18 1    
    31   46   18 1    
    32   47   18 1    
    33   21   20 am   
    34   25   20 2    
    35   22   21 1    
    36   48   21 1    
    37   23   22 2    
    38   49   22 1    
    39   24   23 1    
    40   50   23 1    
    41   51   24 1    
    42   52   26 1    
    43   36   27 ar   
    44   40   27 ar   
    45   29   28 ar   
    46   33   28 ar   
    47   30   29 ar   
    48   53   29 1    
    49   31   30 ar   
    50   54   30 1    
    51   32   31 ar   
    52   33   32 ar   
    53   34   32 1    
    54   55   33 1    
    55   56   34 1    
    56   57   34 1    
    57   37   36 ar   
    58   58   36 1    
    59   38   37 ar   
    60   59   37 1    
    61   39   38 ar   
    62   60   38 1    
    63   40   39 ar   
    64   41   39 1    
    65   61   40 1    
    66   62   41 1    
    67   63   42 1    
    68   64   42 1    
    69   65   42 1    
@<TRIPOS>SUBSTRUCTURE
     1 08F579      1 GROUP   
@<TRIPOS>SET

