#    Name: 3uay_ADN_1_INTS_M
#    Modification time : Mon Mar 24 22:06:34 2014

@<TRIPOS>MOLECULE
3uay_ADN_1_INTS_M
   48     0     9     0     0
SMALL
NO_CHARGES


@<TRIPOS>ATOM
      1 CA         41.9530   18.8780   41.2280 C.3       3 GLC5        0.0000 
      2 CA         41.4690   18.1150   42.8670 C.3       9 GLL5        0.0000 
      3 CA         42.4370   19.6410   39.5890 C.3       6 GLP5        0.0000 
      4 CA         42.7150   19.4825   43.6370 C.3       3 GLC5        0.0000 
      5 CA         43.9610   20.8500   44.4070 C.3       6 GLP5        0.0000 
      6 CA         40.8630   18.0215   45.8985 C.3       3 GLC5        0.0000 
      7 CA         42.5570   17.2590   44.9680 C.3       9 GLL5        0.0000 
      8 CA         39.1690   18.7840   46.8290 C.3       6 GLP5        0.0000 
      9 CA         43.2590   19.0545   44.6875 C.3       3 GLC5        0.0000 
     10 O          43.3725   16.3360   47.1625 O.2       1 ALC1        0.0000 
     11 O          42.1030   16.6860   46.1900 O.2       7 ALL1        0.0000 
     12 O          44.6420   15.9860   48.1350 O.2       4 ALP1        0.0000 
     13 O          42.6370   17.1215   47.3345 O.2       1 ALC1        0.0000 
     14 O          43.1710   17.5570   48.4790 O.2       4 ALP1        0.0000 
     15 CA         45.7920   16.5580   44.3430 C.3       3 GLC5        0.0000 
     16 CA         43.8440   16.5750   44.4720 C.3       9 GLL5        0.0000 
     17 CA         47.7400   16.5410   44.2140 C.3       6 GLP5        0.0000 
     18 CA         44.6380   18.3135   44.7695 C.3       3 GLC5        0.0000 
     19 CA         45.4320   20.0520   45.0670 C.3       6 GLP5        0.0000 
     20 N          45.7115   16.7940   45.8450 N.am      2 SEC2        0.0000 
     21 N          44.5810   15.9220   45.4660 N.am      8 SEL2        0.0000 
     22 N          46.8420   17.6660   46.2240 N.am      5 SEP2        0.0000 
     23 O          44.6115   15.9540   46.8005 O.2       1 ALC1        0.0000 
     24 O          44.5810   15.9220   45.4660 O.2       7 ALL1        0.0000 
     25 N          44.2110   14.7070   38.5995 N.am      2 SEC2        0.0000 
     26 N          44.3430   15.4700   39.8680 N.am      8 SEL2        0.0000 
     27 N          44.0790   13.9440   37.3310 N.am      5 SEP2        0.0000 
     28 CA         45.7495   14.7355   40.7280 C.3       3 GLC5        0.0000 
     29 CA         44.8600   16.6820   40.1650 C.3       9 GLL5        0.0000 
     30 CA         46.6390   12.7890   41.2910 C.3       6 GLP5        0.0000 
     31 CA         47.3065   17.9375   38.0470 C.3       3 GLC5        0.0000 
     32 CA         45.5480   17.6830   39.4020 C.3       9 GLL5        0.0000 
     33 CA         49.0650   18.1920   36.6920 C.3       6 GLP5        0.0000 
     34 O          45.4225   16.4875   37.0560 O.2       1 ALC1        0.0000 
     35 O          45.7940   17.5080   38.0910 O.2       7 ALL1        0.0000 
     36 O          45.0510   15.4670   36.0210 O.2       4 ALP1        0.0000 
     37 CA         47.6070   19.0595   41.3430 C.3       3 GLC5        0.0000 
     38 CA         45.7110   18.9420   41.3460 C.3       9 GLL5        0.0000 
     39 CA         49.5030   19.1770   41.3400 C.3       6 GLP5        0.0000 
     40 CA         46.7255   17.7415   42.7800 C.3       3 GLC5        0.0000 
     41 CA         45.5715   19.4970   43.2065 C.3       3 GLC5        0.0000 
     42 CA         46.1785   16.7270   42.8985 C.3       3 GLC5        0.0000 
     43 CA         44.6170   16.9130   41.5830 C.3       9 GLL5        0.0000 
     44 CA         40.0713   18.3612   44.2578 C.3       3 GLC5        0.0000 
     45 CA         41.5560   17.0120   43.8760 C.3       9 GLL5        0.0000 
     46 CA         38.6300   19.1590   45.1440 C.3       6 GLP5        0.0000 
     47 CA         46.4235   15.7003   38.8473 C.3       3 GLC5        0.0000 
     48 CA         47.6430   14.2180   37.9110 C.3       6 GLP5        0.0000 
@<TRIPOS>BOND
@<TRIPOS>SUBSTRUCTURE
     1 ALC1       10 GROUP        1 X    ALC  0     ROOT ALC X 1
     2 SEC2       20 GROUP        1 X    SEC  0     **** SEC X 2
     3 GLC5        1 GROUP        1 X    GLC  0     **** GLC X 6
     4 ALP1       12 GROUP        1 Y    ALP  0     ROOT ALP Y 8
     5 SEP2       22 GROUP        1 Y    SEP  0     **** SEP Y 9
     6 GLP5        3 GROUP        1 Y    GLP  0     **** GLP Y 13
     7 ALL1       11 GROUP        1 Z    ALL  0     ROOT ALL Z 15
     8 SEL2       21 GROUP        1 Z    SEL  0     **** SEL Z 16
     9 GLL5        2 GROUP        1 Z    GLL  0     **** GLL Z 20
@<TRIPOS>SET

