#    Name: 3uay_ADN_1_ligand
#    Modification time : Mon Mar 24 22:06:34 2014

@<TRIPOS>MOLECULE
3uay_ADN_1_ligand
   32    34     1     0     0
SMALL
NO_CHARGES


@<TRIPOS>ATOM
      1 O5'        40.5870   17.7780   41.8180 O.3       1 ADN236      0.0000 
      2 C5'        41.4690   18.1150   42.8670 C.3       1 ADN236      0.0000 
      3 C4'        41.5560   17.0120   43.8760 C.3       1 ADN236      0.0000 
      4 O4'        41.9750   15.7860   43.2210 O.3       1 ADN236      0.0000 
      5 C3'        42.5570   17.2590   44.9680 C.3       1 ADN236      0.0000 
      6 O3'        42.1030   16.6860   46.1900 O.3       1 ADN236      0.0000 
      7 C2'        43.8440   16.5750   44.4720 C.3       1 ADN236      0.0000 
      8 O2'        44.5810   15.9220   45.4660 O.3       1 ADN236      0.0000 
      9 C1'        43.3790   15.6020   43.3710 C.3       1 ADN236      0.0000 
     10 N9         43.9790   15.8490   42.0530 N.pl3     1 ADN236      0.0000 
     11 C8         43.8090   14.9830   41.0030 C.2       1 ADN236      0.0000 
     12 N7         44.3430   15.4700   39.8680 N.2       1 ADN236      0.0000 
     13 C5         44.8600   16.6820   40.1650 C.ar      1 ADN236      0.0000 
     14 C6         45.5480   17.6830   39.4020 C.ar      1 ADN236      0.0000 
     15 N6         45.7940   17.5080   38.0910 N.pl3     1 ADN236      0.0000 
     16 N1         45.9510   18.7790   40.0390 N.ar      1 ADN236      0.0000 
     17 C2         45.7110   18.9420   41.3460 C.ar      1 ADN236      0.0000 
     18 N3         45.0710   18.0670   42.1410 N.ar      1 ADN236      0.0000 
     19 C4         44.6170   16.9130   41.5830 C.ar      1 ADN236      0.0000 
     20 H          41.1441   19.0346   43.3910 H         1 ADN236      0.0000 
     21 H          42.4903   18.3165   42.4899 H         1 ADN236      0.0000 
     22 H          40.5846   16.8541   44.3283 H         1 ADN236      0.0000 
     23 H          42.7444   18.3026   45.0322 H         1 ADN236      0.0000 
     24 H          44.4236   17.3491   43.9542 H         1 ADN236      0.0000 
     25 H          43.5851   14.5995   43.6981 H         1 ADN236      0.0000 
     26 H          43.3516   14.1170   41.0841 H         1 ADN236      0.0000 
     27 H          46.2977   18.2423   37.6360 H         1 ADN236      0.0000 
     28 H          45.4512   16.6592   37.6884 H         1 ADN236      0.0000 
     29 H          46.0624   19.8585   41.8052 H         1 ADN236      0.0000 
     30 H          41.0763   17.0926   41.2788 H         1 ADN236      0.0000 
     31 H          42.6389   17.1385   46.9027 H         1 ADN236      0.0000 
     32 H          44.2149   16.2689   46.3295 H         1 ADN236      0.0000 
@<TRIPOS>BOND
     1    2    1 1    
     2   30    1 1    
     3    3    2 1    
     4   20    2 1    
     5   21    2 1    
     6    4    3 1    
     7    5    3 1    
     8   22    3 1    
     9    9    4 1    
    10    6    5 1    
    11    7    5 1    
    12   23    5 1    
    13   31    6 1    
    14    8    7 1    
    15    9    7 1    
    16   24    7 1    
    17   32    8 1    
    18   10    9 1    
    19   25    9 1    
    20   11   10 1    
    21   19   10 1    
    22   12   11 2    
    23   26   11 1    
    24   13   12 1    
    25   14   13 ar   
    26   19   13 ar   
    27   15   14 1    
    28   16   14 ar   
    29   27   15 1    
    30   28   15 1    
    31   17   16 ar   
    32   18   17 ar   
    33   29   17 1    
    34   19   18 ar   
@<TRIPOS>SUBSTRUCTURE
     1 ADN236      1 GROUP   
@<TRIPOS>SET

