#    Name: 3i0p_NAD_1_INTS_M
#    Modification time : Tue Mar 25 15:25:40 2014

@<TRIPOS>MOLECULE
3i0p_NAD_1_INTS_M
   85     0    12     0     0
SMALL
NO_CHARGES


@<TRIPOS>ATOM
      1 CA         29.1760   27.6740   28.1375 C.3       4 GLC5        0.0000 
      2 CA         27.7760   27.3170   29.8050 C.3      12 GLL5        0.0000 
      3 CA         30.5760   28.0310   26.4700 C.3       8 GLP5        0.0000 
      4 CA         27.6280   29.5750   32.3660 C.3       4 GLC5        0.0000 
      5 CA         28.2570   28.0410   31.0700 C.3      12 GLL5        0.0000 
      6 CA         26.9990   31.1090   33.6620 C.3       8 GLP5        0.0000 
      7 N          29.5050   30.7490   31.4265 N.am      2 SEC2        0.0000 
      8 N          30.0800   29.3940   31.8310 N.am     10 SEL2        0.0000 
      9 N          28.9300   32.1040   31.0220 N.am      6 SEP2        0.0000 
     10 O          31.1100   30.2955   32.2055 O.2       1 ALC1        0.0000 
     11 O          30.0800   29.3940   31.8310 O.2       9 ALL1        0.0000 
     12 O          32.1400   31.1970   32.5800 O.2       5 ALP1        0.0000 
     13 O          31.4550   29.8690   30.9255 O.2       1 ALC1        0.0000 
     14 O          32.8300   30.3440   30.0200 O.2       5 ALP1        0.0000 
     15 N          32.4905   27.8355   33.1680 N.am      2 SEC2        0.0000 
     16 N          31.4750   27.2130   32.5430 N.am     10 SEL2        0.0000 
     17 N          33.5060   28.4580   33.7930 N.am      6 SEP2        0.0000 
     18 O          32.3980   27.1235   31.5755 O.2       1 ALC1        0.0000 
     19 O          31.4750   27.2130   32.5430 O.2       9 ALL1        0.0000 
     20 O          33.3210   27.0340   30.6080 O.2       5 ALP1        0.0000 
     21 N          28.9230   21.8565   33.0540 N.am      2 SEC2        0.0000 
     22 N          28.3850   23.3270   33.5320 N.am     10 SEL2        0.0000 
     23 N          29.4610   20.3860   32.5760 N.am      6 SEP2        0.0000 
     24 CA         30.1470   22.6470   33.7255 C.3       4 GLC5        0.0000 
     25 CA         28.6800   23.7480   34.7840 C.3      12 GLL5        0.0000 
     26 CA         31.6140   21.5460   32.6670 C.3       8 GLP5        0.0000 
     27 CA         30.5940   22.8130   36.5360 C.3       4 GLC5        0.0000 
     28 CA         28.7280   23.1360   36.0410 C.3      12 GLL5        0.0000 
     29 CA         32.4600   22.4900   37.0310 C.3       8 GLP5        0.0000 
     30 CA         30.9165   23.8280   37.0230 C.3       4 GLC5        0.0000 
     31 CA         29.3730   25.1660   37.0150 C.3      12 GLL5        0.0000 
     32 CA         31.1295   25.8255   37.7740 C.3       4 GLC5        0.0000 
     33 CA         32.8860   26.4850   38.5330 C.3       8 GLP5        0.0000 
     34 N          23.1445   30.0425   27.2940 N.am      2 SEC2        0.0000 
     35 N          23.2850   28.7000   26.9960 N.am     10 SEL2        0.0000 
     36 N          23.0040   31.3850   27.5920 N.am      6 SEP2        0.0000 
     37 NZ         23.4030   25.6750   26.3180 N.4       3 LYC4        0.0000 
     38 NZ         24.3560   26.6290   25.7990 N.4      11 LYL4        0.0000 
     39 NZ         22.0030   23.6010   26.2800 N.4       7 LYP4        0.0000 
     40 N          23.4030   25.6750   26.3180 N.am      2 SEC2        0.0000 
     41 N          24.3560   26.6290   25.7990 N.am     10 SEL2        0.0000 
     42 N          22.4500   24.7210   26.8370 N.am      6 SEP2        0.0000 
     43 CA         29.1060   29.3300   25.7430 C.3       4 GLC5        0.0000 
     44 CA         27.6360   30.6290   25.0160 C.3      12 GLL5        0.0000 
     45 CA         29.2020   31.0020   23.5790 C.3       4 GLC5        0.0000 
     46 CA         30.7680   31.3750   22.1420 C.3       8 GLP5        0.0000 
     47 O          28.8055   32.0945   25.8975 O.2       1 ALC1        0.0000 
     48 O          29.0300   30.8570   24.7660 O.2       9 ALL1        0.0000 
     49 O          28.5810   33.3320   27.0290 O.2       5 ALP1        0.0000 
     50 O          29.6905   31.4985   25.6140 O.2       1 ALC1        0.0000 
     51 O          30.3510   32.1400   26.4620 O.2       5 ALP1        0.0000 
     52 CA         25.3765   33.2980   25.1305 C.3       4 GLC5        0.0000 
     53 CA         26.7530   31.7990   24.5820 C.3      12 GLL5        0.0000 
     54 CA         24.0000   34.7970   25.6790 C.3       8 GLP5        0.0000 
     55 N          28.3330   34.1420   24.2550 N.am      2 SEC2        0.0000 
     56 N          27.3920   33.0880   24.5600 N.am     10 SEL2        0.0000 
     57 N          29.2740   35.1960   23.9500 N.am      6 SEP2        0.0000 
     58 O          27.9865   33.2100   25.7945 O.2       1 ALC1        0.0000 
     59 O          27.3920   33.0880   24.5600 O.2       9 ALL1        0.0000 
     60 CA         26.2890   32.1195   20.2810 C.3       4 GLC5        0.0000 
     61 CA         25.2690   33.1000   21.8760 C.3      12 GLL5        0.0000 
     62 CA         27.3090   31.1390   18.6860 C.3       8 GLP5        0.0000 
     63 O          26.8575   35.1010   20.3230 O.2       1 ALC1        0.0000 
     64 O          25.4340   35.3440   20.0840 O.2       9 ALL1        0.0000 
     65 O          28.2810   34.8580   20.5620 O.2       5 ALP1        0.0000 
     66 CA         22.6665   34.6395   23.0525 C.3       4 GLC5        0.0000 
     67 CA         22.8690   33.3180   21.8380 C.3      12 GLL5        0.0000 
     68 CA         22.4640   35.9610   24.2670 C.3       8 GLP5        0.0000 
     69 CA         23.3555   33.9130   23.5810 C.3       4 GLC5        0.0000 
     70 CA         22.7810   32.2360   22.7200 C.3      12 GLL5        0.0000 
     71 CA         23.9300   35.5900   24.4420 C.3       8 GLP5        0.0000 
     72 CA         23.9760   33.2045   24.4135 C.3       4 GLC5        0.0000 
     73 CA         23.9520   31.6120   23.1480 C.3      12 GLL5        0.0000 
     74 CA         28.5343   28.0615   24.7345 C.3       4 GLC5        0.0000 
     75 CA         27.1950   29.4480   24.1610 C.3      12 GLL5        0.0000 
     76 CA         30.1970   27.2280   24.8930 C.3       8 GLP5        0.0000 
     77 CA         26.1857   31.2555   26.7015 C.3       4 GLC5        0.0000 
     78 CA         25.1770   31.2970   28.6040 C.3       8 GLP5        0.0000 
     79 CA         24.3137   34.5097   23.0437 C.3       4 GLC5        0.0000 
     80 CA         20.8685   32.5695   22.6810 C.3       4 GLC5        0.0000 
     81 CA         18.9120   32.3620   23.0830 C.3       8 GLP5        0.0000 
     82 CA         22.1848   31.4750   24.6080 C.3       4 GLC5        0.0000 
     83 CA         21.0030   31.0260   26.2820 C.3       8 GLP5        0.0000 
     84 CA         22.4883   30.1980   22.7570 C.3       4 GLC5        0.0000 
     85 CA         21.6100   28.4720   22.5800 C.3       8 GLP5        0.0000 
@<TRIPOS>BOND
@<TRIPOS>SUBSTRUCTURE
     1 ALC1       10 GROUP        1 X    ALC  0     ROOT ALC X 1
     2 SEC2        7 GROUP        1 X    SEC  0     **** SEC X 2
     3 LYC4       37 GROUP        1 X    LYC  0     **** LYC X 4
     4 GLC5        1 GROUP        1 X    GLC  0     **** GLC X 6
     5 ALP1       12 GROUP        1 Y    ALP  0     ROOT ALP Y 8
     6 SEP2        9 GROUP        1 Y    SEP  0     **** SEP Y 9
     7 LYP4       39 GROUP        1 Y    LYP  0     **** LYP Y 11
     8 GLP5        3 GROUP        1 Y    GLP  0     **** GLP Y 13
     9 ALL1       11 GROUP        1 Z    ALL  0     ROOT ALL Z 15
    10 SEL2        8 GROUP        1 Z    SEL  0     **** SEL Z 16
    11 LYL4       38 GROUP        1 Z    LYL  0     **** LYL Z 18
    12 GLL5        2 GROUP        1 Z    GLL  0     **** GLL Z 20
@<TRIPOS>SET

