#    Name: 3i0p_NAD_1_ligand
#    Modification time : Tue Mar 25 15:25:40 2014

@<TRIPOS>MOLECULE
3i0p_NAD_1_ligand
   70    74     1     0     0
SMALL
NO_CHARGES


@<TRIPOS>ATOM
      1 PA         25.6570   26.1990   28.6970 P.3       1 NAD401      0.0000 
      2 O1A        26.6130   25.3640   27.8800 O.co2     1 NAD401      0.0000 
      3 O2A        24.3720   25.5800   29.1440 O.co2     1 NAD401      0.0000 
      4 O5B        26.4860   26.7040   29.9790 O.3       1 NAD401      0.0000 
      5 C5B        27.7760   27.3170   29.8050 C.3       1 NAD401      0.0000 
      6 C4B        28.2570   28.0410   31.0700 C.3       1 NAD401      0.0000 
      7 O4B        27.9200   27.3190   32.2620 O.3       1 NAD401      0.0000 
      8 C3B        29.7640   28.1890   31.1140 C.3       1 NAD401      0.0000 
      9 O3B        30.0800   29.3940   31.8310 O.3       1 NAD401      0.0000 
     10 C2B        30.2230   26.9790   31.8980 C.3       1 NAD401      0.0000 
     11 O2B        31.4750   27.2130   32.5430 O.3       1 NAD401      0.0000 
     12 C1B        29.1060   26.8370   32.9120 C.3       1 NAD401      0.0000 
     13 N9A        28.8830   25.4490   33.4120 N.pl3     1 NAD401      0.0000 
     14 C8A        28.5060   24.3800   32.6950 C.2       1 NAD401      0.0000 
     15 N7A        28.3850   23.3270   33.5320 N.2       1 NAD401      0.0000 
     16 C5A        28.6800   23.7480   34.7840 C.ar      1 NAD401      0.0000 
     17 C6A        28.7280   23.1360   36.0410 C.ar      1 NAD401      0.0000 
     18 N6A        28.4430   21.8200   36.1920 N.pl3     1 NAD401      0.0000 
     19 N1A        29.0780   23.8640   37.1290 N.ar      1 NAD401      0.0000 
     20 C2A        29.3730   25.1660   37.0150 C.ar      1 NAD401      0.0000 
     21 N3A        29.3290   25.7780   35.8240 N.ar      1 NAD401      0.0000 
     22 C4A        28.9890   25.0910   34.6970 C.ar      1 NAD401      0.0000 
     23 O3         25.3530   27.6180   27.9620 O.3       1 NAD401      0.0000 
     24 PN         24.5020   27.8980   26.6020 P.3       1 NAD401      0.0000 
     25 O1N        23.2850   28.7000   26.9960 O.co2     1 NAD401      0.0000 
     26 O2N        24.3560   26.6290   25.7990 O.co2     1 NAD401      0.0000 
     27 O5D        25.4590   28.8660   25.7570 O.3       1 NAD401      0.0000 
     28 C5D        26.5480   28.3420   24.9910 C.3       1 NAD401      0.0000 
     29 C4D        27.1950   29.4480   24.1610 C.3       1 NAD401      0.0000 
     30 O4D        26.2650   29.9670   23.2060 O.3       1 NAD401      0.0000 
     31 C3D        27.6360   30.6290   25.0160 C.3       1 NAD401      0.0000 
     32 O3D        29.0300   30.8570   24.7660 O.3       1 NAD401      0.0000 
     33 C2D        26.7530   31.7990   24.5820 C.3       1 NAD401      0.0000 
     34 O2D        27.3920   33.0880   24.5600 O.3       1 NAD401      0.0000 
     35 C1D        26.3790   31.3940   23.1740 C.3       1 NAD401      0.0000 
     36 N1N        25.1550   32.0510   22.7210 N.pl3     1 NAD401      0.0000 
     37 C2N        25.2690   33.1000   21.8760 C.ar      1 NAD401      0.0000 
     38 C3N        24.1260   33.7590   21.4150 C.ar      1 NAD401      0.0000 
     39 C7N        24.2320   34.9290   20.4770 C.2       1 NAD401      0.0000 
     40 O7N        23.2050   35.4750   20.0940 O.2       1 NAD401      0.0000 
     41 N7N        25.4340   35.3440   20.0840 N.am      1 NAD401      0.0000 
     42 C4N        22.8690   33.3180   21.8380 C.ar      1 NAD401      0.0000 
     43 C5N        22.7810   32.2360   22.7200 C.ar      1 NAD401      0.0000 
     44 C6N        23.9520   31.6120   23.1480 C.ar      1 NAD401      0.0000 
     45 H          27.7614   28.0574   28.9841 H         1 NAD401      0.0000 
     46 H          28.5441   26.5676   29.5390 H         1 NAD401      0.0000 
     47 H          27.8255   29.0304   31.0967 H         1 NAD401      0.0000 
     48 H          30.1460   28.1550   30.1468 H         1 NAD401      0.0000 
     49 H          30.2070   26.1387   31.2631 H         1 NAD401      0.0000 
     50 H          29.3369   27.4935   33.7530 H         1 NAD401      0.0000 
     51 H          28.3467   24.3609   31.7416 H         1 NAD401      0.0000 
     52 H          28.4743   21.4675   37.1273 H         1 NAD401      0.0000 
     53 H          28.2266   21.3178   35.3548 H         1 NAD401      0.0000 
     54 H          29.6422   25.7138   37.8702 H         1 NAD401      0.0000 
     55 H          26.2153   27.5555   24.3000 H         1 NAD401      0.0000 
     56 H          27.3248   27.9088   25.6357 H         1 NAD401      0.0000 
     57 H          28.0656   29.0516   23.6637 H         1 NAD401      0.0000 
     58 H          27.4282   30.3942   26.0304 H         1 NAD401      0.0000 
     59 H          25.8578   31.7751   25.1650 H         1 NAD401      0.0000 
     60 H          27.2178   31.6753   22.5334 H         1 NAD401      0.0000 
     61 H          26.1964   33.4318   21.5575 H         1 NAD401      0.0000 
     62 H          25.4460   36.0928   19.4214 H         1 NAD401      0.0000 
     63 H          26.2167   34.8696   20.4868 H         1 NAD401      0.0000 
     64 H          22.0212   33.7818   21.5060 H         1 NAD401      0.0000 
     65 H          21.8707   31.9091   23.0448 H         1 NAD401      0.0000 
     66 H          23.8775   30.8073   23.7984 H         1 NAD401      0.0000 
     67 H          31.0739   29.4815   31.7645 H         1 NAD401      0.0000 
     68 H          32.1539   27.1804   31.8095 H         1 NAD401      0.0000 
     69 H          29.2308   31.7343   25.2018 H         1 NAD401      0.0000 
     70 H          27.8439   33.1679   25.4485 H         1 NAD401      0.0000 
@<TRIPOS>BOND
     1    2    1 ar   
     2    3    1 ar   
     3    4    1 1    
     4   23    1 1    
     5    5    4 1    
     6    6    5 1    
     7   45    5 1    
     8   46    5 1    
     9    7    6 1    
    10    8    6 1    
    11   47    6 1    
    12   12    7 1    
    13    9    8 1    
    14   10    8 1    
    15   48    8 1    
    16   67    9 1    
    17   11   10 1    
    18   12   10 1    
    19   49   10 1    
    20   68   11 1    
    21   13   12 1    
    22   50   12 1    
    23   14   13 1    
    24   22   13 1    
    25   15   14 2    
    26   51   14 1    
    27   16   15 1    
    28   17   16 ar   
    29   22   16 ar   
    30   18   17 1    
    31   19   17 ar   
    32   52   18 1    
    33   53   18 1    
    34   20   19 ar   
    35   21   20 ar   
    36   54   20 1    
    37   22   21 ar   
    38   24   23 1    
    39   25   24 ar   
    40   26   24 ar   
    41   27   24 1    
    42   28   27 1    
    43   29   28 1    
    44   55   28 1    
    45   56   28 1    
    46   30   29 1    
    47   31   29 1    
    48   57   29 1    
    49   35   30 1    
    50   32   31 1    
    51   33   31 1    
    52   58   31 1    
    53   69   32 1    
    54   34   33 1    
    55   35   33 1    
    56   59   33 1    
    57   70   34 1    
    58   36   35 1    
    59   60   35 1    
    60   37   36 ar   
    61   44   36 ar   
    62   38   37 ar   
    63   61   37 1    
    64   39   38 1    
    65   42   38 ar   
    66   40   39 2    
    67   41   39 am   
    68   62   41 1    
    69   63   41 1    
    70   43   42 ar   
    71   64   42 1    
    72   44   43 ar   
    73   65   43 1    
    74   66   44 1    
@<TRIPOS>SUBSTRUCTURE
     1 NAD401      1 GROUP   
@<TRIPOS>SET

