#    Name: 1zp4_C2F_1_INTS_M
#    Modification time : Mon Mar 24 17:41:54 2014

@<TRIPOS>MOLECULE
1zp4_C2F_1_INTS_M
   57     0    12     0     0
SMALL
NO_CHARGES


@<TRIPOS>ATOM
      1 N          -4.6785   17.4015   62.1575 N.am      2 SEC2        0.0000 
      2 N          -6.2270   17.5280   62.1740 N.am     10 SEL2        0.0000 
      3 N          -3.1300   17.2750   62.1410 N.am      6 SEP2        0.0000 
      4 O          -7.4480   19.5990   64.7510 O.2       1 ALC1        0.0000 
      5 O          -6.4010   19.3120   63.6380 O.2       9 ALL1        0.0000 
      6 O          -8.4950   19.8860   65.8640 O.2       5 ALP1        0.0000 
      7 O          -9.1820   19.2670   63.4490 O.2       1 ALC1        0.0000 
      8 O          -8.2870   18.5360   62.5480 O.2       9 ALL1        0.0000 
      9 O         -10.0770   19.9980   64.3500 O.2       5 ALP1        0.0000 
     10 CA         -6.3810   13.7785   61.6430 C.3       4 GLC5        0.0000 
     11 CA         -6.5890   14.7350   59.7450 C.3      12 GLL5        0.0000 
     12 CA         -6.1730   12.8220   63.5410 C.3       8 GLP5        0.0000 
     13 O          -4.6650   15.7130   60.6070 O.2       1 ALC1        0.0000 
     14 O          -5.9760   15.6950   60.6900 O.2       9 ALL1        0.0000 
     15 O          -3.3540   15.7310   60.5240 O.2       5 ALP1        0.0000 
     16 CA         -5.4975   17.0510   57.7255 C.3       4 GLC5        0.0000 
     17 CA         -7.4880   16.4330   58.1510 C.3      12 GLL5        0.0000 
     18 CA         -3.5070   17.6690   57.3000 C.3       8 GLP5        0.0000 
     19 CA         -7.5500   18.1385   58.6895 C.3       4 GLC5        0.0000 
     20 CA         -7.6120   19.8440   59.2280 C.3       8 GLP5        0.0000 
     21 CA        -11.2455   13.9565   60.6115 C.3       4 GLC5        0.0000 
     22 CA         -9.3510   14.7520   60.9420 C.3      12 GLL5        0.0000 
     23 CA        -13.1400   13.1610   60.2810 C.3       8 GLP5        0.0000 
     24 CA         -9.1935   13.9295   62.4085 C.3       4 GLC5        0.0000 
     25 CA         -9.0360   13.1070   63.8750 C.3       8 GLP5        0.0000 
     26 CA         -5.7190   17.9805   54.0500 C.3       4 GLC5        0.0000 
     27 CA         -7.4860   18.9820   54.7520 C.3      12 GLL5        0.0000 
     28 CA         -3.9520   16.9790   53.3480 C.3       8 GLP5        0.0000 
     29 CA         -6.4015   20.5535   55.5705 C.3       4 GLC5        0.0000 
     30 CA         -5.3170   22.1250   56.3890 C.3       8 GLP5        0.0000 
     31 CA         -6.6595   16.7740   54.3320 C.3       4 GLC5        0.0000 
     32 CA         -7.4830   18.1340   55.8550 C.3      12 GLL5        0.0000 
     33 CA         -5.8360   15.4140   52.8090 C.3       8 GLP5        0.0000 
     34 CA         -8.8100   21.4050   48.5300 C.3       4 GLC5        0.0000 
     35 CA        -10.1420   20.8070   50.0650 C.3      12 GLL5        0.0000 
     36 CA         -7.4780   22.0030   46.9950 C.3       8 GLP5        0.0000 
     37 NZ        -10.5520   17.2260   47.2315 N.4       3 LYC4        0.0000 
     38 NZ        -10.4830   18.2710   48.4140 N.4      11 LYL4        0.0000 
     39 NZ        -10.6210   16.1810   46.0490 N.4       7 LYP4        0.0000 
     40 N         -10.6280   24.8075   51.5900 N.am      2 SEC2        0.0000 
     41 N         -11.2480   23.6310   51.1440 N.am     10 SEL2        0.0000 
     42 N         -10.0080   25.9840   52.0360 N.am      6 SEP2        0.0000 
     43 CA         -7.7420   16.5665   63.3098 C.3       4 GLC5        0.0000 
     44 CA         -8.1450   16.7070   61.0490 C.3      12 GLL5        0.0000 
     45 CA         -8.0220   16.4520   65.4360 C.3       8 GLP5        0.0000 
     46 CA         -6.9570   13.2935   58.9960 C.3       4 GLC5        0.0000 
     47 CA         -6.6870   11.5540   58.5470 C.3       8 GLP5        0.0000 
     48 CA         -9.1058   17.5963   53.8490 C.3       4 GLC5        0.0000 
     49 CA        -10.1230   15.9770   53.2060 C.3       8 GLP5        0.0000 
     50 CA         -9.1028   16.9585   54.6785 C.3       4 GLC5        0.0000 
     51 CA        -10.0057   17.3060   54.2892 C.3       4 GLC5        0.0000 
     52 CA         -9.8860   18.2110   55.9240 C.3      12 GLL5        0.0000 
     53 CA         -8.8745   22.6502   50.7142 C.3       4 GLC5        0.0000 
     54 CA        -10.0500   21.5920   51.3760 C.3      12 GLL5        0.0000 
     55 CA         -7.6530   24.1010   50.7080 C.3       8 GLP5        0.0000 
     56 CA        -10.0545   18.5805   50.5328 C.3       4 GLC5        0.0000 
     57 CA         -9.4010   16.8690   50.9960 C.3       8 GLP5        0.0000 
@<TRIPOS>BOND
@<TRIPOS>SUBSTRUCTURE
     1 ALC1        4 GROUP        1 X    ALC  0     ROOT ALC X 1
     2 SEC2        1 GROUP        1 X    SEC  0     **** SEC X 2
     3 LYC4       37 GROUP        1 X    LYC  0     **** LYC X 4
     4 GLC5       10 GROUP        1 X    GLC  0     **** GLC X 6
     5 ALP1        6 GROUP        1 Y    ALP  0     ROOT ALP Y 8
     6 SEP2        3 GROUP        1 Y    SEP  0     **** SEP Y 9
     7 LYP4       39 GROUP        1 Y    LYP  0     **** LYP Y 11
     8 GLP5       12 GROUP        1 Y    GLP  0     **** GLP Y 13
     9 ALL1        5 GROUP        1 Z    ALL  0     ROOT ALL Z 15
    10 SEL2        2 GROUP        1 Z    SEL  0     **** SEL Z 16
    11 LYL4       38 GROUP        1 Z    LYL  0     **** LYL Z 18
    12 GLL5       11 GROUP        1 Z    GLL  0     **** GLL Z 20
@<TRIPOS>SET

