#    Name: 1zp4_C2F_1_ligand
#    Modification time : Mon Mar 24 17:41:54 2014

@<TRIPOS>MOLECULE
1zp4_C2F_1_ligand
   56    58     1     0     0
SMALL
NO_CHARGES


@<TRIPOS>ATOM
      1 N1         -6.2270   17.5280   62.1740 N.2       1 C2F995      0.0000 
      2 C2         -6.9690   18.4630   62.7870 C.2       1 C2F995      0.0000 
      3 NA2        -6.4010   19.3120   63.6380 N.pl3     1 C2F995      0.0000 
      4 N3         -8.2870   18.5360   62.5480 N.am      1 C2F995      0.0000 
      5 C4         -8.8870   17.6870   61.7020 C.2       1 C2F995      0.0000 
      6 O4        -10.2290   17.7740   61.5010 O.2       1 C2F995      0.0000 
      7 C4A        -8.1450   16.7070   61.0490 C.2       1 C2F995      0.0000 
      8 N5         -8.7440   15.8680   60.2000 N.pl3     1 C2F995      0.0000 
      9 C6         -7.8650   15.3310   59.1450 C.3       1 C2F995      0.0000 
     10 C7         -6.5890   14.7350   59.7450 C.3       1 C2F995      0.0000 
     11 N8         -5.9760   15.6950   60.6900 N.pl3     1 C2F995      0.0000 
     12 C8A        -6.7790   16.6550   61.3180 C.2       1 C2F995      0.0000 
     13 C9         -7.4880   16.4330   58.1510 C.3       1 C2F995      0.0000 
     14 N10        -8.7090   16.9520   57.5160 N.pl3     1 C2F995      0.0000 
     15 C11        -9.3510   14.7520   60.9420 C.3       1 C2F995      0.0000 
     16 C12        -8.6910   19.4490   54.2320 C.ar      1 C2F995      0.0000 
     17 C13        -7.4860   18.9820   54.7520 C.ar      1 C2F995      0.0000 
     18 C14        -7.4830   18.1340   55.8550 C.ar      1 C2F995      0.0000 
     19 C15        -8.6820   17.7460   56.4470 C.ar      1 C2F995      0.0000 
     20 C16        -9.8860   18.2110   55.9240 C.ar      1 C2F995      0.0000 
     21 C17        -9.8910   19.0590   54.8210 C.ar      1 C2F995      0.0000 
     22 C          -8.6860   20.4010   53.0340 C.2       1 C2F995      0.0000 
     23 O          -7.6290   20.8560   52.5990 O.2       1 C2F995      0.0000 
     24 N          -9.8800   20.6840   52.5210 N.am      1 C2F995      0.0000 
     25 CA        -10.0500   21.5920   51.3760 C.3       1 C2F995      0.0000 
     26 CB        -10.1420   20.8070   50.0650 C.3       1 C2F995      0.0000 
     27 CG        -11.2740   19.7770   50.0740 C.3       1 C2F995      0.0000 
     28 CD        -11.3870   19.0800   48.7170 C.2       1 C2F995      0.0000 
     29 OE1       -12.3750   19.3740   48.0090 O.co2     1 C2F995      0.0000 
     30 OE2       -10.4830   18.2710   48.4140 O.co2     1 C2F995      0.0000 
     31 CT        -11.2990   22.4560   51.5690 C.2       1 C2F995      0.0000 
     32 O1        -12.2770   21.9210   52.1350 O.co2     1 C2F995      0.0000 
     33 O2        -11.2480   23.6310   51.1440 O.co2     1 C2F995      0.0000 
     34 H          -5.4401   19.5297   63.4669 H         1 C2F995      0.0000 
     35 H          -6.9860   19.6562   64.3724 H         1 C2F995      0.0000 
     36 H          -8.8600   19.2736   63.0339 H         1 C2F995      0.0000 
     37 H          -8.3749   14.5487   58.5966 H         1 C2F995      0.0000 
     38 H          -5.8992   14.5048   58.9322 H         1 C2F995      0.0000 
     39 H          -6.8477   13.8070   60.2563 H         1 C2F995      0.0000 
     40 H          -4.9828   15.6291   60.8569 H         1 C2F995      0.0000 
     41 H          -6.8146   16.0101   57.4078 H         1 C2F995      0.0000 
     42 H          -6.9679   17.2211   58.6923 H         1 C2F995      0.0000 
     43 H          -9.6046   16.6525   57.9648 H         1 C2F995      0.0000 
     44 H          -6.5968   19.2652   54.3190 H         1 C2F995      0.0000 
     45 H          -6.5893   17.7912   56.2360 H         1 C2F995      0.0000 
     46 H         -10.7762   17.9256   56.3560 H         1 C2F995      0.0000 
     47 H         -10.7840   19.3993   54.4389 H         1 C2F995      0.0000 
     48 H         -10.7629   20.2782   52.9015 H         1 C2F995      0.0000 
     49 H          -9.1934   22.2595   51.3069 H         1 C2F995      0.0000 
     50 H          -9.1909   20.2919   49.8891 H         1 C2F995      0.0000 
     51 H         -10.3031   21.5085   49.2387 H         1 C2F995      0.0000 
     52 H         -12.2132   20.2787   50.2992 H         1 C2F995      0.0000 
     53 H         -11.0761   19.0337   50.8439 H         1 C2F995      0.0000 
     54 H          -8.6692   14.2368   61.4613 H         1 C2F995      0.0000 
     55 H         -10.0379   15.0704   61.5953 H         1 C2F995      0.0000 
     56 H          -9.8056   14.1037   60.3313 H         1 C2F995      0.0000 
@<TRIPOS>BOND
     1    2    1 2    
     2   12    1 1    
     3    3    2 1    
     4    4    2 1    
     5   34    3 1    
     6   35    3 1    
     7    5    4 am   
     8   36    4 1    
     9    6    5 2    
    10    7    5 1    
    11    8    7 1    
    12   12    7 2    
    13    9    8 1    
    14   15    8 1    
    15   10    9 1    
    16   13    9 1    
    17   37    9 1    
    18   11   10 1    
    19   38   10 1    
    20   39   10 1    
    21   12   11 1    
    22   40   11 1    
    23   14   13 1    
    24   41   13 1    
    25   42   13 1    
    26   19   14 1    
    27   43   14 1    
    28   54   15 1    
    29   55   15 1    
    30   56   15 1    
    31   17   16 ar   
    32   21   16 ar   
    33   22   16 1    
    34   18   17 ar   
    35   44   17 1    
    36   19   18 ar   
    37   45   18 1    
    38   20   19 ar   
    39   21   20 ar   
    40   46   20 1    
    41   47   21 1    
    42   23   22 2    
    43   24   22 am   
    44   25   24 1    
    45   48   24 1    
    46   26   25 1    
    47   31   25 1    
    48   49   25 1    
    49   27   26 1    
    50   50   26 1    
    51   51   26 1    
    52   28   27 1    
    53   52   27 1    
    54   53   27 1    
    55   29   28 ar   
    56   30   28 ar   
    57   32   31 ar   
    58   33   31 ar   
@<TRIPOS>SUBSTRUCTURE
     1 C2F995      1 GROUP   
@<TRIPOS>SET

