#    Name: 3nxo_D2B_1_INTS_M
#    Modification time : Tue Mar 25 02:54:00 2014

@<TRIPOS>MOLECULE
3nxo_D2B_1_INTS_M
   58     0     9     0     0
SMALL
NO_CHARGES


@<TRIPOS>ATOM
      1 CA         18.5360    8.8190    3.9670 C.3       3 GLC5        0.0000 
      2 CA         17.8910    6.8630    3.7910 C.3       9 GLL5        0.0000 
      3 CA         19.1810   10.7750    4.1430 C.3       6 GLP5        0.0000 
      4 CA         19.8660    7.1360    3.1870 C.3       3 GLC5        0.0000 
      5 CA         21.8410    7.4090    2.5830 C.3       6 GLP5        0.0000 
      6 CA         18.8455    5.2400    4.2430 C.3       3 GLC5        0.0000 
      7 CA         19.8000    3.6170    4.6950 C.3       6 GLP5        0.0000 
      8 CA         16.1570    7.7515    3.8815 C.3       3 GLC5        0.0000 
      9 CA         14.4230    8.6400    3.9720 C.3       6 GLP5        0.0000 
     10 N          16.5100    5.1465    4.7720 N.am      2 SEC2        0.0000 
     11 N          16.8680    5.9390    3.7380 N.am      8 SEL2        0.0000 
     12 N          16.1520    4.3540    5.8060 N.am      5 SEP2        0.0000 
     13 CA         19.8660    7.2935    2.0455 C.3       3 GLC5        0.0000 
     14 CA         17.8910    7.1780    1.5080 C.3       9 GLL5        0.0000 
     15 CA         15.8550    1.5840   -1.7600 C.3       3 GLC5        0.0000 
     16 CA         14.2450    2.1620   -2.8100 C.3       9 GLL5        0.0000 
     17 CA         17.4650    1.0060   -0.7100 C.3       6 GLP5        0.0000 
     18 O          20.0625    7.0445    4.9740 O.2       1 ALC1        0.0000 
     19 O          18.3820    7.1350    5.0000 O.2       7 ALL1        0.0000 
     20 O          21.7430    6.9540    4.9480 O.2       4 ALP1        0.0000 
     21 O          17.8330    6.4360    6.0925 O.2       1 ALC1        0.0000 
     22 O          17.2840    5.7370    7.1850 O.2       4 ALP1        0.0000 
     23 O          19.7195    8.6985    0.7115 O.2       1 ALC1        0.0000 
     24 O          18.4640    7.8490    0.4940 O.2       7 ALL1        0.0000 
     25 O          20.9750    9.5480    0.9290 O.2       4 ALP1        0.0000 
     26 CA         17.9755    5.8810   -1.5205 C.3       3 GLC5        0.0000 
     27 CA         15.9300    6.2520   -0.9910 C.3       9 GLL5        0.0000 
     28 CA         20.0210    5.5100   -2.0500 C.3       6 GLP5        0.0000 
     29 CA         12.3875    6.6105   -3.9150 C.3       3 GLC5        0.0000 
     30 CA         12.4810    6.5950   -1.6690 C.3       9 GLL5        0.0000 
     31 CA         12.2940    6.6260   -6.1610 C.3       6 GLP5        0.0000 
     32 CA         15.5970    3.0220    1.1165 C.3       3 GLC5        0.0000 
     33 CA         14.9380    5.0850    0.9690 C.3       9 GLL5        0.0000 
     34 CA         16.2560    0.9590    1.2640 C.3       6 GLP5        0.0000 
     35 CA         15.1345    8.9665   -1.8225 C.3       3 GLC5        0.0000 
     36 CA         15.7100    7.9530   -3.5200 C.3       9 GLL5        0.0000 
     37 CA         14.5590    9.9800   -0.1250 C.3       6 GLP5        0.0000 
     38 CA         14.0920    9.4935   -3.4290 C.3       3 GLC5        0.0000 
     39 CA         12.4740   11.0340   -3.3380 C.3       6 GLP5        0.0000 
     40 CA         16.5025    9.4355   -3.7305 C.3       3 GLC5        0.0000 
     41 CA         17.2950   10.9180   -3.9410 C.3       6 GLP5        0.0000 
     42 CA         15.8169    7.6265    2.8546 C.3       3 GLC5        0.0000 
     43 CA         16.7780    6.3020    1.3740 C.3       9 GLL5        0.0000 
     44 CA         13.7045    6.3768   -5.0405 C.3       3 GLC5        0.0000 
     45 CA         15.2780    5.5660   -4.4420 C.3       9 GLL5        0.0000 
     46 CA         14.9757    8.1060   -0.7893 C.3       3 GLC5        0.0000 
     47 CA         14.8550    6.2120   -1.9160 C.3       9 GLL5        0.0000 
     48 CA         10.4755    5.8190   -3.6345 C.3       3 GLC5        0.0000 
     49 CA         11.1680    6.1160   -1.6290 C.3       9 GLL5        0.0000 
     50 CA          9.8940    6.2130   -5.6070 C.3       6 GLP5        0.0000 
     51 CA         10.4100    3.5388   -3.4115 C.3       3 GLC5        0.0000 
     52 CA         10.9460    4.7340   -1.6950 C.3       9 GLL5        0.0000 
     53 CA          9.3420    2.7900   -5.0520 C.3       6 GLP5        0.0000 
     54 CA         11.1653    8.0152   -2.4205 C.3       3 GLC5        0.0000 
     55 CA         10.5060    9.6750   -3.1920 C.3       6 GLP5        0.0000 
     56 CA         16.6257    7.0721   -4.9975 C.3       3 GLC5        0.0000 
     57 CA         14.9520    6.6890   -3.3980 C.3       9 GLL5        0.0000 
     58 CA         17.8390    7.1040   -6.2750 C.3       6 GLP5        0.0000 
@<TRIPOS>BOND
@<TRIPOS>SUBSTRUCTURE
     1 ALC1       18 GROUP        1 X    ALC  0     ROOT ALC X 1
     2 SEC2       10 GROUP        1 X    SEC  0     **** SEC X 2
     3 GLC5        1 GROUP        1 X    GLC  0     **** GLC X 6
     4 ALP1       20 GROUP        1 Y    ALP  0     ROOT ALP Y 8
     5 SEP2       12 GROUP        1 Y    SEP  0     **** SEP Y 9
     6 GLP5        3 GROUP        1 Y    GLP  0     **** GLP Y 13
     7 ALL1       19 GROUP        1 Z    ALL  0     ROOT ALL Z 15
     8 SEL2       11 GROUP        1 Z    SEL  0     **** SEL Z 16
     9 GLL5        2 GROUP        1 Z    GLL  0     **** GLL Z 20
@<TRIPOS>SET

