#    Name: 3nxo_D2B_1_ligand
#    Modification time : Tue Mar 25 02:54:00 2014

@<TRIPOS>MOLECULE
3nxo_D2B_1_ligand
   44    46     1     0     0
SMALL
NO_CHARGES


@<TRIPOS>ATOM
      1 N1         18.3990    7.4850    2.7330 N.ar      1 D2B187      0.0000 
      2 C2         17.8910    6.8630    3.7910 C.ar      1 D2B187      0.0000 
      3 N3         16.8680    5.9390    3.7380 N.ar      1 D2B187      0.0000 
      4 C4         16.2830    5.7940    2.5590 C.ar      1 D2B187      0.0000 
      5 C5         16.7780    6.3020    1.3740 C.ar      1 D2B187      0.0000 
      6 C6         17.8910    7.1780    1.5080 C.ar      1 D2B187      0.0000 
      7 CAB        14.2450    2.1620   -2.8100 C.3       1 D2B187      0.0000 
      8 CAC        15.2780    5.5660   -4.4420 C.3       1 D2B187      0.0000 
      9 NAD        18.3820    7.1350    5.0000 N.pl3     1 D2B187      0.0000 
     10 NAE        18.4640    7.8490    0.4940 N.pl3     1 D2B187      0.0000 
     11 CAF        15.9300    6.2520   -0.9910 C.2       1 D2B187      0.0000 
     12 CAG        10.9460    4.7340   -1.6950 C.ar      1 D2B187      0.0000 
     13 CAH        11.1680    6.1160   -1.6290 C.ar      1 D2B187      0.0000 
     14 CAI        12.0100    3.8410   -1.8470 C.ar      1 D2B187      0.0000 
     15 CAJ        12.4810    6.5950   -1.6690 C.ar      1 D2B187      0.0000 
     16 CAK        14.9380    5.0850    0.9690 C.2       1 D2B187      0.0000 
     17 CAL        15.7100    7.9530   -3.5200 C.3       1 D2B187      0.0000 
     18 OAO        14.4180    3.4600   -2.0810 O.3       1 D2B187      0.0000 
     19 OAP        15.2270    4.9440    2.3660 O.3       1 D2B187      0.0000 
     20 CAQ        14.8550    6.2120   -1.9160 C.2       1 D2B187      0.0000 
     21 CAS        15.8310    5.9140    0.3830 C.2       1 D2B187      0.0000 
     22 CAU        13.3400    4.3240   -1.9300 C.ar      1 D2B187      0.0000 
     23 CAV        13.5610    5.7090   -1.7710 C.ar      1 D2B187      0.0000 
     24 CAY        14.9520    6.6890   -3.3980 C.3       1 D2B187      0.0000 
     25 H          17.9551    6.6552    5.7665 H         1 D2B187      0.0000 
     26 H          19.1331    7.7944    5.0317 H         1 D2B187      0.0000 
     27 H          19.4283    8.0859    0.6125 H         1 D2B187      0.0000 
     28 H          17.8749    8.0513   -0.2883 H         1 D2B187      0.0000 
     29 H          16.8729    6.5557   -1.3520 H         1 D2B187      0.0000 
     30 H           9.9815    4.3719   -1.6302 H         1 D2B187      0.0000 
     31 H          10.3835    6.7610   -1.5530 H         1 D2B187      0.0000 
     32 H          11.8376    2.8328   -1.8995 H         1 D2B187      0.0000 
     33 H          12.6568    7.6086   -1.6231 H         1 D2B187      0.0000 
     34 H          14.1992    4.6328    0.5482 H         1 D2B187      0.0000 
     35 H          13.8401    6.9788   -3.6453 H         1 D2B187      0.0000 
     36 H          15.0959    1.6377   -2.8419 H         1 D2B187      0.0000 
     37 H          13.5583    1.5801   -2.3744 H         1 D2B187      0.0000 
     38 H          13.9522    2.3033   -3.7557 H         1 D2B187      0.0000 
     39 H          16.2376    5.2876   -4.4005 H         1 D2B187      0.0000 
     40 H          14.7277    4.7452   -4.2886 H         1 D2B187      0.0000 
     41 H          15.1004    5.8670   -5.3789 H         1 D2B187      0.0000 
     42 H          16.6943    7.8068   -3.4213 H         1 D2B187      0.0000 
     43 H          15.5660    8.3881   -4.4088 H         1 D2B187      0.0000 
     44 H          15.4408    8.6164   -2.8218 H         1 D2B187      0.0000 
@<TRIPOS>BOND
     1    2    1 ar   
     2    6    1 ar   
     3    3    2 ar   
     4    9    2 1    
     5    4    3 ar   
     6    5    4 ar   
     7   19    4 1    
     8    6    5 ar   
     9   21    5 1    
    10   10    6 1    
    11   18    7 1    
    12   36    7 1    
    13   37    7 1    
    14   38    7 1    
    15   24    8 1    
    16   39    8 1    
    17   40    8 1    
    18   41    8 1    
    19   25    9 1    
    20   26    9 1    
    21   27   10 1    
    22   28   10 1    
    23   20   11 2    
    24   21   11 1    
    25   29   11 1    
    26   13   12 ar   
    27   14   12 ar   
    28   30   12 1    
    29   15   13 ar   
    30   31   13 1    
    31   22   14 ar   
    32   32   14 1    
    33   23   15 ar   
    34   33   15 1    
    35   19   16 1    
    36   21   16 2    
    37   34   16 1    
    38   24   17 1    
    39   42   17 1    
    40   43   17 1    
    41   44   17 1    
    42   22   18 1    
    43   23   20 1    
    44   24   20 1    
    45   23   22 ar   
    46   35   24 1    
@<TRIPOS>SUBSTRUCTURE
     1 D2B187      1 GROUP   
@<TRIPOS>SET

