#    Name: 4l23_X6K_1_INTS_M
#    Modification time : Tue Mar 25 09:24:00 2014

@<TRIPOS>MOLECULE
4l23_X6K_1_INTS_M
   76     0     9     0     0
SMALL
NO_CHARGES


@<TRIPOS>ATOM
      1 CA         37.1405   47.7750   44.3140 C.3       3 GLC5        0.0000 
      2 CA         36.1900   49.1380   43.1080 C.3       9 GLL5        0.0000 
      3 CA         38.0910   46.4120   45.5200 C.3       6 GLP5        0.0000 
      4 CA         34.4955   47.0160   45.1730 C.3       3 GLC5        0.0000 
      5 CA         34.2820   47.8910   43.4020 C.3       9 GLL5        0.0000 
      6 CA         34.7090   46.1410   46.9440 C.3       6 GLP5        0.0000 
      7 CA         28.2750   43.3410   43.6220 C.3       3 GLC5        0.0000 
      8 CA         29.2840   45.0540   44.3740 C.3       9 GLL5        0.0000 
      9 CA         27.2660   41.6280   42.8700 C.3       6 GLP5        0.0000 
     10 CA         27.9935   45.0185   42.9540 C.3       3 GLC5        0.0000 
     11 CA         26.7030   44.9830   41.5340 C.3       6 GLP5        0.0000 
     12 CA         27.7490   42.9075   45.4560 C.3       3 GLC5        0.0000 
     13 CA         28.9610   44.5000   45.7630 C.3       9 GLL5        0.0000 
     14 CA         26.5370   41.3150   45.1490 C.3       6 GLP5        0.0000 
     15 CA         27.7015   46.1550   46.1870 C.3       3 GLC5        0.0000 
     16 CA         26.4420   47.8100   46.6110 C.3       6 GLP5        0.0000 
     17 CA         28.2820   44.0525   47.3680 C.3       3 GLC5        0.0000 
     18 CA         27.6030   43.6050   48.9730 C.3       6 GLP5        0.0000 
     19 CA         30.0685   42.9905   46.7720 C.3       3 GLC5        0.0000 
     20 CA         31.1760   41.4810   47.7810 C.3       6 GLP5        0.0000 
     21 N          28.2685   46.0040   47.5845 N.am      2 SEC2        0.0000 
     22 N          29.0970   45.5070   46.7810 N.am      8 SEL2        0.0000 
     23 N          27.4400   46.5010   48.3880 N.am      5 SEP2        0.0000 
     24 CA         29.3205   45.4855   48.2515 C.3       3 GLC5        0.0000 
     25 CA         30.2880   46.3120   46.7300 C.3       9 GLL5        0.0000 
     26 CA         28.3530   44.6590   49.7730 C.3       6 GLP5        0.0000 
     27 CA         30.9365   48.9790   45.5495 C.3       3 GLC5        0.0000 
     28 CA         30.5560   46.8240   45.3180 C.3       9 GLL5        0.0000 
     29 CA         31.3170   51.1340   45.7810 C.3       6 GLP5        0.0000 
     30 CA         29.8695   47.9935   43.6705 C.3       3 GLC5        0.0000 
     31 CA         29.1830   49.1630   42.0230 C.3       6 GLP5        0.0000 
     32 CA         32.9265   44.4200   41.8835 C.3       3 GLC5        0.0000 
     33 CA         31.5430   45.2350   40.9030 C.3       9 GLL5        0.0000 
     34 CA         34.3100   43.6050   42.8640 C.3       6 GLP5        0.0000 
     35 CA         29.8365   45.5855   36.1000 C.3       3 GLC5        0.0000 
     36 CA         30.6410   44.0300   37.4060 C.3       9 GLL5        0.0000 
     37 CA         29.0320   47.1410   34.7940 C.3       6 GLP5        0.0000 
     38 CA         28.3225   42.8840   36.4850 C.3       3 GLC5        0.0000 
     39 CA         29.8420   42.9350   37.7090 C.3       9 GLL5        0.0000 
     40 CA         26.8030   42.8330   35.2610 C.3       6 GLP5        0.0000 
     41 N          29.0750   41.0995   40.7315 N.am      2 SEC2        0.0000 
     42 N          28.8270   41.5300   39.3310 N.am      8 SEL2        0.0000 
     43 N          29.3230   40.6690   42.1320 N.am      5 SEP2        0.0000 
     44 O          29.1035   40.6320   38.5915 O.2       1 ALC1        0.0000 
     45 O          28.8270   41.5300   39.3310 O.2       7 ALL1        0.0000 
     46 O          29.3800   39.7340   37.8520 O.2       4 ALP1        0.0000 
     47 CA         31.4050   42.5165   41.4760 C.3       3 GLC5        0.0000 
     48 CA         30.1590   43.3570   40.0500 C.3       9 GLL5        0.0000 
     49 CA         32.6510   41.6760   42.9020 C.3       6 GLP5        0.0000 
     50 CA         34.4183   49.7530   41.6178 C.3       3 GLC5        0.0000 
     51 CA         36.2790   48.8060   41.7450 C.3       9 GLL5        0.0000 
     52 CA         32.6020   50.5340   40.8090 C.3       6 GLP5        0.0000 
     53 CA         34.3135   45.6555   42.7762 C.3       3 GLC5        0.0000 
     54 CA         34.3520   47.5210   41.9750 C.3       9 GLL5        0.0000 
     55 CA         30.5575   47.6715   42.6015 C.3       3 GLC5        0.0000 
     56 CA         32.5490   46.5860   43.1060 C.3       9 GLL5        0.0000 
     57 CA         32.9440   45.3680   44.8835 C.3       3 GLC5        0.0000 
     58 CA         31.3150   45.7740   43.2540 C.3       9 GLL5        0.0000 
     59 CA         33.9560   44.5560   46.5870 C.3       6 GLP5        0.0000 
     60 CA         33.2387   48.8828   41.4691 C.3       3 GLC5        0.0000 
     61 CA         33.1850   46.6450   41.7820 C.3       9 GLL5        0.0000 
     62 CA         33.2005   44.8999   42.8565 C.3       3 GLC5        0.0000 
     63 CA         30.5817   43.3695   44.6668 C.3       3 GLC5        0.0000 
     64 CA         32.0410   41.9620   44.2650 C.3       6 GLP5        0.0000 
     65 CA         28.4320   47.1890   46.3175 C.3       3 GLC5        0.0000 
     66 CA         32.1890   45.5620   46.3055 C.3       3 GLC5        0.0000 
     67 CA         29.3055   45.0282   38.8725 C.3       3 GLC5        0.0000 
     68 CA         30.9510   44.4620   39.7640 C.3       9 GLL5        0.0000 
     69 CA         27.5400   45.4350   38.6460 C.3       6 GLP5        0.0000 
     70 CA         28.8907   44.4588   38.1017 C.3       3 GLC5        0.0000 
     71 CA         32.2465   42.9189   38.3952 C.3       3 GLC5        0.0000 
     72 CA         33.6370   41.5120   38.5380 C.3       6 GLP5        0.0000 
     73 CA         28.7110   44.2078   39.0932 C.3       3 GLC5        0.0000 
     74 CA         29.6050   42.6040   39.0310 C.3       9 GLL5        0.0000 
     75 CA         31.2546   41.7506   38.9880 C.3       3 GLC5        0.0000 
     76 CA         32.5680   40.4380   38.7660 C.3       6 GLP5        0.0000 
@<TRIPOS>BOND
@<TRIPOS>SUBSTRUCTURE
     1 ALC1       44 GROUP        1 X    ALC  0     ROOT ALC X 1
     2 SEC2       21 GROUP        1 X    SEC  0     **** SEC X 2
     3 GLC5        1 GROUP        1 X    GLC  0     **** GLC X 6
     4 ALP1       46 GROUP        1 Y    ALP  0     ROOT ALP Y 8
     5 SEP2       23 GROUP        1 Y    SEP  0     **** SEP Y 9
     6 GLP5        3 GROUP        1 Y    GLP  0     **** GLP Y 13
     7 ALL1       45 GROUP        1 Z    ALL  0     ROOT ALL Z 15
     8 SEL2       22 GROUP        1 Z    SEL  0     **** SEL Z 16
     9 GLL5        2 GROUP        1 Z    GLL  0     **** GLL Z 20
@<TRIPOS>SET

