#    Name: 4l23_X6K_1_ligand
#    Modification time : Tue Mar 25 09:24:00 2014

@<TRIPOS>MOLECULE
4l23_X6K_1_ligand
   42    46     1     0     0
SMALL
NO_CHARGES


@<TRIPOS>ATOM
      1 N01        35.2160   48.7030   43.9310 N.ar      1 X6K1101     0.0000 
      2 C02        36.1900   49.1380   43.1080 C.ar      1 X6K1101     0.0000 
      3 C03        36.2790   48.8060   41.7450 C.ar      1 X6K1101     0.0000 
      4 C04        35.3470   47.9690   41.1260 C.ar      1 X6K1101     0.0000 
      5 C05        34.3520   47.5210   41.9750 C.ar      1 X6K1101     0.0000 
      6 C06        34.2820   47.8910   43.4020 C.ar      1 X6K1101     0.0000 
      7 O07        33.2250   47.3270   44.0080 O.3       1 X6K1101     0.0000 
      8 C08        32.5490   46.5860   43.1060 C.ar      1 X6K1101     0.0000 
      9 C09        33.1850   46.6450   41.7820 C.ar      1 X6K1101     0.0000 
     10 N10        32.6810   45.9770   40.7210 N.ar      1 X6K1101     0.0000 
     11 C11        31.3150   45.7740   43.2540 C.ar      1 X6K1101     0.0000 
     12 N12        30.6330   45.6180   44.4880 N.3       1 X6K1101     0.0000 
     13 C13        29.2840   45.0540   44.3740 C.3       1 X6K1101     0.0000 
     14 C14        28.9610   44.5000   45.7630 C.3       1 X6K1101     0.0000 
     15 O15        29.0970   45.5070   46.7810 O.3       1 X6K1101     0.0000 
     16 C16        30.2880   46.3120   46.7300 C.3       1 X6K1101     0.0000 
     17 C17        30.5560   46.8240   45.3180 C.3       1 X6K1101     0.0000 
     18 N18        30.9120   45.1370   42.1210 N.ar      1 X6K1101     0.0000 
     19 C19        31.5430   45.2350   40.9030 C.ar      1 X6K1101     0.0000 
     20 C20        30.9510   44.4620   39.7640 C.ar      1 X6K1101     0.0000 
     21 C21        31.1910   44.7810   38.4340 C.ar      1 X6K1101     0.0000 
     22 C22        30.6410   44.0300   37.4060 C.ar      1 X6K1101     0.0000 
     23 C23        29.8420   42.9350   37.7090 C.ar      1 X6K1101     0.0000 
     24 C24        29.6050   42.6040   39.0310 C.ar      1 X6K1101     0.0000 
     25 O25        28.8270   41.5300   39.3310 O.3       1 X6K1101     0.0000 
     26 C26        30.1590   43.3570   40.0500 C.ar      1 X6K1101     0.0000 
     27 H          36.9504   49.7737   43.4911 H         1 X6K1101     0.0000 
     28 H          37.0615   49.1959   41.1849 H         1 X6K1101     0.0000 
     29 H          35.4005   47.7253   40.1729 H         1 X6K1101     0.0000 
     30 H          29.2573   44.2474   43.6670 H         1 X6K1101     0.0000 
     31 H          28.5643   45.8113   44.1296 H         1 X6K1101     0.0000 
     32 H          29.6358   43.6480   45.9489 H         1 X6K1101     0.0000 
     33 H          27.9353   44.0966   45.7323 H         1 X6K1101     0.0000 
     34 H          31.1723   45.7394   47.0542 H         1 X6K1101     0.0000 
     35 H          30.2087   47.1866   47.3961 H         1 X6K1101     0.0000 
     36 H          29.7408   47.4520   45.0170 H         1 X6K1101     0.0000 
     37 H          31.4852   47.3588   45.3143 H         1 X6K1101     0.0000 
     38 H          31.7920   45.5950   38.2063 H         1 X6K1101     0.0000 
     39 H          30.8225   44.2808   36.4277 H         1 X6K1101     0.0000 
     40 H          29.4298   42.3747   36.9524 H         1 X6K1101     0.0000 
     41 H          29.9837   43.0973   41.0357 H         1 X6K1101     0.0000 
     42 H          28.7395   41.0259   38.4718 H         1 X6K1101     0.0000 
@<TRIPOS>BOND
     1    2    1 ar   
     2    6    1 ar   
     3    3    2 ar   
     4   27    2 1    
     5    4    3 ar   
     6   28    3 1    
     7    5    4 ar   
     8   29    4 1    
     9    6    5 ar   
    10    9    5 1    
    11    7    6 1    
    12    8    7 1    
    13    9    8 ar   
    14   11    8 ar   
    15   10    9 ar   
    16   19   10 ar   
    17   12   11 1    
    18   18   11 ar   
    19   13   12 1    
    20   17   12 1    
    21   14   13 1    
    22   30   13 1    
    23   31   13 1    
    24   15   14 1    
    25   32   14 1    
    26   33   14 1    
    27   16   15 1    
    28   17   16 1    
    29   34   16 1    
    30   35   16 1    
    31   36   17 1    
    32   37   17 1    
    33   19   18 ar   
    34   20   19 1    
    35   21   20 ar   
    36   26   20 ar   
    37   22   21 ar   
    38   38   21 1    
    39   23   22 ar   
    40   39   22 1    
    41   24   23 ar   
    42   40   23 1    
    43   25   24 1    
    44   26   24 ar   
    45   42   25 1    
    46   41   26 1    
@<TRIPOS>SUBSTRUCTURE
     1 X6K1101     1 GROUP   
@<TRIPOS>SET

