#    Name: 3hky_IX6_1_INTS_M
#    Modification time : Tue Mar 25 14:28:50 2014

@<TRIPOS>MOLECULE
3hky_IX6_1_INTS_M
   64     0     9     0     0
SMALL
NO_CHARGES


@<TRIPOS>ATOM
      1 CA        -21.7945   -9.3095   30.2090 C.3       3 GLC5        0.0000 
      2 CA        -22.4730   -8.0580   28.6180 C.3       9 GLL5        0.0000 
      3 CA        -21.1160  -10.5610   31.8000 C.3       6 GLP5        0.0000 
      4 CA        -27.1465   -9.2885   29.4975 C.3       3 GLC5        0.0000 
      5 CA        -25.9050   -7.5850   29.4360 C.3       9 GLL5        0.0000 
      6 CA        -28.3880  -10.9920   29.5590 C.3       6 GLP5        0.0000 
      7 CA        -27.0125   -9.3880   33.2315 C.3       3 GLC5        0.0000 
      8 CA        -24.8830   -9.0210   32.8360 C.3       9 GLL5        0.0000 
      9 CA        -29.1420   -9.7550   33.6270 C.3       6 GLP5        0.0000 
     10 CA        -28.8275   -6.0135   33.5230 C.3       3 GLC5        0.0000 
     11 CA        -27.5460   -4.7180   32.7690 C.3       9 GLL5        0.0000 
     12 CA        -30.1090   -7.3090   34.2770 C.3       6 GLP5        0.0000 
     13 CA        -26.4230   -5.0340   34.6425 C.3       3 GLC5        0.0000 
     14 CA        -25.3000   -5.3500   36.5160 C.3       6 GLP5        0.0000 
     15 CA        -27.7440  -12.7195   36.0825 C.3       3 GLC5        0.0000 
     16 CA        -26.4480  -11.6600   34.9110 C.3       9 GLL5        0.0000 
     17 CA        -29.0400  -13.7790   37.2540 C.3       6 GLP5        0.0000 
     18 CA        -27.1890  -11.6785   32.7905 C.3       3 GLC5        0.0000 
     19 CA        -27.9300  -11.6970   30.6700 C.3       6 GLP5        0.0000 
     20 O         -20.5210   -5.2500   31.7945 O.2       1 ALC1        0.0000 
     21 O         -21.7470   -5.0430   31.2170 O.2       7 ALL1        0.0000 
     22 O         -19.2950   -5.4570   32.3720 O.2       4 ALP1        0.0000 
     23 CA        -23.9430   -6.9055   22.8550 C.3       3 GLC5        0.0000 
     24 CA        -22.0150   -6.7640   23.1450 C.3       9 GLL5        0.0000 
     25 CA        -25.8710   -7.0470   22.5650 C.3       6 GLP5        0.0000 
     26 CA        -25.4705  -11.2660   27.6795 C.3       3 GLC5        0.0000 
     27 CA        -25.1450  -10.2140   28.9500 C.3       9 GLL5        0.0000 
     28 CA        -25.7960  -12.3180   26.4090 C.3       6 GLP5        0.0000 
     29 CA        -26.7665  -10.6030   29.2545 C.3       3 GLC5        0.0000 
     30 CA        -22.5735  -10.8070   33.3005 C.3       3 GLC5        0.0000 
     31 CA        -24.0310  -11.0530   34.8010 C.3       9 GLL5        0.0000 
     32 CA        -22.4795  -10.2435   35.8465 C.3       3 GLC5        0.0000 
     33 CA        -20.9280   -9.4340   36.8920 C.3       6 GLP5        0.0000 
     34 CA        -24.9155  -11.7690   37.4245 C.3       3 GLC5        0.0000 
     35 CA        -25.6390  -10.1680   36.6650 C.3       9 GLL5        0.0000 
     36 CA        -24.1920  -13.3700   38.1840 C.3       6 GLP5        0.0000 
     37 CA        -24.9485   -8.5105   37.3665 C.3       3 GLC5        0.0000 
     38 CA        -24.2580   -6.8530   38.0680 C.3       6 GLP5        0.0000 
     39 N         -29.4400   -7.8090   29.4290 N.am      2 SEC2        0.0000 
     40 N         -28.6580   -7.0540   30.5320 N.am      8 SEL2        0.0000 
     41 N         -30.2220   -8.5640   28.3260 N.am      5 SEP2        0.0000 
     42 N         -29.0050   -6.7070   27.1185 N.am      2 SEC2        0.0000 
     43 N         -28.3570   -5.9640   28.3620 N.am      8 SEL2        0.0000 
     44 N         -29.6530   -7.4500   25.8750 N.am      5 SEP2        0.0000 
     45 CA        -28.1365   -0.2150   31.6580 C.3       3 GLC5        0.0000 
     46 CA        -27.9070   -2.4120   31.8310 C.3       9 GLL5        0.0000 
     47 CA        -28.3660    1.9820   31.4850 C.3       6 GLP5        0.0000 
     48 CA        -29.8500   -2.5445   32.6630 C.3       3 GLC5        0.0000 
     49 CA        -31.7930   -2.6770   33.4950 C.3       6 GLP5        0.0000 
     50 CA        -20.4392   -8.6118   30.7195 C.3       3 GLC5        0.0000 
     51 CA        -20.9700   -6.8890   30.0110 C.3       9 GLL5        0.0000 
     52 CA        -19.7910   -9.8280   31.8650 C.3       6 GLP5        0.0000 
     53 CA        -20.4490   -6.1547   31.9483 C.3       3 GLC5        0.0000 
     54 CA        -19.4180   -5.8490   33.7150 C.3       6 GLP5        0.0000 
     55 CA        -22.9127  -10.1158   32.2302 C.3       3 GLC5        0.0000 
     56 CA        -22.9767  -10.4100   31.2402 C.3       3 GLC5        0.0000 
     57 CA        -24.6120  -10.7000   31.1520 C.3       9 GLL5        0.0000 
     58 CA        -27.5348  -10.5385   34.3985 C.3       3 GLC5        0.0000 
     59 CA        -25.4070  -10.9840   35.4290 C.3       9 GLL5        0.0000 
     60 CA        -24.8625   -6.6152   24.2793 C.3       3 GLC5        0.0000 
     61 CA        -24.0840   -6.8280   26.0350 C.3       9 GLL5        0.0000 
     62 CA        -24.4496  -12.9467   34.8438 C.3       3 GLC5        0.0000 
     63 CA        -23.9200  -14.7060   34.7020 C.3       6 GLP5        0.0000 
     64 CA        -24.5856  -12.2788   36.5847 C.3       3 GLC5        0.0000 
@<TRIPOS>BOND
@<TRIPOS>SUBSTRUCTURE
     1 ALC1       20 GROUP        1 X    ALC  0     ROOT ALC X 1
     2 SEC2       39 GROUP        1 X    SEC  0     **** SEC X 2
     3 GLC5        1 GROUP        1 X    GLC  0     **** GLC X 6
     4 ALP1       22 GROUP        1 Y    ALP  0     ROOT ALP Y 8
     5 SEP2       41 GROUP        1 Y    SEP  0     **** SEP Y 9
     6 GLP5        3 GROUP        1 Y    GLP  0     **** GLP Y 13
     7 ALL1       21 GROUP        1 Z    ALL  0     ROOT ALL Z 15
     8 SEL2       40 GROUP        1 Z    SEL  0     **** SEL Z 16
     9 GLL5        2 GROUP        1 Z    GLL  0     **** GLL Z 20
@<TRIPOS>SET

