#    Name: 3hky_IX6_1_ligand
#    Modification time : Tue Mar 25 14:28:51 2014

@<TRIPOS>MOLECULE
3hky_IX6_1_ligand
   71    75     1     0     0
SMALL
NO_CHARGES


@<TRIPOS>ATOM
      1 C1        -20.9700   -6.8890   30.0110 C.ar      1 IX6579      0.0000 
      2 C2        -21.2050   -7.9020   29.1370 C.ar      1 IX6579      0.0000 
      3 C3        -22.4730   -8.0580   28.6180 C.ar      1 IX6579      0.0000 
      4 C4        -23.5340   -7.1800   28.9510 C.ar      1 IX6579      0.0000 
      5 C5        -23.2880   -6.1760   29.8640 C.ar      1 IX6579      0.0000 
      6 C6        -21.9900   -6.0320   30.3520 C.ar      1 IX6579      0.0000 
      7 C8        -25.9050   -7.5850   29.4360 C.3       1 IX6579      0.0000 
      8 C15       -26.1560   -3.8790   30.8510 C.3       1 IX6579      0.0000 
      9 C16       -25.3220   -8.1380   31.8820 C.ar      1 IX6579      0.0000 
     10 C17       -25.4360   -8.5240   30.5520 C.ar      1 IX6579      0.0000 
     11 C18       -24.8830   -9.0210   32.8360 C.ar      1 IX6579      0.0000 
     12 C19       -24.5360  -10.3200   32.4850 C.ar      1 IX6579      0.0000 
     13 C21       -25.0630   -9.8180   30.2090 C.ar      1 IX6579      0.0000 
     14 C24       -27.5460   -4.7180   32.7690 C.3       1 IX6579      0.0000 
     15 C27       -26.4480  -11.6600   34.9110 C.3       1 IX6579      0.0000 
     16 O29       -21.7470   -5.0430   31.2170 O.3       1 IX6579      0.0000 
     17 C32       -24.9730   -7.4020   27.0590 C.2       1 IX6579      0.0000 
     18 C34       -24.0840   -6.8280   26.0350 C.2       1 IX6579      0.0000 
     19 C35       -23.6240   -5.5390   25.9520 C.2       1 IX6579      0.0000 
     20 C37       -22.8310   -6.5350   24.3970 C.2       1 IX6579      0.0000 
     21 C39       -22.0150   -6.7640   23.1450 C.3       1 IX6579      0.0000 
     22 C40       -23.9460   -4.3930   26.8730 C.3       1 IX6579      0.0000 
     23 F41       -25.1450  -10.2140   28.9500 F         1 IX6579      0.0000 
     24 C20       -24.6120  -10.7000   31.1520 C.ar      1 IX6579      0.0000 
     25 O23       -24.0910  -11.2300   33.3940 O.3       1 IX6579      0.0000 
     26 C22       -24.0310  -11.0530   34.8010 C.3       1 IX6579      0.0000 
     27 C26       -25.4070  -10.9840   35.4290 C.2       1 IX6579      0.0000 
     28 C28       -25.6390  -10.1680   36.6650 C.2       1 IX6579      0.0000 
     29 N7        -24.8310   -7.4100   28.4360 N.am      1 IX6579      0.0000 
     30 N38       -23.5490   -7.4900   25.0150 N.2       1 IX6579      0.0000 
     31 O36       -22.9170   -5.4460   24.9610 O.3       1 IX6579      0.0000 
     32 O33       -25.9560   -7.9970   26.6830 O.2       1 IX6579      0.0000 
     33 C9        -26.3580   -6.2160   29.8950 C.2       1 IX6579      0.0000 
     34 S12       -28.0750   -5.9750   29.7770 S.o2      1 IX6579      0.0000 
     35 O30       -28.6580   -7.0540   30.5320 O.2       1 IX6579      0.0000 
     36 O31       -28.3570   -5.9640   28.3620 O.2       1 IX6579      0.0000 
     37 C13       -28.5470   -4.3920   30.4660 C.3       1 IX6579      0.0000 
     38 C14       -27.5460   -3.8600   31.5060 C.3       1 IX6579      0.0000 
     39 C25       -27.9070   -2.4120   31.8310 C.3       1 IX6579      0.0000 
     40 C10       -25.5880   -5.1890   30.3150 C.2       1 IX6579      0.0000 
     41 N11       -24.1990   -5.2020   30.2910 N.pl3     1 IX6579      0.0000 
     42 H         -20.0303   -6.7564   30.4225 H         1 IX6579      0.0000 
     43 H         -20.4539   -8.5487   28.8602 H         1 IX6579      0.0000 
     44 H         -22.6730   -8.8390   27.9607 H         1 IX6579      0.0000 
     45 H         -26.7562   -8.0687   28.9270 H         1 IX6579      0.0000 
     46 H         -25.4190   -3.4488   31.5897 H         1 IX6579      0.0000 
     47 H         -26.1579   -3.1237   30.0123 H         1 IX6579      0.0000 
     48 H         -25.5740   -7.1677   32.1494 H         1 IX6579      0.0000 
     49 H         -24.8072   -8.7256   33.8243 H         1 IX6579      0.0000 
     50 H         -24.3244  -11.6555   30.8802 H         1 IX6579      0.0000 
     51 H         -23.4911  -10.1224   35.0701 H         1 IX6579      0.0000 
     52 H         -23.4786  -11.8806   35.2907 H         1 IX6579      0.0000 
     53 H         -29.5180   -4.5890   30.8835 H         1 IX6579      0.0000 
     54 H         -28.6217   -3.7622   29.5978 H         1 IX6579      0.0000 
     55 H         -23.7232   -4.2774   30.6785 H         1 IX6579      0.0000 
     56 H         -27.3163   -5.6708   32.5707 H         1 IX6579      0.0000 
     57 H         -26.8818   -4.3901   33.4408 H         1 IX6579      0.0000 
     58 H         -28.4399   -4.7192   33.2172 H         1 IX6579      0.0000 
     59 H         -26.6418  -11.3800   33.9708 H         1 IX6579      0.0000 
     60 H         -26.2796  -12.6456   34.8946 H         1 IX6579      0.0000 
     61 H         -27.2849  -11.5144   35.4386 H         1 IX6579      0.0000 
     62 H         -21.5539   -5.9291   22.8443 H         1 IX6579      0.0000 
     63 H         -21.3067   -7.4560   23.2847 H         1 IX6579      0.0000 
     64 H         -22.5830   -7.0756   22.3833 H         1 IX6579      0.0000 
     65 H         -23.6723   -4.5856   27.8153 H         1 IX6579      0.0000 
     66 H         -23.4786   -3.5528   26.5979 H         1 IX6579      0.0000 
     67 H         -24.9255   -4.1922   26.8876 H         1 IX6579      0.0000 
     68 H         -27.2506   -1.9982   32.4618 H         1 IX6579      0.0000 
     69 H         -27.9252   -1.8406   31.0105 H         1 IX6579      0.0000 
     70 H         -28.8085   -2.3408   32.2578 H         1 IX6579      0.0000 
     71 H         -20.8210   -5.2150   31.5531 H         1 IX6579      0.0000 
@<TRIPOS>BOND
     1    2    1 ar   
     2    6    1 ar   
     3   42    1 1    
     4    3    2 ar   
     5   43    2 1    
     6    4    3 ar   
     7   44    3 1    
     8    5    4 ar   
     9   29    4 1    
    10    6    5 ar   
    11   41    5 1    
    12   16    6 1    
    13   10    7 1    
    14   29    7 1    
    15   33    7 1    
    16   45    7 1    
    17   38    8 1    
    18   40    8 1    
    19   46    8 1    
    20   47    8 1    
    21   10    9 ar   
    22   11    9 ar   
    23   48    9 1    
    24   13   10 ar   
    25   12   11 ar   
    26   49   11 1    
    27   24   12 ar   
    28   25   12 1    
    29   23   13 1    
    30   24   13 ar   
    31   38   14 1    
    32   56   14 1    
    33   57   14 1    
    34   58   14 1    
    35   27   15 1    
    36   59   15 1    
    37   60   15 1    
    38   61   15 1    
    39   71   16 1    
    40   18   17 1    
    41   29   17 am   
    42   32   17 2    
    43   19   18 2    
    44   30   18 1    
    45   22   19 1    
    46   31   19 1    
    47   21   20 1    
    48   30   20 2    
    49   31   20 1    
    50   62   21 1    
    51   63   21 1    
    52   64   21 1    
    53   65   22 1    
    54   66   22 1    
    55   67   22 1    
    56   50   24 1    
    57   26   25 1    
    58   27   26 1    
    59   51   26 1    
    60   52   26 1    
    61   28   27 2    
    62   34   33 1    
    63   40   33 2    
    64   35   34 2    
    65   36   34 2    
    66   37   34 1    
    67   38   37 1    
    68   53   37 1    
    69   54   37 1    
    70   39   38 1    
    71   68   39 1    
    72   69   39 1    
    73   70   39 1    
    74   41   40 1    
    75   55   41 1    
@<TRIPOS>SUBSTRUCTURE
     1 IX6579      1 GROUP   
@<TRIPOS>SET

