#    Name: 1lhw_ESM_1_INTS_M
#    Modification time : Tue Mar 25 11:09:02 2014

@<TRIPOS>MOLECULE
1lhw_ESM_1_INTS_M
   83     0     9     0     0
SMALL
NO_CHARGES


@<TRIPOS>ATOM
      1 CA         21.6020    7.6370   32.0380 C.3       3 GLC5        0.0000 
      2 CA         20.5540    9.0130   33.4050 C.3       9 GLL5        0.0000 
      3 CA         22.6500    6.2610   30.6710 C.3       6 GLP5        0.0000 
      4 CA         21.8955    7.2635   33.5290 C.3       3 GLC5        0.0000 
      5 CA         23.2370    5.5140   33.6530 C.3       6 GLP5        0.0000 
      6 CA         22.8980    8.0660   31.4980 C.3       3 GLC5        0.0000 
      7 CA         23.1460    9.8710   32.3250 C.3       9 GLL5        0.0000 
      8 CA         26.2005    9.8255   33.1235 C.3       3 GLC5        0.0000 
      9 CA         24.5870   10.3250   32.1460 C.3       9 GLL5        0.0000 
     10 CA         27.8140    9.3260   34.1010 C.3       6 GLP5        0.0000 
     11 CA         22.6380   14.4675   31.1070 C.3       3 GLC5        0.0000 
     12 CA         24.3180   14.0970   32.2300 C.3       9 GLL5        0.0000 
     13 CA         20.9580   14.8380   29.9840 C.3       6 GLP5        0.0000 
     14 CA         27.2710   15.5455   31.9655 C.3       3 GLC5        0.0000 
     15 CA         25.7490   13.9280   31.6970 C.3       9 GLL5        0.0000 
     16 CA         28.7930   17.1630   32.2340 C.3       6 GLP5        0.0000 
     17 CA         26.5695   12.9480   33.6760 C.3       3 GLC5        0.0000 
     18 CA         26.0630   12.4400   31.7880 C.3       9 GLL5        0.0000 
     19 CA         27.0760   13.4560   35.5640 C.3       6 GLP5        0.0000 
     20 CA         26.9385   10.8830   32.9445 C.3       3 GLC5        0.0000 
     21 CA         22.5500   13.3660   30.1015 C.3       3 GLC5        0.0000 
     22 CA         24.1420   11.8940   30.2190 C.3       9 GLL5        0.0000 
     23 CA         24.6410   12.8755   28.6115 C.3       3 GLC5        0.0000 
     24 CA         25.1400   13.8570   27.0040 C.3       6 GLP5        0.0000 
     25 CA         17.4420   10.2855   32.1140 C.3       3 GLC5        0.0000 
     26 CA         18.5920   10.8680   33.7950 C.3       9 GLL5        0.0000 
     27 CA         16.2920    9.7030   30.4330 C.3       6 GLP5        0.0000 
     28 CA         18.7395   14.3000   34.3425 C.3       3 GLC5        0.0000 
     29 CA         20.1630   12.8100   33.7270 C.3       9 GLL5        0.0000 
     30 CA         17.3160   15.7900   34.9580 C.3       6 GLP5        0.0000 
     31 CA         22.3445   10.8260   35.1750 C.3       3 GLC5        0.0000 
     32 CA         22.3650   10.7990   33.2610 C.3       9 GLL5        0.0000 
     33 CA         22.3240   10.8530   37.0890 C.3       6 GLP5        0.0000 
     34 N          27.7060   13.2605   30.3495 N.am      2 SEC2        0.0000 
     35 N          26.9810   12.0830   30.7200 N.am      8 SEL2        0.0000 
     36 N          28.4310   14.4380   29.9790 N.am      5 SEP2        0.0000 
     37 O          28.0735   10.9940   30.7790 O.2       1 ALC1        0.0000 
     38 O          26.9810   12.0830   30.7200 O.2       7 ALL1        0.0000 
     39 O          29.1660    9.9050   30.8380 O.2       4 ALP1        0.0000 
     40 N          16.6200    7.6500   34.3120 N.am      2 SEC2        0.0000 
     41 N          16.9710    9.0850   33.8630 N.am      8 SEL2        0.0000 
     42 N          16.2690    6.2150   34.7610 N.am      5 SEP2        0.0000 
     43 N          17.0525    8.3375   32.6505 N.am      2 SEC2        0.0000 
     44 N          17.1340    7.5900   31.4380 N.am      5 SEP2        0.0000 
     45 O          16.0335    9.8545   34.1100 O.2       1 ALC1        0.0000 
     46 O          16.9710    9.0850   33.8630 O.2       7 ALL1        0.0000 
     47 O          15.0960   10.6240   34.3570 O.2       4 ALP1        0.0000 
     48 N          17.5365    6.7455   34.1450 N.am      2 SEC2        0.0000 
     49 N          18.8040    7.2760   33.5290 N.am      8 SEL2        0.0000 
     50 N          17.9690    7.4330   32.4835 N.am      2 SEC2        0.0000 
     51 CA         19.4910    5.8270   35.3340 C.3       3 GLC5        0.0000 
     52 CA         19.7890    6.2700   33.3550 C.3       9 GLL5        0.0000 
     53 CA         19.1930    5.3840   37.3130 C.3       6 GLP5        0.0000 
     54 CA         21.2195    6.2655   32.0130 C.3       3 GLC5        0.0000 
     55 CA         21.5130    5.8920   33.5040 C.3       3 GLC5        0.0000 
     56 CA         20.1945    4.5340   33.8560 C.3       3 GLC5        0.0000 
     57 CA         20.6000    2.7980   34.3570 C.3       6 GLP5        0.0000 
     58 CA         19.0545    4.9705   31.7495 C.3       3 GLC5        0.0000 
     59 CA         18.3200    3.6710   30.1440 C.3       6 GLP5        0.0000 
     60 CA         20.8347   10.5790   35.2515 C.3       3 GLC5        0.0000 
     61 CA         20.9320   11.4680   37.0800 C.3       6 GLP5        0.0000 
     62 CA         19.3828    8.3532   35.2865 C.3       3 GLC5        0.0000 
     63 CA         18.8570    7.9020   37.0950 C.3       6 GLP5        0.0000 
     64 CA         24.8433   15.7203   31.5227 C.3       3 GLC5        0.0000 
     65 CA         24.6530   17.4280   31.0820 C.3       6 GLP5        0.0000 
     66 CA         27.7895   13.6590   31.1542 C.3       3 GLC5        0.0000 
     67 CA         29.6730   14.1340   30.5660 C.3       6 GLP5        0.0000 
     68 CA         25.4289   13.9422   33.8896 C.3       3 GLC5        0.0000 
     69 CA         25.9190   14.2310   35.7080 C.3       6 GLP5        0.0000 
     70 CA         17.3428    8.7058   32.3335 C.3       3 GLC5        0.0000 
     71 CA         19.2630    8.5960   33.5510 C.3       9 GLL5        0.0000 
     72 CA         15.9260    8.3530   31.0220 C.3       6 GLP5        0.0000 
     73 CA         18.6405    9.0482   35.4310 C.3       3 GLC5        0.0000 
     74 CA         18.2560    9.5210   33.7390 C.3       9 GLL5        0.0000 
     75 CA         20.0875   11.2770   35.4023 C.3       3 GLC5        0.0000 
     76 CA         19.9588   12.7445   31.6903 C.3       3 GLC5        0.0000 
     77 CA         19.8940   11.3040   33.6540 C.3       9 GLL5        0.0000 
     78 CA         19.8890   13.4320   29.6900 C.3       6 GLP5        0.0000 
     79 CA         20.9345   14.6170   34.7675 C.3       3 GLC5        0.0000 
     80 CA         20.9630   16.2360   35.8210 C.3       6 GLP5        0.0000 
     81 CA         20.9190   12.2330   35.3970 C.3       3 GLC5        0.0000 
     82 CA         21.6490   13.1860   33.7010 C.3       9 GLL5        0.0000 
     83 CA         21.5027   13.7870   31.6058 C.3       3 GLC5        0.0000 
@<TRIPOS>BOND
@<TRIPOS>SUBSTRUCTURE
     1 ALC1       37 GROUP        1 X    ALC  0     ROOT ALC X 1
     2 SEC2       34 GROUP        1 X    SEC  0     **** SEC X 2
     3 GLC5        1 GROUP        1 X    GLC  0     **** GLC X 6
     4 ALP1       39 GROUP        1 Y    ALP  0     ROOT ALP Y 8
     5 SEP2       36 GROUP        1 Y    SEP  0     **** SEP Y 9
     6 GLP5        3 GROUP        1 Y    GLP  0     **** GLP Y 13
     7 ALL1       38 GROUP        1 Z    ALL  0     ROOT ALL Z 15
     8 SEL2       35 GROUP        1 Z    SEL  0     **** SEL Z 16
     9 GLL5        2 GROUP        1 Z    GLL  0     **** GLL Z 20
@<TRIPOS>SET

