#    Name: 1lhw_ESM_1_ligand
#    Modification time : Tue Mar 25 11:09:02 2014

@<TRIPOS>MOLECULE
1lhw_ESM_1_ligand
   48    51     1     0     0
SMALL
NO_CHARGES


@<TRIPOS>ATOM
      1 C1         20.5540    9.0130   33.4050 C.ar      1 ESM301      0.0000 
      2 C10        20.9210   10.3670   33.4410 C.ar      1 ESM301      0.0000 
      3 C11        23.1460    9.8710   32.3250 C.3       1 ESM301      0.0000 
      4 C12        24.5870   10.3250   32.1460 C.3       1 ESM301      0.0000 
      5 C13        24.7000   11.7870   31.6690 C.3       1 ESM301      0.0000 
      6 C14        23.9390   12.6610   32.6610 C.3       1 ESM301      0.0000 
      7 C15        24.3180   14.0970   32.2300 C.3       1 ESM301      0.0000 
      8 C16        25.7490   13.9280   31.6970 C.3       1 ESM301      0.0000 
      9 C17        26.0630   12.4400   31.7880 C.3       1 ESM301      0.0000 
     10 C18        24.1420   11.8940   30.2190 C.3       1 ESM301      0.0000 
     11 C2         19.2630    8.5960   33.5510 C.ar      1 ESM301      0.0000 
     12 C3         18.2560    9.5210   33.7390 C.ar      1 ESM301      0.0000 
     13 C4         18.5920   10.8680   33.7950 C.ar      1 ESM301      0.0000 
     14 C5         19.8940   11.3040   33.6540 C.ar      1 ESM301      0.0000 
     15 C6         20.1630   12.8100   33.7270 C.3       1 ESM301      0.0000 
     16 C7         21.6490   13.1860   33.7010 C.3       1 ESM301      0.0000 
     17 C8         22.4460   12.2860   32.7540 C.3       1 ESM301      0.0000 
     18 C9         22.3650   10.7990   33.2610 C.3       1 ESM301      0.0000 
     19 O17        26.9810   12.0830   30.7200 O.3       1 ESM301      0.0000 
     20 O3         16.9710    9.0850   33.8630 O.3       1 ESM301      0.0000 
     21 O2         18.8040    7.2760   33.5290 O.3       1 ESM301      0.0000 
     22 C19        19.7890    6.2700   33.3550 C.3       1 ESM301      0.0000 
     23 H          21.3148    8.3053   33.2591 H         1 ESM301      0.0000 
     24 H          23.1334    8.8581   32.7377 H         1 ESM301      0.0000 
     25 H          22.6489    9.8491   31.3509 H         1 ESM301      0.0000 
     26 H          25.0848    9.6784   31.4132 H         1 ESM301      0.0000 
     27 H          25.1218   10.2253   33.0983 H         1 ESM301      0.0000 
     28 H          24.4211   12.4880   33.6394 H         1 ESM301      0.0000 
     29 H          24.3212   14.7284   33.0736 H         1 ESM301      0.0000 
     30 H          23.6800   14.4111   31.4525 H         1 ESM301      0.0000 
     31 H          26.4249   14.4810   32.3138 H         1 ESM301      0.0000 
     32 H          25.7876   14.2464   30.6771 H         1 ESM301      0.0000 
     33 H          26.4569   12.2518   32.7556 H         1 ESM301      0.0000 
     34 H          17.8333   11.5691   33.9486 H         1 ESM301      0.0000 
     35 H          19.7112   13.2089   34.6504 H         1 ESM301      0.0000 
     36 H          19.6561   13.3044   32.8818 H         1 ESM301      0.0000 
     37 H          22.0575   13.0966   34.7097 H         1 ESM301      0.0000 
     38 H          21.7489   14.2244   33.3782 H         1 ESM301      0.0000 
     39 H          22.0150   12.3083   31.7735 H         1 ESM301      0.0000 
     40 H          22.8579   10.7819   34.2422 H         1 ESM301      0.0000 
     41 H          24.1981   12.8285   29.8675 H         1 ESM301      0.0000 
     42 H          24.6469   11.3107   29.5828 H         1 ESM301      0.0000 
     43 H          23.1817   11.6193   30.1694 H         1 ESM301      0.0000 
     44 H          20.2823    6.3785   32.4919 H         1 ESM301      0.0000 
     45 H          20.4707    6.2873   34.0864 H         1 ESM301      0.0000 
     46 H          19.3876    5.3541   33.3501 H         1 ESM301      0.0000 
     47 H          27.7995   11.7451   31.1846 H         1 ESM301      0.0000 
     48 H          16.4077    9.8437   33.5357 H         1 ESM301      0.0000 
@<TRIPOS>BOND
     1    2    1 ar   
     2   11    1 ar   
     3   23    1 1    
     4   14    2 ar   
     5   18    2 1    
     6    4    3 1    
     7   18    3 1    
     8   24    3 1    
     9   25    3 1    
    10    5    4 1    
    11   26    4 1    
    12   27    4 1    
    13    6    5 1    
    14    9    5 1    
    15   10    5 1    
    16    7    6 1    
    17   17    6 1    
    18   28    6 1    
    19    8    7 1    
    20   29    7 1    
    21   30    7 1    
    22    9    8 1    
    23   31    8 1    
    24   32    8 1    
    25   19    9 1    
    26   33    9 1    
    27   41   10 1    
    28   42   10 1    
    29   43   10 1    
    30   12   11 ar   
    31   21   11 1    
    32   13   12 ar   
    33   20   12 1    
    34   14   13 ar   
    35   34   13 1    
    36   15   14 1    
    37   16   15 1    
    38   35   15 1    
    39   36   15 1    
    40   17   16 1    
    41   37   16 1    
    42   38   16 1    
    43   18   17 1    
    44   39   17 1    
    45   40   18 1    
    46   47   19 1    
    47   48   20 1    
    48   22   21 1    
    49   44   22 1    
    50   45   22 1    
    51   46   22 1    
@<TRIPOS>SUBSTRUCTURE
     1 ESM301      1 GROUP   
@<TRIPOS>SET

