#    Name: 1m2q_MNX_1_INTS_M
#    Modification time : Tue Mar 25 11:23:33 2014

@<TRIPOS>MOLECULE
1m2q_MNX_1_INTS_M
   50     0     9     0     0
SMALL
NO_CHARGES


@<TRIPOS>ATOM
      1 CA         26.6205    6.4685   18.5790 C.3       3 GLC5        0.0000 
      2 CA         25.3450    4.8720   18.5720 C.3       9 GLL5        0.0000 
      3 CA         27.8960    8.0650   18.5860 C.3       6 GLP5        0.0000 
      4 CA         27.4245    3.7380   20.3740 C.3       3 GLC5        0.0000 
      5 CA         26.0310    3.6490   18.7750 C.3       9 GLL5        0.0000 
      6 CA         28.8180    3.8270   21.9730 C.3       6 GLP5        0.0000 
      7 CA         28.5610    2.6285   18.3270 C.3       3 GLC5        0.0000 
      8 CA         26.6760    3.0000   17.6840 C.3       9 GLL5        0.0000 
      9 CA         30.4460    2.2570   18.9700 C.3       6 GLP5        0.0000 
     10 CA         26.2105    7.6890   17.2290 C.3       3 GLC5        0.0000 
     11 CA         24.5250    7.3130   15.8720 C.3       9 GLL5        0.0000 
     12 CA         27.0355    7.1455   13.6355 C.3       3 GLC5        0.0000 
     13 CA         25.1440    6.7560   14.7020 C.3       9 GLL5        0.0000 
     14 CA         28.9270    7.5350   12.5690 C.3       6 GLP5        0.0000 
     15 CA         22.8460    7.2730   13.4545 C.3       3 GLC5        0.0000 
     16 CA         24.3100    8.6500   13.3670 C.3       9 GLL5        0.0000 
     17 CA         21.3820    5.8960   13.5420 C.3       6 GLP5        0.0000 
     18 CA         24.1510   11.1745   14.0005 C.3       3 GLC5        0.0000 
     19 CA         23.6950    9.1970   14.5190 C.3       9 GLL5        0.0000 
     20 CA         24.6070   13.1520   13.4820 C.3       6 GLP5        0.0000 
     21 N          27.1870    5.3145   12.5055 N.am      1 SEC2        0.0000 
     22 N          26.4450    4.9490   13.8560 N.am      7 SEL2        0.0000 
     23 N          27.9290    5.6800   11.1550 N.am      4 SEP2        0.0000 
     24 NZ         26.7695    6.3125   11.7180 N.4       2 LYC4        0.0000 
     25 NZ         25.6100    6.9450   12.2810 N.4       8 LYL4        0.0000 
     26 NZ         27.9290    5.6800   11.1550 N.4       5 LYP4        0.0000 
     27 N          26.7695    6.3125   11.7180 N.am      1 SEC2        0.0000 
     28 N          25.6100    6.9450   12.2810 N.am      7 SEL2        0.0000 
     29 N          24.3790    5.9585   11.9105 N.am      1 SEC2        0.0000 
     30 N          23.1480    4.9720   11.5400 N.am      4 SEP2        0.0000 
     31 CA         28.1135    2.0682   16.3140 C.3       3 GLC5        0.0000 
     32 CA         26.6500    3.5790   16.3840 C.3       9 GLL5        0.0000 
     33 CA         29.5640    0.8470   15.5940 C.3       6 GLP5        0.0000 
     34 CA         27.3955    5.5555   17.0012 C.3       3 GLC5        0.0000 
     35 CA         25.3110    5.4640   17.2850 C.3       9 GLL5        0.0000 
     36 CA         28.9850    6.2810   17.2210 C.3       6 GLP5        0.0000 
     37 CA         23.7441    4.8351   16.6731 C.3       3 GLC5        0.0000 
     38 CA         25.9520    4.8130   16.1720 C.3       9 GLL5        0.0000 
     39 CA         22.0000    4.6650   15.6960 C.3       6 GLP5        0.0000 
     40 CA         27.6692    4.8027   17.7252 C.3       3 GLC5        0.0000 
     41 CA         23.4172    5.8498   15.4915 C.3       3 GLC5        0.0000 
     42 CA         22.7067    9.9958   13.1600 C.3       3 GLC5        0.0000 
     43 CA         21.4110   11.0680   12.3770 C.3       6 GLP5        0.0000 
     44 CA         25.0020   10.0953   16.1202 C.3       3 GLC5        0.0000 
     45 CA         26.2580   11.3210   17.0950 C.3       6 GLP5        0.0000 
     46 CA         22.1380    8.2471   16.1142 C.3       3 GLC5        0.0000 
     47 CA         20.3480    7.9320   17.0580 C.3       6 GLP5        0.0000 
     48 CA         22.1270    7.9153   14.6618 C.3       3 GLC5        0.0000 
     49 CA         23.7970    8.5420   15.7720 C.3       9 GLL5        0.0000 
     50 CA         20.5080    6.9610   14.1780 C.3       6 GLP5        0.0000 
@<TRIPOS>BOND
@<TRIPOS>SUBSTRUCTURE
     1 SEC2       21 GROUP        1 X    SEC  0     ROOT SEC X 2
     2 LYC4       24 GROUP        1 X    LYC  0     **** LYC X 4
     3 GLC5        1 GROUP        1 X    GLC  0     **** GLC X 6
     4 SEP2       23 GROUP        1 Y    SEP  0     ROOT SEP Y 9
     5 LYP4       26 GROUP        1 Y    LYP  0     **** LYP Y 11
     6 GLP5        3 GROUP        1 Y    GLP  0     **** GLP Y 13
     7 SEL2       22 GROUP        1 Z    SEL  0     ROOT SEL Z 16
     8 LYL4       25 GROUP        1 Z    LYL  0     **** LYL Z 18
     9 GLL5        2 GROUP        1 Z    GLL  0     **** GLL Z 20
@<TRIPOS>SET

