#    Name: 1m2q_MNX_1_ligand
#    Modification time : Tue Mar 25 11:23:33 2014

@<TRIPOS>MOLECULE
1m2q_MNX_1_ligand
   26    28     1     0     0
SMALL
NO_CHARGES


@<TRIPOS>ATOM
      1 C1         26.6500    3.5790   16.3840 C.ar      1 MNX351      0.0000 
      2 C2         25.9520    4.8130   16.1720 C.ar      1 MNX351      0.0000 
      3 C3         25.3110    5.4640   17.2850 C.ar      1 MNX351      0.0000 
      4 C4         25.3450    4.8720   18.5720 C.ar      1 MNX351      0.0000 
      5 C5         26.0310    3.6490   18.7750 C.ar      1 MNX351      0.0000 
      6 C6         26.6760    3.0000   17.6840 C.ar      1 MNX351      0.0000 
      7 O13        24.6240    6.6550   17.1080 O.3       1 MNX351      0.0000 
      8 C14        24.5250    7.3130   15.8720 C.ar      1 MNX351      0.0000 
      9 C15        25.1440    6.7560   14.7020 C.ar      1 MNX351      0.0000 
     10 C16        25.8950    5.4740   14.8390 C.2       1 MNX351      0.0000 
     11 C22        25.0290    7.4390   13.4480 C.ar      1 MNX351      0.0000 
     12 C23        24.3100    8.6500   13.3670 C.ar      1 MNX351      0.0000 
     13 C24        23.6950    9.1970   14.5190 C.ar      1 MNX351      0.0000 
     14 C25        23.7970    8.5420   15.7720 C.ar      1 MNX351      0.0000 
     15 O16        26.4450    4.9490   13.8560 O.2       1 MNX351      0.0000 
     16 O1         27.2870    2.9140   15.3340 O.3       1 MNX351      0.0000 
     17 O22        25.6100    6.9450   12.2810 O.co2     1 MNX351      0.0000 
     18 N25        23.1470    9.1420   16.9200 N.pl3     1 MNX351      0.0000 
     19 O2B        23.2030    8.5650   18.1600 O.2       1 MNX351      0.0000 
     20 O2A        22.4590   10.3140   16.7690 O.2       1 MNX351      0.0000 
     21 H          24.8742    5.3277   19.3545 H         1 MNX351      0.0000 
     22 H          26.0647    3.2298   19.7040 H         1 MNX351      0.0000 
     23 H          27.1596    2.1146   17.8353 H         1 MNX351      0.0000 
     24 H          24.2311    9.1381   12.4706 H         1 MNX351      0.0000 
     25 H          23.1713   10.0741   14.4472 H         1 MNX351      0.0000 
     26 H          27.1648    3.5085   14.5393 H         1 MNX351      0.0000 
@<TRIPOS>BOND
     1    2    1 ar   
     2    6    1 ar   
     3   16    1 1    
     4    3    2 ar   
     5   10    2 1    
     6    4    3 ar   
     7    7    3 1    
     8    5    4 ar   
     9   21    4 1    
    10    6    5 ar   
    11   22    5 1    
    12   23    6 1    
    13    8    7 1    
    14    9    8 ar   
    15   14    8 ar   
    16   10    9 1    
    17   11    9 ar   
    18   15   10 2    
    19   12   11 ar   
    20   17   11 ar   
    21   13   12 ar   
    22   24   12 1    
    23   14   13 ar   
    24   25   13 1    
    25   18   14 1    
    26   26   16 1    
    27   19   18 2    
    28   20   18 2    
@<TRIPOS>SUBSTRUCTURE
     1 MNX351      1 GROUP   
@<TRIPOS>SET

