#    Name: 4DKP_1_CAVITY_N1_ALL.mol2
#    Modification time : Mon Mar 10 14:10:02 2014

@<TRIPOS>MOLECULE
4DKP_1_CAVITY_N1_ALL.mol2
   73     0     6     0     0
SMALL
NO_CHARGES


@<TRIPOS>ATOM
      1 CA         31.1487  -16.0054   37.1696 C.3       5 GLY6        0.0000 
      2 N          31.6135  -14.6422   36.7506 N.2       2 ALA2        0.0000 
      3 NZ         30.2912  -17.6700   36.1727 N.2       3 LYS4        0.0000 
      4 NZ         30.7560  -16.3067   35.7536 N.2       3 LYS4        0.0000 
      5 N          28.3346  -15.9703   39.5317 N.2       2 ALA2        0.0000 
      6 CA         28.7994  -14.6071   39.1127 C.3       5 GLY6        0.0000 
      7 CA         27.9418  -16.2717   38.1157 C.3       5 GLY6        0.0000 
      8 CA         28.4067  -14.9084   37.6967 C.3       5 GLY6        0.0000 
      9 CA         28.8715  -13.5452   37.2777 C.3       5 GLY6        0.0000 
     10 CA         27.0843  -17.9362   37.1188 C.3       5 GLY6        0.0000 
     11 CA         27.5491  -16.5730   36.6998 C.3       5 GLY6        0.0000 
     12 DU         28.0139  -15.2098   36.2807 H         6 CUB7        0.0000 
     13 DU         28.4787  -13.8466   35.8617 H         6 CUB7        0.0000 
     14 N          28.9435  -12.4833   35.4427 N.2       2 ALA2        0.0000 
     15 N          29.4083  -11.1201   35.0236 N.2       2 ALA2        0.0000 
     16 CA         29.8731   -9.7569   34.6046 C.3       5 GLY6        0.0000 
     17 CA         27.1564  -16.8743   35.2838 C.3       5 GLY6        0.0000 
     18 DU         27.6212  -15.5111   34.8648 H         6 CUB7        0.0000 
     19 DU         28.0860  -14.1479   34.4457 H         6 CUB7        0.0000 
     20 CA         26.7636  -17.1757   33.8679 C.3       5 GLY6        0.0000 
     21 DU         27.2284  -15.8125   33.4488 H         6 CUB7        0.0000 
     22 CA         27.2842  -16.1824   43.0462 C.3       5 GLY6        0.0000 
     23 N          27.3563  -15.1205   41.2112 N.2       2 ALA2        0.0000 
     24 CA         26.9636  -15.4218   39.7953 C.3       5 GLY6        0.0000 
     25 CA         27.4284  -14.0586   39.3762 C.3       5 GLY6        0.0000 
     26 CA         26.5708  -15.7232   38.3793 C.3       5 GLY6        0.0000 
     27 N          27.0356  -14.3600   37.9603 N.2       2 ALA2        0.0000 
     28 CA         27.5004  -12.9967   37.5412 C.3       5 GLY6        0.0000 
     29 CA         26.1781  -16.0245   36.9633 C.3       5 GLY6        0.0000 
     30 N          26.6429  -14.6613   36.5443 N.2       2 ALA2        0.0000 
     31 N          27.1077  -13.2981   36.1252 N.2       2 ALA2        0.0000 
     32 N          27.5725  -11.9349   35.7062 N.2       2 ALA2        0.0000 
     33 N          28.0373  -10.5717   35.2872 N.2       2 ALA2        0.0000 
     34 N          28.5021   -9.2084   34.8681 N.2       2 ALA2        0.0000 
     35 CA         25.7853  -16.3259   35.5474 C.3       5 GLY6        0.0000 
     36 N          26.2501  -14.9626   35.1283 N.2       2 ALA2        0.0000 
     37 N          26.7150  -13.5994   34.7093 N.2       2 ALA2        0.0000 
     38 N          27.1798  -12.2362   34.2902 N.2       2 ALA2        0.0000 
     39 N          27.6446  -10.8730   33.8712 N.2       2 ALA2        0.0000 
     40 CA         25.3926  -16.6272   34.1314 C.3       5 GLY6        0.0000 
     41 O          25.8574  -15.2640   33.7124 O.2       2 ALA2        0.0000 
     42 CZ         26.3059  -15.3325   44.7257 C.ar      4 PHE5        0.0000 
     43 CZ         26.7707  -13.9693   44.3067 C.ar      4 PHE5        0.0000 
     44 OG         25.9132  -15.6339   43.3098 O.2       1 SER1        0.0000 
     45 CA         26.3780  -14.2707   42.8907 C.3       5 GLY6        0.0000 
     46 OG         25.5205  -15.9352   41.8938 O.2       1 SER1        0.0000 
     47 CA         25.9853  -14.5720   41.4748 C.3       5 GLY6        0.0000 
     48 CA         25.1277  -16.2366   40.4778 C.3       5 GLY6        0.0000 
     49 CA         25.5925  -14.8734   40.0588 C.3       5 GLY6        0.0000 
     50 N          25.1998  -15.1747   38.6428 N.2       2 ALA2        0.0000 
     51 N          26.2015  -11.3864   35.9698 N.2       2 ALA2        0.0000 
     52 N          26.6663  -10.0232   35.5507 N.2       2 ALA2        0.0000 
     53 N          26.2735  -10.3245   34.1348 N.2       2 ALA2        0.0000 
     54 N          26.7384   -8.9613   33.7157 N.2       2 ALA2        0.0000 
     55 CZ         24.9349  -14.7841   44.9893 C.ar      4 PHE5        0.0000 
     56 CA         25.3997  -13.4208   44.5702 C.3       5 GLY6        0.0000 
     57 OG         24.5422  -15.0854   43.5733 O.2       1 SER1        0.0000 
     58 CA         25.0070  -13.7222   43.1543 C.3       5 GLY6        0.0000 
     59 CA         24.6142  -14.0235   41.7383 C.3       5 GLY6        0.0000 
     60 CA         25.0791  -12.6603   41.3193 C.3       5 GLY6        0.0000 
     61 CA         29.3129  -16.8201   37.8522 C.3       5 GLY6        0.0000 
     62 N          29.7777  -15.4569   37.4332 N.2       2 ALA2        0.0000 
     63 N          30.2425  -14.0937   37.0141 N.2       2 ALA2        0.0000 
     64 NZ         28.4553  -18.4847   36.8553 N.2       3 LYS4        0.0000 
     65 NZ         28.9201  -17.1215   36.4362 N.2       3 LYS4        0.0000 
     66 DU         29.3849  -15.7583   36.0172 H         6 CUB7        0.0000 
     67 DU         29.8497  -14.3950   35.5982 H         6 CUB7        0.0000 
     68 NZ         28.0626  -18.7860   35.4393 N.2       3 LYS4        0.0000 
     69 NZ         28.5274  -17.4228   35.0203 N.2       3 LYS4        0.0000 
     70 DU         28.9922  -16.0596   34.6012 H         6 CUB7        0.0000 
     71 CA         27.6698  -19.0874   34.0233 C.3       5 GLY6        0.0000 
     72 CA         32.5197  -16.5539   36.9061 C.3       5 GLY6        0.0000 
     73 N          32.9845  -15.1907   36.4870 N.2       2 ALA2        0.0000 
@<TRIPOS>BOND
@<TRIPOS>SUBSTRUCTURE
     1 SER1       44 GROUP   
     2 ALA2        2 GROUP   
     3 LYS4        3 GROUP   
     4 PHE5       42 GROUP   
     5 GLY6        1 GROUP   
     6 CUB7       12 GROUP   
@<TRIPOS>SET

