#    Name: 4dkp_0LL_1_INTS_M
#    Modification time : Mon Apr  7 22:49:07 2014

@<TRIPOS>MOLECULE
4dkp_0LL_1_INTS_M
   41     0     6     0     0
SMALL
NO_CHARGES


@<TRIPOS>ATOM
      1 CA         24.4120  -13.2150   40.3850 C.3       2 GLC5        0.0000 
      2 CA         25.4700  -14.8040   41.5340 C.3       6 GLL5        0.0000 
      3 CA         23.3540  -11.6260   39.2360 C.3       4 GLP5        0.0000 
      4 CA         24.7970  -15.0175   34.5900 C.3       2 GLC5        0.0000 
      5 CA         26.4890  -14.9600   33.1720 C.3       6 GLL5        0.0000 
      6 CA         23.1050  -15.0750   36.0080 C.3       4 GLP5        0.0000 
      7 CA         24.9785  -13.3745   33.6730 C.3       2 GLC5        0.0000 
      8 CA         23.4680  -11.7890   34.1740 C.3       4 GLP5        0.0000 
      9 O          29.0185  -15.3855   40.7975 O.2       1 ALC1        0.0000 
     10 O          27.5970  -15.2220   40.3030 O.2       5 ALL1        0.0000 
     11 O          30.4400  -15.5490   41.2920 O.2       3 ALP1        0.0000 
     12 CA         24.1750  -12.4720   44.1345 C.3       2 GLC5        0.0000 
     13 CA         24.5550  -14.2660   45.3710 C.3       6 GLL5        0.0000 
     14 CA         23.7950  -10.6780   42.8980 C.3       4 GLP5        0.0000 
     15 CA         22.9870  -14.8400   46.0645 C.3       2 GLC5        0.0000 
     16 CA         21.4190  -15.4140   46.7580 C.3       4 GLP5        0.0000 
     17 CA         25.9895  -14.5080   46.5315 C.3       2 GLC5        0.0000 
     18 CA         27.4240  -14.7500   47.6920 C.3       4 GLP5        0.0000 
     19 CA         21.8425  -13.9595   42.7975 C.3       2 GLC5        0.0000 
     20 CA         23.4710  -14.4040   42.7100 C.3       6 GLL5        0.0000 
     21 CA         20.2140  -13.5150   42.8850 C.3       4 GLP5        0.0000 
     22 CA         23.4125  -13.0150   40.9730 C.3       2 GLC5        0.0000 
     23 CA         24.9226  -12.2749   32.4334 C.3       2 GLC5        0.0000 
     24 CA         25.9120  -14.3330   32.0590 C.3       6 GLL5        0.0000 
     25 CA         23.1570  -11.5150   32.7040 C.3       4 GLP5        0.0000 
     26 CA         30.8578  -11.9558   35.5992 C.3       2 GLC5        0.0000 
     27 CA         28.8880  -12.5100   34.4980 C.3       6 GLL5        0.0000 
     28 CA         32.5630  -10.7660   36.3340 C.3       4 GLP5        0.0000 
     29 CA         27.1681  -16.7012   41.6531 C.3       2 GLC5        0.0000 
     30 CA         27.5160  -14.9700   42.7930 C.3       6 GLL5        0.0000 
     31 CA         27.4960  -18.4610   41.1430 C.3       4 GLP5        0.0000 
     32 CA         28.7690  -14.9653   44.3717 C.3       2 GLC5        0.0000 
     33 CA         30.3730  -15.0720   45.3610 C.3       4 GLP5        0.0000 
     34 CA         27.1466  -13.2787   41.2616 C.3       2 GLC5        0.0000 
     35 CA         27.4530  -11.6160   40.3600 C.3       4 GLP5        0.0000 
     36 CA         24.0438  -12.5823   42.9626 C.3       2 GLC5        0.0000 
     37 CA         24.7850  -14.5850   42.7360 C.3       6 GLL5        0.0000 
     38 CA         23.3476  -15.3996   41.1127 C.3       2 GLC5        0.0000 
     39 CA         22.3960  -16.2500   39.8030 C.3       4 GLP5        0.0000 
     40 CA         23.8188  -16.4187   43.4336 C.3       2 GLC5        0.0000 
     41 CA         23.3450  -18.3510   43.8400 C.3       4 GLP5        0.0000 
@<TRIPOS>BOND
@<TRIPOS>SUBSTRUCTURE
     1 ALC1        9 GROUP        1 X    ALC  0     ROOT ALC X 1
     2 GLC5        1 GROUP        1 X    GLC  0     **** GLC X 6
     3 ALP1       11 GROUP        1 Y    ALP  0     ROOT ALP Y 8
     4 GLP5        3 GROUP        1 Y    GLP  0     **** GLP Y 13
     5 ALL1       10 GROUP        1 Z    ALL  0     ROOT ALL Z 15
     6 GLL5        2 GROUP        1 Z    GLL  0     **** GLL Z 20
@<TRIPOS>SET

