#    Name: 4dkp_0LL_1_ligand
#    Modification time : Mon Apr  7 22:49:07 2014

@<TRIPOS>MOLECULE
4dkp_0LL_1_ligand
   40    42     1     0     0
SMALL
NO_CHARGES


@<TRIPOS>ATOM
      1 C13        27.1830  -14.8660   38.9990 C.2       1 0LL513      0.0000 
      2 C15        26.8590  -15.0220   41.5330 C.ar      1 0LL513      0.0000 
      3 C20        25.4430  -14.5530   43.9530 C.ar      1 0LL513      0.0000 
      4 C21        24.7850  -14.5850   42.7360 C.ar      1 0LL513      0.0000 
      5 C22        25.4700  -14.8040   41.5340 C.ar      1 0LL513      0.0000 
      6 C01        25.9120  -14.3330   32.0590 C.ar      1 0LL513      0.0000 
      7 C02        26.4890  -14.9600   33.1720 C.ar      1 0LL513      0.0000 
      8 C03        27.4570  -14.3210   33.9320 C.ar      1 0LL513      0.0000 
      9 C04        27.8400  -13.0140   33.5570 C.ar      1 0LL513      0.0000 
     10 C05        27.2720  -12.3800   32.4500 C.ar      1 0LL513      0.0000 
     11 C06        26.2970  -13.0460   31.6920 C.ar      1 0LL513      0.0000 
     12 C07        28.2110  -14.8030   35.1750 C.3       1 0LL513      0.0000 
     13 C08        29.4170  -13.7810   35.2310 C.3       1 0LL513      0.0000 
     14 C09        28.8880  -12.5100   34.4980 C.3       1 0LL513      0.0000 
     15 N10        30.5980  -14.3520   34.5740 N.4       1 0LL513      0.0000 
     16 N11        27.5180  -14.7010   36.4720 N.am      1 0LL513      0.0000 
     17 C12        28.0340  -15.0650   37.7020 C.2       1 0LL513      0.0000 
     18 N14        27.5970  -15.2220   40.3030 N.am      1 0LL513      0.0000 
     19 O16        26.0670  -14.3700   38.8060 O.2       1 0LL513      0.0000 
     20 O17        29.1620  -15.5640   37.8220 O.2       1 0LL513      0.0000 
     21 C18        27.5160  -14.9700   42.7930 C.ar      1 0LL513      0.0000 
     22 C19        26.8140  -14.7470   43.9720 C.ar      1 0LL513      0.0000 
     23 CL         24.5550  -14.2660   45.3710 Cl        1 0LL513      0.0000 
     24 F24        23.4710  -14.4040   42.7100 F         1 0LL513      0.0000 
     25 H          24.9552  -14.8058   40.6444 H         1 0LL513      0.0000 
     26 H          25.1971  -14.8321   31.5102 H         1 0LL513      0.0000 
     27 H          26.1832  -15.9155   33.4254 H         1 0LL513      0.0000 
     28 H          27.5634  -11.4343   32.1904 H         1 0LL513      0.0000 
     29 H          25.8777  -12.5884   30.8819 H         1 0LL513      0.0000 
     30 H          28.6432  -15.7457   34.9961 H         1 0LL513      0.0000 
     31 H          29.5772  -13.5398   36.2477 H         1 0LL513      0.0000 
     32 H          28.4667  -11.8535   35.2235 H         1 0LL513      0.0000 
     33 H          29.6975  -12.0661   33.9666 H         1 0LL513      0.0000 
     34 H          26.5340  -14.3078   36.4200 H         1 0LL513      0.0000 
     35 H          28.5497  -15.6868   40.4052 H         1 0LL513      0.0000 
     36 H          28.5417  -15.1030   42.8186 H         1 0LL513      0.0000 
     37 H          27.3234  -14.7262   44.8719 H         1 0LL513      0.0000 
     38 H          31.3748  -13.7226   34.5940 H         1 0LL513      0.0000 
     39 H          30.8954  -15.1987   35.0152 H         1 0LL513      0.0000 
     40 H          30.4207  -14.5684   33.6139 H         1 0LL513      0.0000 
@<TRIPOS>BOND
     1   17    1 1    
     2   18    1 am   
     3   19    1 2    
     4    5    2 ar   
     5   18    2 1    
     6   21    2 ar   
     7    4    3 ar   
     8   22    3 ar   
     9   23    3 1    
    10    5    4 ar   
    11   24    4 1    
    12   25    5 1    
    13    7    6 ar   
    14   11    6 ar   
    15   26    6 1    
    16    8    7 ar   
    17   27    7 1    
    18    9    8 ar   
    19   12    8 1    
    20   10    9 ar   
    21   14    9 1    
    22   11   10 ar   
    23   28   10 1    
    24   29   11 1    
    25   13   12 1    
    26   16   12 1    
    27   30   12 1    
    28   14   13 1    
    29   15   13 1    
    30   31   13 1    
    31   32   14 1    
    32   33   14 1    
    33   38   15 1    
    34   39   15 1    
    35   40   15 1    
    36   17   16 am   
    37   34   16 1    
    38   20   17 2    
    39   35   18 1    
    40   22   21 ar   
    41   36   21 1    
    42   37   22 1    
@<TRIPOS>SUBSTRUCTURE
     1 0LL513      1 GROUP   
@<TRIPOS>SET

