#    Name: 2xq0_BES_1_INTS_M
#    Modification time : Tue Mar 25 06:31:50 2014

@<TRIPOS>MOLECULE
2xq0_BES_1_INTS_M
   50     0    15     0     0
SMALL
NO_CHARGES


@<TRIPOS>ATOM
      1 OD1       -21.3245   -4.1735   16.1220 O.co2     3 ASC3        0.0000 
      2 OD1       -21.5920   -3.4090   14.9550 O.co2    13 ASL3        0.0000 
      3 OD1       -21.0570   -4.9380   17.2890 O.co2     8 ASP3        0.0000 
      4 OD1       -20.3140   -2.9150   14.7810 O.co2     3 ASC3        0.0000 
      5 OD1       -19.0360   -2.4210   14.6070 O.co2     8 ASP3        0.0000 
      6 OD1       -19.9930   -2.8550   15.8260 O.co2     3 ASC3        0.0000 
      7 OD1       -18.3940   -2.3010   16.6970 O.co2     8 ASP3        0.0000 
      8 O         -21.3245   -4.1735   16.1220 O.2       1 ALC1        0.0000 
      9 O         -21.5920   -3.4090   14.9550 O.2      11 ALL1        0.0000 
     10 O         -21.0570   -4.9380   17.2890 O.2       6 ALP1        0.0000 
     11 O         -20.3140   -2.9150   14.7810 O.2       1 ALC1        0.0000 
     12 O         -19.0360   -2.4210   14.6070 O.2       6 ALP1        0.0000 
     13 CA        -21.2665   -4.1455   14.5490 C.3       5 GLC5        0.0000 
     14 CA        -22.6260   -2.4150   14.7540 C.3      15 GLL5        0.0000 
     15 CA        -19.9070   -5.8760   14.3440 C.3      10 GLP5        0.0000 
     16 CA        -25.4170   -4.2900   13.4360 C.3       5 GLC5        0.0000 
     17 CA        -23.9570   -3.0970   14.4320 C.3      15 GLL5        0.0000 
     18 CA        -26.8770   -5.4830   12.4400 C.3      10 GLP5        0.0000 
     19 CA        -23.4945   -6.7205   17.2285 C.3       5 GLC5        0.0000 
     20 CA        -25.2530   -6.0080   16.5010 C.3      15 GLL5        0.0000 
     21 CA        -21.7360   -7.4330   17.9560 C.3      10 GLP5        0.0000 
     22 CA        -21.5760    0.6420   13.1715 C.3       5 GLC5        0.0000 
     23 CA        -22.2480   -1.4430   13.6290 C.3      15 GLL5        0.0000 
     24 CA        -20.9040    2.7270   12.7140 C.3      10 GLP5        0.0000 
     25 Zn        -21.1870    0.1685   14.5210 Zn        4 ZIC7        0.0000 
     26 Zn        -21.0000   -0.7610   13.8190 Zn       14 ZIL7        0.0000 
     27 Zn        -21.3740    1.0980   15.2230 Zn        9 ZIP7        0.0000 
     28 N         -19.9535   -0.7965   12.6285 N.am      2 SEC2        0.0000 
     29 N         -21.0000   -0.7610   13.8190 N.am     12 SEL2        0.0000 
     30 N         -18.9070   -0.8320   11.4380 N.am      7 SEP2        0.0000 
     31 O         -20.0180   -1.5910   14.2130 O.2       1 ALC1        0.0000 
     32 O         -21.0000   -0.7610   13.8190 O.2      11 ALL1        0.0000 
     33 Zn        -22.4430    0.7640   14.8035 Zn        4 ZIC7        0.0000 
     34 Zn        -23.5120    0.4300   14.3840 Zn       14 ZIL7        0.0000 
     35 CA        -22.4900    3.6695   11.2995 C.3       5 GLC5        0.0000 
     36 CA        -24.0560    3.4040   10.4990 C.3      15 GLL5        0.0000 
     37 CA        -20.9240    3.9350   12.1000 C.3      10 GLP5        0.0000 
     38 CA        -25.1455    2.6075   14.4975 C.3       5 GLC5        0.0000 
     39 CA        -25.1540    2.7870   12.6770 C.3      15 GLL5        0.0000 
     40 CA        -25.1370    2.4280   16.3180 C.3      10 GLP5        0.0000 
     41 N         -25.6440   -2.4510    9.5710 N.am      2 SEC2        0.0000 
     42 N         -25.5810   -1.9600   10.7900 N.am     12 SEL2        0.0000 
     43 N         -25.7070   -2.9420    8.3520 N.am      7 SEP2        0.0000 
     44 N         -24.3460   -2.2975    9.6575 N.am      2 SEC2        0.0000 
     45 N         -23.1110   -2.6350    8.5250 N.am      7 SEP2        0.0000 
     46 CA        -23.3635   -5.4813   18.3219 C.3       5 GLC5        0.0000 
     47 CA        -25.2260   -5.4680   17.7830 C.3      15 GLL5        0.0000 
     48 CA        -21.8230   -6.3390   19.0360 C.3      10 GLP5        0.0000 
     49 CA        -22.9534    2.4966   12.2919 C.3       5 GLC5        0.0000 
     50 CA        -24.6570    1.0200   10.9380 C.3      15 GLL5        0.0000 
@<TRIPOS>BOND
@<TRIPOS>SUBSTRUCTURE
     1 ALC1        8 GROUP        1 X    ALC  0     ROOT ALC X 1
     2 SEC2       28 GROUP        1 X    SEC  0     **** SEC X 2
     3 ASC3        1 GROUP        1 X    ASC  0     **** ASC X 3
     4 ZIC7       25 GROUP        1 X    ZIC  0     **** ZIC X 5
     5 GLC5       13 GROUP        1 X    GLC  0     **** GLC X 6
     6 ALP1       10 GROUP        1 Y    ALP  0     ROOT ALP Y 8
     7 SEP2       30 GROUP        1 Y    SEP  0     **** SEP Y 9
     8 ASP3        3 GROUP        1 Y    ASP  0     **** ASP Y 10
     9 ZIP7       27 GROUP        1 Y    ZIP  0     **** ZIP Y 12
    10 GLP5       15 GROUP        1 Y    GLP  0     **** GLP Y 13
    11 ALL1        9 GROUP        1 Z    ALL  0     ROOT ALL Z 15
    12 SEL2       29 GROUP        1 Z    SEL  0     **** SEL Z 16
    13 ASL3        2 GROUP        1 Z    ASL  0     **** ASL Z 17
    14 ZIL7       26 GROUP        1 Z    ZIL  0     **** ZIL Z 19
    15 GLL5       14 GROUP        1 Z    GLL  0     **** GLL Z 20
@<TRIPOS>SET

