#    Name: 2xq0_BES_1_ligand
#    Modification time : Tue Mar 25 06:31:50 2014

@<TRIPOS>MOLECULE
2xq0_BES_1_ligand
   46    46     1     0     0
SMALL
NO_CHARGES


@<TRIPOS>ATOM
      1 N2        -21.5920   -3.4090   14.9550 N.4       1 BES901      0.0000 
      2 C1        -22.6260   -2.4150   14.7540 C.3       1 BES901      0.0000 
      3 C6        -23.9570   -3.0970   14.4320 C.3       1 BES901      0.0000 
      4 C7        -24.4110   -3.9330   15.6080 C.ar      1 BES901      0.0000 
      5 C8        -24.3770   -3.3960   16.8900 C.ar      1 BES901      0.0000 
      6 C12       -24.8440   -5.2410   15.4130 C.ar      1 BES901      0.0000 
      7 C9        -24.7870   -4.1620   17.9750 C.ar      1 BES901      0.0000 
      8 C11       -25.2530   -6.0080   16.5010 C.ar      1 BES901      0.0000 
      9 C10       -25.2260   -5.4680   17.7830 C.ar      1 BES901      0.0000 
     10 C2        -22.2480   -1.4430   13.6290 C.3       1 BES901      0.0000 
     11 O2        -21.0000   -0.7610   13.8190 O.3       1 BES901      0.0000 
     12 C3        -23.3500   -0.4420   13.5270 C.2       1 BES901      0.0000 
     13 O3        -23.5120    0.4300   14.3840 O.2       1 BES901      0.0000 
     14 N1        -24.0800   -0.6660   12.4420 N.am      1 BES901      0.0000 
     15 C4        -25.2390    0.0650   11.9730 C.3       1 BES901      0.0000 
     16 C13       -24.6570    1.0200   10.9380 C.3       1 BES901      0.0000 
     17 C14       -25.0460    2.4710   11.1870 C.3       1 BES901      0.0000 
     18 C15       -24.0560    3.4040   10.4990 C.3       1 BES901      0.0000 
     19 C16       -25.1540    2.7870   12.6770 C.3       1 BES901      0.0000 
     20 C5        -26.1190   -0.9330   11.2760 C.2       1 BES901      0.0000 
     21 O1        -27.3490   -0.7150   11.2080 O.co2     1 BES901      0.0000 
     22 O4        -25.5810   -1.9600   10.7900 O.co2     1 BES901      0.0000 
     23 H         -22.7695   -1.8294   15.6612 H         1 BES901      0.0000 
     24 H         -23.8283   -3.7315   13.5586 H         1 BES901      0.0000 
     25 H         -24.7019   -2.3358   14.2135 H         1 BES901      0.0000 
     26 H         -24.0486   -2.4325   17.0353 H         1 BES901      0.0000 
     27 H         -24.8621   -5.6412   14.4667 H         1 BES901      0.0000 
     28 H         -24.7659   -3.7622   18.9235 H         1 BES901      0.0000 
     29 H         -25.5749   -6.9735   16.3563 H         1 BES901      0.0000 
     30 H         -25.5295   -6.0323   18.5856 H         1 BES901      0.0000 
     31 H         -22.2448   -2.0139   12.6962 H         1 BES901      0.0000 
     32 H         -23.8083   -1.4968   11.7912 H         1 BES901      0.0000 
     33 H         -25.7212    0.5718   12.7133 H         1 BES901      0.0000 
     34 H         -25.0036    0.7212    9.9393 H         1 BES901      0.0000 
     35 H         -23.5618    0.9348   10.9471 H         1 BES901      0.0000 
     36 H         -26.0295    2.6385   10.7325 H         1 BES901      0.0000 
     37 H         -20.6903   -3.0650   14.6932 H         1 BES901      0.0000 
     38 H         -21.5309   -3.6931   15.9118 H         1 BES901      0.0000 
     39 H         -21.7594   -4.2336   14.4146 H         1 BES901      0.0000 
     40 H         -23.1244    3.2721   10.8377 H         1 BES901      0.0000 
     41 H         -24.0321    3.2563    9.5103 H         1 BES901      0.0000 
     42 H         -24.2880    4.3655   10.6462 H         1 BES901      0.0000 
     43 H         -24.2879    2.6340   13.1528 H         1 BES901      0.0000 
     44 H         -25.4119    3.7399   12.8368 H         1 BES901      0.0000 
     45 H         -25.8410    2.2177   13.1285 H         1 BES901      0.0000 
     46 H         -20.5152   -1.2965   14.5105 H         1 BES901      0.0000 
@<TRIPOS>BOND
     1    2    1 1    
     2   37    1 1    
     3   38    1 1    
     4   39    1 1    
     5    3    2 1    
     6   10    2 1    
     7   23    2 1    
     8    4    3 1    
     9   24    3 1    
    10   25    3 1    
    11    5    4 ar   
    12    6    4 ar   
    13    7    5 ar   
    14   26    5 1    
    15    8    6 ar   
    16   27    6 1    
    17    9    7 ar   
    18   28    7 1    
    19    9    8 ar   
    20   29    8 1    
    21   30    9 1    
    22   11   10 1    
    23   12   10 1    
    24   31   10 1    
    25   46   11 1    
    26   13   12 2    
    27   14   12 am   
    28   15   14 1    
    29   32   14 1    
    30   16   15 1    
    31   20   15 1    
    32   33   15 1    
    33   17   16 1    
    34   34   16 1    
    35   35   16 1    
    36   18   17 1    
    37   19   17 1    
    38   36   17 1    
    39   40   18 1    
    40   41   18 1    
    41   42   18 1    
    42   43   19 1    
    43   44   19 1    
    44   45   19 1    
    45   21   20 ar   
    46   22   20 ar   
@<TRIPOS>SUBSTRUCTURE
     1 BES901      1 GROUP   
@<TRIPOS>SET

