#    Name: 3mhl_J71_1_INTS_M
#    Modification time : Mon Mar 24 23:13:43 2014

@<TRIPOS>MOLECULE
3mhl_J71_1_INTS_M
   35     0    12     0     0
SMALL
NO_CHARGES


@<TRIPOS>ATOM
      1 CA         -7.3615    4.9705   15.0200 C.3       4 GLC5        0.0000 
      2 CA         -5.4450    4.3270   14.5960 C.3      12 GLL5        0.0000 
      3 CA         -9.2780    5.6140   15.4440 C.3       8 GLP5        0.0000 
      4 CA         -7.7310    3.2000   15.0135 C.3       4 GLC5        0.0000 
      5 CA         -5.8950    3.2150   15.3960 C.3      12 GLL5        0.0000 
      6 CA         -9.5670    3.1850   14.6310 C.3       8 GLP5        0.0000 
      7 CA         -2.8235    2.7975   16.9350 C.3       4 GLC5        0.0000 
      8 CA         -3.6740    2.1640   15.3040 C.3      12 GLL5        0.0000 
      9 CA         -1.9730    3.4310   18.5660 C.3       8 GLP5        0.0000 
     10 CA         -1.8560    1.1110   14.9360 C.3       4 GLC5        0.0000 
     11 CA         -0.0380    0.0580   14.5680 C.3       8 GLP5        0.0000 
     12 N          -3.7885    0.5645   18.3760 N.am      2 SEC2        0.0000 
     13 N          -5.1200    0.9100   17.9660 N.am     10 SEL2        0.0000 
     14 N          -2.4570    0.2190   18.7860 N.am      6 SEP2        0.0000 
     15 O          -4.1710   -1.3170   16.6445 O.2       1 ALC1        0.0000 
     16 O          -4.9200   -0.4920   15.9450 O.2       9 ALL1        0.0000 
     17 O          -3.4220   -2.1420   17.3440 O.2       5 ALP1        0.0000 
     18 Zn         -5.6745   -1.0870   15.5330 Zn        3 ZIC7        0.0000 
     19 Zn         -4.9200   -0.4920   15.9450 Zn       11 ZIL7        0.0000 
     20 Zn         -6.4290   -1.6820   15.1210 Zn        7 ZIP7        0.0000 
     21 N          -6.8285    5.0785   10.6120 N.am      2 SEC2        0.0000 
     22 N          -6.2740    6.3990   10.3250 N.am     10 SEL2        0.0000 
     23 N          -7.3830    3.7580   10.8990 N.am      6 SEP2        0.0000 
     24 CA         -7.5185   11.0855   10.6515 C.3       4 GLC5        0.0000 
     25 CA         -5.7040   11.6980   10.1900 C.3      12 GLL5        0.0000 
     26 CA         -9.3330   10.4730   11.1130 C.3       8 GLP5        0.0000 
     27 CA         -5.6510   11.2230   11.9420 C.3       4 GLC5        0.0000 
     28 CA         -5.5980   10.7480   13.6940 C.3       8 GLP5        0.0000 
     29 CA         -4.5080    7.0005   14.0725 C.3       4 GLC5        0.0000 
     30 CA         -3.3920    5.4040   13.3930 C.3      12 GLL5        0.0000 
     31 CA         -5.6240    8.5970   14.7520 C.3       8 GLP5        0.0000 
     32 CA         -4.6775    3.8605   16.7945 C.3       4 GLC5        0.0000 
     33 CA         -3.9010    5.0460   18.0540 C.3       8 GLP5        0.0000 
     34 CA         -3.9486    4.4177   16.2626 C.3       4 GLC5        0.0000 
     35 CA         -4.0820    4.3290   14.2150 C.3      12 GLL5        0.0000 
@<TRIPOS>BOND
@<TRIPOS>SUBSTRUCTURE
     1 ALC1       15 GROUP        1 X    ALC  0     ROOT ALC X 1
     2 SEC2       12 GROUP        1 X    SEC  0     **** SEC X 2
     3 ZIC7       18 GROUP        1 X    ZIC  0     **** ZIC X 5
     4 GLC5        1 GROUP        1 X    GLC  0     **** GLC X 6
     5 ALP1       17 GROUP        1 Y    ALP  0     ROOT ALP Y 8
     6 SEP2       14 GROUP        1 Y    SEP  0     **** SEP Y 9
     7 ZIP7       20 GROUP        1 Y    ZIP  0     **** ZIP Y 12
     8 GLP5        3 GROUP        1 Y    GLP  0     **** GLP Y 13
     9 ALL1       16 GROUP        1 Z    ALL  0     ROOT ALL Z 15
    10 SEL2       13 GROUP        1 Z    SEL  0     **** SEL Z 16
    11 ZIL7       19 GROUP        1 Z    ZIL  0     **** ZIL Z 19
    12 GLL5        2 GROUP        1 Z    GLL  0     **** GLL Z 20
@<TRIPOS>SET

