#    Name: 3mhl_J71_1_ligand
#    Modification time : Mon Mar 24 23:13:43 2014

@<TRIPOS>MOLECULE
3mhl_J71_1_ligand
   35    36     1     0     0
SMALL
NO_CHARGES


@<TRIPOS>ATOM
      1 N1         -3.3010    9.8570   11.0590 N.ar      1 J71265      0.0000 
      2 C2         -2.4370    9.1480   11.8180 C.ar      1 J71265      0.0000 
      3 N3         -2.7590    7.9360   12.3130 N.ar      1 J71265      0.0000 
      4 C4         -3.9750    7.3920   12.0330 C.ar      1 J71265      0.0000 
      5 C5         -4.9080    8.1060   11.2010 C.ar      1 J71265      0.0000 
      6 C6         -4.5270    9.4110   10.6980 C.ar      1 J71265      0.0000 
      7 N7         -4.2880    6.1130   12.5700 N.pl3     1 J71265      0.0000 
      8 C8         -4.0820    4.3290   14.2150 C.ar      1 J71265      0.0000 
      9 C9         -5.4450    4.3270   14.5960 C.ar      1 J71265      0.0000 
     10 C10        -5.8950    3.2150   15.3960 C.ar      1 J71265      0.0000 
     11 C11        -5.0130    2.1350   15.6740 C.ar      1 J71265      0.0000 
     12 C12        -3.6740    2.1640   15.3040 C.ar      1 J71265      0.0000 
     13 C13        -3.2290    3.2510   14.5370 C.ar      1 J71265      0.0000 
     14 S14        -5.6340    0.8510   16.6480 S.o2      1 J71265      0.0000 
     15 O15        -5.1200    0.9100   17.9660 O.2       1 J71265      0.0000 
     16 O16        -7.0900    0.8590   16.4600 O.2       1 J71265      0.0000 
     17 N17        -4.9200   -0.4920   15.9450 N.pl3     1 J71265      0.0000 
     18 N18        -6.2190    7.3910   10.9460 N.pl3     1 J71265      0.0000 
     19 O19        -6.2740    6.3990   10.3250 O.2       1 J71265      0.0000 
     20 O20        -7.3770    7.8660   11.3830 O.2       1 J71265      0.0000 
     21 O21        -5.2760   10.3850    9.8140 O.3       1 J71265      0.0000 
     22 C22        -5.7040   11.6980   10.1900 C.3       1 J71265      0.0000 
     23 C23        -3.3920    5.4040   13.3930 C.3       1 J71265      0.0000 
     24 H          -1.4877    9.5536   12.0277 H         1 J71265      0.0000 
     25 H          -5.2083    5.6934   12.3446 H         1 J71265      0.0000 
     26 H          -6.0714    5.0506   14.3316 H         1 J71265      0.0000 
     27 H          -6.8436    3.2115   15.7568 H         1 J71265      0.0000 
     28 H          -3.0356    1.4280   15.5758 H         1 J71265      0.0000 
     29 H          -2.2522    3.2667   14.1970 H         1 J71265      0.0000 
     30 H          -2.8649    6.0767   14.1034 H         1 J71265      0.0000 
     31 H          -2.5941    4.9066   12.8006 H         1 J71265      0.0000 
     32 H          -4.9336   12.2785   10.4534 H         1 J71265      0.0000 
     33 H          -6.1786   12.1623    9.4422 H         1 J71265      0.0000 
     34 H          -6.3330   11.6753   10.9671 H         1 J71265      0.0000 
     35 H          -4.0913   -0.6545   16.4806 H         1 J71265      0.0000 
@<TRIPOS>BOND
     1    2    1 ar   
     2    6    1 ar   
     3    3    2 ar   
     4   24    2 1    
     5    4    3 ar   
     6    5    4 ar   
     7    7    4 1    
     8    6    5 ar   
     9   18    5 1    
    10   21    6 1    
    11   23    7 1    
    12   25    7 1    
    13    9    8 ar   
    14   13    8 ar   
    15   23    8 1    
    16   10    9 ar   
    17   26    9 1    
    18   11   10 ar   
    19   27   10 1    
    20   12   11 ar   
    21   14   11 1    
    22   13   12 ar   
    23   28   12 1    
    24   29   13 1    
    25   15   14 2    
    26   16   14 2    
    27   17   14 1    
    28   35   17 1    
    29   19   18 2    
    30   20   18 2    
    31   22   21 1    
    32   32   22 1    
    33   33   22 1    
    34   34   22 1    
    35   30   23 1    
    36   31   23 1    
@<TRIPOS>SUBSTRUCTURE
     1 J71265      1 GROUP   
@<TRIPOS>SET

