#    Name: 3n8y_DIF_1_INTS_M
#    Modification time : Tue Mar 25 01:05:19 2014

@<TRIPOS>MOLECULE
3n8y_DIF_1_INTS_M
   65     0     6     0     0
SMALL
NO_CHARGES


@<TRIPOS>ATOM
      1 CA         34.9140  -44.0660   -6.6275 C.3       2 GLC5        0.0000 
      2 CA         33.2510  -43.5720   -6.1420 C.3       6 GLL5        0.0000 
      3 CA         36.5770  -44.5600   -7.1130 C.3       4 GLP5        0.0000 
      4 CA         33.7805  -42.0800   -7.0320 C.3       2 GLC5        0.0000 
      5 CA         34.3100  -40.5880   -7.9220 C.3       4 GLP5        0.0000 
      6 CA         33.2560  -45.0630   -7.7640 C.3       2 GLC5        0.0000 
      7 CA         33.2610  -46.5540   -9.3860 C.3       4 GLP5        0.0000 
      8 CA         34.1170  -42.9205   -1.6025 C.3       2 GLC5        0.0000 
      9 CA         32.8070  -44.2260   -0.6770 C.3       6 GLL5        0.0000 
     10 CA         35.4270  -41.6150   -2.5280 C.3       4 GLP5        0.0000 
     11 CA         31.1865  -45.2050   -1.1035 C.3       2 GLC5        0.0000 
     12 CA         29.5660  -46.1840   -1.5300 C.3       4 GLP5        0.0000 
     13 CA         32.9775  -45.9150   -0.0520 C.3       2 GLC5        0.0000 
     14 CA         33.1480  -47.6040    0.5730 C.3       4 GLP5        0.0000 
     15 CA         31.9480  -43.8145    0.8705 C.3       2 GLC5        0.0000 
     16 CA         31.0890  -43.4030    2.4180 C.3       4 GLP5        0.0000 
     17 CA         30.7425  -42.3550   -0.0485 C.3       2 GLC5        0.0000 
     18 CA         31.5070  -42.2620   -2.1200 C.3       6 GLL5        0.0000 
     19 CA         29.9780  -42.4480    2.0230 C.3       4 GLP5        0.0000 
     20 CA         32.1370  -50.5550   -5.0040 C.3       2 GLC5        0.0000 
     21 CA         32.7200  -48.5870   -4.8390 C.3       6 GLL5        0.0000 
     22 CA         31.5540  -52.5230   -5.1690 C.3       4 GLP5        0.0000 
     23 CA         37.6355  -46.9465   -3.2250 C.3       2 GLC5        0.0000 
     24 CA         35.7850  -46.8540   -3.4490 C.3       6 GLL5        0.0000 
     25 CA         39.4860  -47.0390   -3.0010 C.3       4 GLP5        0.0000 
     26 CA         36.3365  -45.0590   -2.4170 C.3       2 GLC5        0.0000 
     27 CA         36.8880  -43.2640   -1.3850 C.3       4 GLP5        0.0000 
     28 CA         36.6870  -45.7590   -4.7245 C.3       2 GLC5        0.0000 
     29 CA         37.5890  -44.6640   -6.0000 C.3       4 GLP5        0.0000 
     30 CA         36.4385  -48.9645   -3.4450 C.3       2 GLC5        0.0000 
     31 CA         37.0920  -51.0750   -3.4410 C.3       4 GLP5        0.0000 
     32 CA         36.1545  -48.0855   -5.1010 C.3       2 GLC5        0.0000 
     33 CA         36.5240  -49.3170   -6.7530 C.3       4 GLP5        0.0000 
     34 N          36.9360  -49.0175   -2.3360 N.am      1 SEC2        0.0000 
     35 N          36.2540  -48.1920   -1.5330 N.am      5 SEL2        0.0000 
     36 N          37.6180  -49.8430   -3.1390 N.am      3 SEP2        0.0000 
     37 N          35.2680  -47.5020   -0.3295 N.am      1 SEC2        0.0000 
     38 N          34.2820  -46.8120    0.8740 N.am      3 SEP2        0.0000 
     39 N          34.9165  -46.4740   -0.1655 N.am      1 SEC2        0.0000 
     40 N          35.5510  -46.1360   -1.2050 N.am      5 SEL2        0.0000 
     41 CA         33.7823  -42.0690   -3.5300 C.3       2 GLC5        0.0000 
     42 CA         32.5740  -43.0660   -4.5590 C.3       6 GLL5        0.0000 
     43 CA         33.1068  -41.2640   -5.5290 C.3       2 GLC5        0.0000 
     44 CA         34.0760  -40.0050   -6.5260 C.3       4 GLP5        0.0000 
     45 CA         29.9810  -42.5100   -5.1372 C.3       2 GLC5        0.0000 
     46 CA         31.7010  -41.9800   -4.5050 C.3       6 GLL5        0.0000 
     47 CA         28.5280  -43.2420   -6.3800 C.3       4 GLP5        0.0000 
     48 CA         31.7862  -43.3325   -6.8338 C.3       2 GLC5        0.0000 
     49 CA         30.6600  -43.3460   -8.3170 C.3       4 GLP5        0.0000 
     50 CA         34.0345  -42.5845   -2.6590 C.3       2 GLC5        0.0000 
     51 CA         32.9070  -43.7580   -3.3990 C.3       6 GLL5        0.0000 
     52 CA         30.8605  -44.2045   -2.4505 C.3       2 GLC5        0.0000 
     53 CA         29.0790  -44.8550   -2.1110 C.3       4 GLP5        0.0000 
     54 CA         33.3820  -41.7670   -2.6150 C.3       2 GLC5        0.0000 
     55 CA         30.2080  -43.3870   -2.4065 C.3       2 GLC5        0.0000 
     56 CA         30.2848  -46.3302   -5.7580 C.3       2 GLC5        0.0000 
     57 CA         32.1210  -46.3030   -4.3440 C.3       6 GLL5        0.0000 
     58 CA         28.6220  -45.7260   -6.9350 C.3       4 GLP5        0.0000 
     59 CA         30.7568  -46.5592   -3.0555 C.3       2 GLC5        0.0000 
     60 CA         31.7740  -47.5660   -4.8180 C.3       6 GLL5        0.0000 
     61 CA         30.8774  -48.6694   -3.9970 C.3       2 GLC5        0.0000 
     62 CA         29.4210  -49.5780   -3.2840 C.3       4 GLP5        0.0000 
     63 CA         34.8858  -46.6584   -5.6949 C.3       2 GLC5        0.0000 
     64 CA         34.0150  -48.3390   -4.3920 C.3       6 GLL5        0.0000 
     65 CA         35.8180  -45.8670   -7.2400 C.3       4 GLP5        0.0000 
@<TRIPOS>BOND
@<TRIPOS>SUBSTRUCTURE
     1 SEC2       34 GROUP        1 X    SEC  0     ROOT SEC X 2
     2 GLC5        1 GROUP        1 X    GLC  0     **** GLC X 6
     3 SEP2       36 GROUP        1 Y    SEP  0     ROOT SEP Y 9
     4 GLP5        3 GROUP        1 Y    GLP  0     **** GLP Y 13
     5 SEL2       35 GROUP        1 Z    SEL  0     ROOT SEL Z 16
     6 GLL5        2 GROUP        1 Z    GLL  0     **** GLL Z 20
@<TRIPOS>SET

