#    Name: 3n8y_DIF_1_ligand
#    Modification time : Tue Mar 25 01:05:19 2014

@<TRIPOS>MOLECULE
3n8y_DIF_1_ligand
   29    30     1     0     0
SMALL
NO_CHARGES


@<TRIPOS>ATOM
      1 C1         31.7010  -41.9800   -4.5050 C.ar      1 DIF701      0.0000 
      2 C2         32.5740  -43.0660   -4.5590 C.ar      1 DIF701      0.0000 
      3 CL2        33.2510  -43.5720   -6.1420 Cl        1 DIF701      0.0000 
      4 C3         32.9070  -43.7580   -3.3990 C.ar      1 DIF701      0.0000 
      5 C4         32.3770  -43.3500   -2.1810 C.ar      1 DIF701      0.0000 
      6 CL4        32.8070  -44.2260   -0.6770 Cl        1 DIF701      0.0000 
      7 C5         31.5070  -42.2620   -2.1200 C.ar      1 DIF701      0.0000 
      8 C6         31.1670  -41.5760   -3.2840 C.ar      1 DIF701      0.0000 
      9 N1         33.7590  -44.8130   -3.4380 N.pl3     1 DIF701      0.0000 
     10 C7         34.3650  -47.0740   -3.9210 C.ar      1 DIF701      0.0000 
     11 C8         33.4190  -46.0470   -3.8940 C.ar      1 DIF701      0.0000 
     12 C9         32.1210  -46.3030   -4.3440 C.ar      1 DIF701      0.0000 
     13 C10        31.7740  -47.5660   -4.8180 C.ar      1 DIF701      0.0000 
     14 C11        32.7200  -48.5870   -4.8390 C.ar      1 DIF701      0.0000 
     15 C12        34.0150  -48.3390   -4.3920 C.ar      1 DIF701      0.0000 
     16 C13        35.7850  -46.8540   -3.4490 C.3       1 DIF701      0.0000 
     17 C14        35.8690  -47.0790   -1.9580 C.2       1 DIF701      0.0000 
     18 O1         36.2540  -48.1920   -1.5330 O.co2     1 DIF701      0.0000 
     19 O2         35.5510  -46.1360   -1.2050 O.co2     1 DIF701      0.0000 
     20 H          31.4523  -41.4785   -5.3664 H         1 DIF701      0.0000 
     21 H          31.1171  -41.9667   -1.2168 H         1 DIF701      0.0000 
     22 H          30.5258  -40.7765   -3.2414 H         1 DIF701      0.0000 
     23 H          34.7564  -44.6658   -3.0898 H         1 DIF701      0.0000 
     24 H          31.4173  -45.5511   -4.3242 H         1 DIF701      0.0000 
     25 H          30.8183  -47.7439   -5.1525 H         1 DIF701      0.0000 
     26 H          32.4638  -49.5193   -5.1828 H         1 DIF701      0.0000 
     27 H          34.7170  -49.0911   -4.4088 H         1 DIF701      0.0000 
     28 H          36.0904  -45.8358   -3.6812 H         1 DIF701      0.0000 
     29 H          36.4484  -47.5488   -3.9599 H         1 DIF701      0.0000 
@<TRIPOS>BOND
     1    2    1 ar   
     2    8    1 ar   
     3   20    1 1    
     4    3    2 1    
     5    4    2 ar   
     6    5    4 ar   
     7    9    4 1    
     8    6    5 1    
     9    7    5 ar   
    10    8    7 ar   
    11   21    7 1    
    12   22    8 1    
    13   11    9 1    
    14   23    9 1    
    15   11   10 ar   
    16   15   10 ar   
    17   16   10 1    
    18   12   11 ar   
    19   13   12 ar   
    20   24   12 1    
    21   14   13 ar   
    22   25   13 1    
    23   15   14 ar   
    24   26   14 1    
    25   27   15 1    
    26   17   16 1    
    27   28   16 1    
    28   29   16 1    
    29   18   17 ar   
    30   19   17 ar   
@<TRIPOS>SUBSTRUCTURE
     1 DIF701      1 GROUP   
@<TRIPOS>SET

