#    Name: 2cea_ADP_3_INTS_M
#    Modification time : Mon Mar 24 23:35:41 2014

@<TRIPOS>MOLECULE
2cea_ADP_3_INTS_M
   77     0    15     0     0
SMALL
NO_CHARGES


@<TRIPOS>ATOM
      1 NZ         51.7860  110.4800   91.5525 N.4       3 LYC4        0.0000 
      2 NZ         50.1930  110.7240   92.6510 N.4      13 LYL4        0.0000 
      3 NZ         53.3790  110.2360   90.4540 N.4       8 LYP4        0.0000 
      4 N          49.5730  109.8095   93.4755 N.am      2 SEC2        0.0000 
      5 N          50.1930  110.7240   92.6510 N.am     12 SEL2        0.0000 
      6 N          48.9530  108.8950   94.3000 N.am      7 SEP2        0.0000 
      7 N          49.3735  111.0575   93.8970 N.am      2 SEC2        0.0000 
      8 N          48.5540  111.3910   95.1430 N.am      7 SEP2        0.0000 
      9 N          50.1695  112.0665   93.4920 N.am      2 SEC2        0.0000 
     10 N          50.1460  113.4090   94.3330 N.am      7 SEP2        0.0000 
     11 Zn         49.8260  110.2255   89.6175 Zn        4 ZIC7        0.0000 
     12 Zn         49.0720  110.3580   90.3970 Zn       14 ZIL7        0.0000 
     13 Zn         50.5800  110.0930   88.8380 Zn        9 ZIP7        0.0000 
     14 N          48.9340  109.2525   91.0445 N.am      2 SEC2        0.0000 
     15 N          49.0720  110.3580   90.3970 N.am     12 SEL2        0.0000 
     16 N          48.7960  108.1470   91.6920 N.am      7 SEP2        0.0000 
     17 N          49.8510  114.0275   91.6230 N.am      2 SEC2        0.0000 
     18 N          49.9680  112.6360   91.0000 N.am     12 SEL2        0.0000 
     19 N          49.7340  115.4190   92.2460 N.am      7 SEP2        0.0000 
     20 N          49.3550  113.8550   90.3425 N.am      2 SEC2        0.0000 
     21 N          48.7420  115.0740   89.6850 N.am      7 SEP2        0.0000 
     22 N          46.9410  115.0970   92.6990 N.am      2 SEC2        0.0000 
     23 N          46.4090  113.6660   91.9070 N.am     12 SEL2        0.0000 
     24 N          47.4730  116.5280   93.4910 N.am      7 SEP2        0.0000 
     25 N          48.2825  111.5535   93.6700 N.am      2 SEC2        0.0000 
     26 N          48.0110  111.7160   92.1970 N.am     12 SEL2        0.0000 
     27 CA         46.3875  109.5260   92.6830 C.3       5 GLC5        0.0000 
     28 CA         45.1990  110.9410   92.8930 C.3      15 GLL5        0.0000 
     29 CA         47.5760  108.1110   92.4730 C.3      10 GLP5        0.0000 
     30 CA         46.6625  111.8455   94.1745 C.3       5 GLC5        0.0000 
     31 CA         48.1260  112.7500   95.4560 C.3      10 GLP5        0.0000 
     32 CA         44.7480  108.9885   92.6780 C.3       5 GLC5        0.0000 
     33 CA         44.2970  107.0360   92.4630 C.3      10 GLP5        0.0000 
     34 CA         43.5285  109.1365   93.3305 C.3       5 GLC5        0.0000 
     35 CA         43.6880  111.1460   93.0350 C.3      15 GLL5        0.0000 
     36 CA         43.3690  107.1270   93.6260 C.3      10 GLP5        0.0000 
     37 CA         43.5810  109.2345   96.2160 C.3       5 GLC5        0.0000 
     38 CA         42.7310  110.9570   95.1850 C.3      15 GLL5        0.0000 
     39 CA         44.4310  107.5120   97.2470 C.3      10 GLP5        0.0000 
     40 CA         43.0500  109.0420   94.4055 C.3       5 GLC5        0.0000 
     41 CA         40.9675  109.6840   95.0005 C.3       5 GLC5        0.0000 
     42 CA         39.2040  108.4110   94.8160 C.3      10 GLP5        0.0000 
     43 CA         46.6210  112.0210   96.7215 C.3       5 GLC5        0.0000 
     44 CA         45.1160  111.2920   97.9870 C.3      15 GLL5        0.0000 
     45 CA         46.1975  113.4550   99.9875 C.3       5 GLC5        0.0000 
     46 CA         45.3000  111.5970   99.4090 C.3      15 GLL5        0.0000 
     47 CA         47.0950  115.3130  100.5660 C.3      10 GLP5        0.0000 
     48 CA         45.1125  112.1490  101.5200 C.3       5 GLC5        0.0000 
     49 CA         44.9250  112.7010  103.6310 C.3      10 GLP5        0.0000 
     50 O          46.5525  111.5165  101.1965 O.2       1 ALC1        0.0000 
     51 O          46.5280  111.5740   99.9750 O.2      11 ALL1        0.0000 
     52 O          46.5770  111.4590  102.4180 O.2       6 ALP1        0.0000 
     53 N          44.4690  112.7305  101.2980 N.am      2 SEC2        0.0000 
     54 N          44.2050  111.9010  100.1300 N.am     12 SEL2        0.0000 
     55 N          44.7330  113.5600  102.4660 N.am      7 SEP2        0.0000 
     56 CA         43.8235  113.7995  100.4220 C.3       5 GLC5        0.0000 
     57 CA         42.9700  111.9310   99.5820 C.3      15 GLL5        0.0000 
     58 CA         44.6770  115.6680  101.2620 C.3      10 GLP5        0.0000 
     59 CA         43.5365  113.4870   98.0940 C.3       5 GLC5        0.0000 
     60 CA         44.1030  115.0430   96.6060 C.3      10 GLP5        0.0000 
     61 CA         42.5190  110.3725   99.8655 C.3       5 GLC5        0.0000 
     62 CA         42.0680  108.8140  100.1490 C.3      10 GLP5        0.0000 
     63 CA         42.1255  112.8880  101.2705 C.3       5 GLC5        0.0000 
     64 CA         41.2810  113.8450  102.9590 C.3      10 GLP5        0.0000 
     65 CA         41.1170  111.2085   99.0555 C.3       5 GLC5        0.0000 
     66 CA         39.2640  110.4860   98.5290 C.3      10 GLP5        0.0000 
     67 N          41.3625  111.4590   97.9675 N.am      2 SEC2        0.0000 
     68 N          42.7410  111.6540   98.2780 N.am     12 SEL2        0.0000 
     69 N          39.9840  111.2640   97.6570 N.am      7 SEP2        0.0000 
     70 CA         42.9130  110.0765   98.7985 C.3       5 GLC5        0.0000 
     71 CA         43.7580  111.3390   97.4480 C.3      15 GLL5        0.0000 
     72 CA         43.5090  113.7510   95.3663 C.3       5 GLC5        0.0000 
     73 CA         42.4490  112.3650   94.7180 C.3      15 GLL5        0.0000 
     74 CA         44.2700  113.1792   97.1617 C.3       5 GLC5        0.0000 
     75 CA         45.0895  110.1598   99.7380 C.3       5 GLC5        0.0000 
     76 CA         44.9710  108.8750  100.7780 C.3      10 GLP5        0.0000 
     77 CA         44.4340  109.4137   97.4822 C.3       5 GLC5        0.0000 
@<TRIPOS>BOND
@<TRIPOS>SUBSTRUCTURE
     1 ALC1       50 GROUP        1 X    ALC  0     ROOT ALC X 1
     2 SEC2        4 GROUP        1 X    SEC  0     **** SEC X 2
     3 LYC4        1 GROUP        1 X    LYC  0     **** LYC X 4
     4 ZIC7       11 GROUP        1 X    ZIC  0     **** ZIC X 5
     5 GLC5       27 GROUP        1 X    GLC  0     **** GLC X 6
     6 ALP1       52 GROUP        1 Y    ALP  0     ROOT ALP Y 8
     7 SEP2        6 GROUP        1 Y    SEP  0     **** SEP Y 9
     8 LYP4        3 GROUP        1 Y    LYP  0     **** LYP Y 11
     9 ZIP7       13 GROUP        1 Y    ZIP  0     **** ZIP Y 12
    10 GLP5       29 GROUP        1 Y    GLP  0     **** GLP Y 13
    11 ALL1       51 GROUP        1 Z    ALL  0     ROOT ALL Z 15
    12 SEL2        5 GROUP        1 Z    SEL  0     **** SEL Z 16
    13 LYL4        2 GROUP        1 Z    LYL  0     **** LYL Z 18
    14 ZIL7       12 GROUP        1 Z    ZIL  0     **** ZIL Z 19
    15 GLL5       28 GROUP        1 Z    GLL  0     **** GLL Z 20
@<TRIPOS>SET

