#    Name: 2cea_ADP_3_ligand
#    Modification time : Mon Mar 24 23:35:42 2014

@<TRIPOS>MOLECULE
2cea_ADP_3_ligand
   39    41     1     0     0
SMALL
NO_CHARGES


@<TRIPOS>ATOM
      1 PB         49.4210  111.3270   91.5040 P.3       1 ADP1608     0.0000 
      2 O1B        50.1930  110.7240   92.6510 O.co2     1 ADP1608     0.0000 
      3 O2B        49.0720  110.3580   90.3970 O.co2     1 ADP1608     0.0000 
      4 O3B        49.9680  112.6360   91.0000 O.co2     1 ADP1608     0.0000 
      5 PA         46.8080  112.3310   91.3110 P.3       1 ADP1608     0.0000 
      6 O1A        46.4090  113.6660   91.9070 O.co2     1 ADP1608     0.0000 
      7 O2A        47.2040  112.2550   89.8390 O.co2     1 ADP1608     0.0000 
      8 O3A        48.0110  111.7160   92.1970 O.3       1 ADP1608     0.0000 
      9 O5'        45.6060  111.2830   91.5730 O.3       1 ADP1608     0.0000 
     10 C5'        45.1990  110.9410   92.8930 C.3       1 ADP1608     0.0000 
     11 C4'        43.6880  111.1460   93.0350 C.3       1 ADP1608     0.0000 
     12 O4'        43.1280  110.2350   94.0050 O.3       1 ADP1608     0.0000 
     13 C3'        43.3810  112.5530   93.5350 C.3       1 ADP1608     0.0000 
     14 O3'        42.8060  113.3610   92.4970 O.3       1 ADP1608     0.0000 
     15 C2'        42.4490  112.3650   94.7180 C.3       1 ADP1608     0.0000 
     16 O2'        41.0770  112.4780   94.3170 O.3       1 ADP1608     0.0000 
     17 C1'        42.7310  110.9570   95.1850 C.3       1 ADP1608     0.0000 
     18 N9         43.8510  111.0270   96.1550 N.pl3     1 ADP1608     0.0000 
     19 C8         45.1570  110.8020   95.8640 C.2       1 ADP1608     0.0000 
     20 N7         45.9280  110.9590   96.9770 N.2       1 ADP1608     0.0000 
     21 C5         45.1160  111.2920   97.9870 C.ar      1 ADP1608     0.0000 
     22 C6         45.3000  111.5970   99.4090 C.ar      1 ADP1608     0.0000 
     23 N6         46.5280  111.5740   99.9750 N.pl3     1 ADP1608     0.0000 
     24 N1         44.2050  111.9010  100.1300 N.ar      1 ADP1608     0.0000 
     25 C2         42.9700  111.9310   99.5820 C.ar      1 ADP1608     0.0000 
     26 N3         42.7410  111.6540   98.2780 N.ar      1 ADP1608     0.0000 
     27 C4         43.7580  111.3390   97.4480 C.ar      1 ADP1608     0.0000 
     28 H          45.6904  111.5650   93.6482 H         1 ADP1608     0.0000 
     29 H          45.4149  109.8930   93.1301 H         1 ADP1608     0.0000 
     30 H          43.2228  111.0210   92.0783 H         1 ADP1608     0.0000 
     31 H          44.3075  112.9682   93.9081 H         1 ADP1608     0.0000 
     32 H          42.7231  113.0399   95.4819 H         1 ADP1608     0.0000 
     33 H          41.8659  110.5606   95.6251 H         1 ADP1608     0.0000 
     34 H          45.4995  110.5615   94.9833 H         1 ADP1608     0.0000 
     35 H          46.6464  110.9458  100.7440 H         1 ADP1608     0.0000 
     36 H          47.2087  112.1872   99.5743 H         1 ADP1608     0.0000 
     37 H          42.1459  112.1821  100.1996 H         1 ADP1608     0.0000 
     38 H          43.1224  112.9484   91.6428 H         1 ADP1608     0.0000 
     39 H          41.1073  112.8778   93.4009 H         1 ADP1608     0.0000 
@<TRIPOS>BOND
     1    2    1 ar   
     2    3    1 ar   
     3    4    1 ar   
     4    8    1 1    
     5    6    5 ar   
     6    7    5 ar   
     7    8    5 1    
     8    9    5 1    
     9   10    9 1    
    10   11   10 1    
    11   28   10 1    
    12   29   10 1    
    13   12   11 1    
    14   13   11 1    
    15   30   11 1    
    16   17   12 1    
    17   14   13 1    
    18   15   13 1    
    19   31   13 1    
    20   38   14 1    
    21   16   15 1    
    22   17   15 1    
    23   32   15 1    
    24   39   16 1    
    25   18   17 1    
    26   33   17 1    
    27   19   18 1    
    28   27   18 1    
    29   20   19 2    
    30   34   19 1    
    31   21   20 1    
    32   22   21 ar   
    33   27   21 ar   
    34   23   22 1    
    35   24   22 ar   
    36   35   23 1    
    37   36   23 1    
    38   25   24 ar   
    39   26   25 ar   
    40   37   25 1    
    41   27   26 ar   
@<TRIPOS>SUBSTRUCTURE
     1 ADP1608     1 GROUP   
@<TRIPOS>SET

