#    Name: 3kvl_7Z5_2_INTS_M
#    Modification time : Mon Mar 24 20:37:06 2014

@<TRIPOS>MOLECULE
3kvl_7Z5_2_INTS_M
   78     0     9     0     0
SMALL
NO_CHARGES


@<TRIPOS>ATOM
      1 CA         -2.5045   36.1215   -3.0785 C.3       3 GLC5        0.0000 
      2 CA         -4.2400   36.6070   -3.5680 C.3       9 GLL5        0.0000 
      3 CA         -0.7690   35.6360   -2.5890 C.3       6 GLP5        0.0000 
      4 CA         -6.5590   34.9630   -5.1465 C.3       3 GLC5        0.0000 
      5 CA         -4.9910   35.4370   -3.6420 C.3       9 GLL5        0.0000 
      6 CA         -8.1270   34.4890   -6.6510 C.3       6 GLP5        0.0000 
      7 NZ         -3.9810   37.7120   -6.9525 N.4       2 LYC4        0.0000 
      8 NZ         -3.8500   36.5970   -5.9240 N.4       8 LYL4        0.0000 
      9 NZ         -2.8910   38.9450   -8.4800 N.4       5 LYP4        0.0000 
     10 N          -2.6155   35.9260   -6.5985 N.am      1 SEC2        0.0000 
     11 N          -3.8500   36.5970   -5.9240 N.am      7 SEL2        0.0000 
     12 N          -1.3810   35.2550   -7.2730 N.am      4 SEP2        0.0000 
     13 N          -2.8525   37.5130   -6.8770 N.am      1 SEC2        0.0000 
     14 N          -1.8550   38.4290   -7.8300 N.am      4 SEP2        0.0000 
     15 N          -3.9810   37.7120   -6.9525 N.am      1 SEC2        0.0000 
     16 N          -4.1120   38.8270   -7.9810 N.am      4 SEP2        0.0000 
     17 NZ         -3.5420   38.5385   -6.3680 N.4       2 LYC4        0.0000 
     18 NZ         -2.9720   38.2500   -4.7550 N.4       8 LYL4        0.0000 
     19 N          -2.4135   38.3395   -6.2925 N.am      1 SEC2        0.0000 
     20 N          -2.9720   38.2500   -4.7550 N.am      7 SEL2        0.0000 
     21 N          -3.5420   38.5385   -6.3680 N.am      1 SEC2        0.0000 
     22 CA         -4.0160   40.6260   -1.0620 C.3       3 GLC5        0.0000 
     23 CA         -2.1960   40.2910   -1.4100 C.3       9 GLL5        0.0000 
     24 CA         -5.8360   40.9610   -0.7140 C.3       6 GLP5        0.0000 
     25 N          -2.8315   39.3390    1.0935 N.am      1 SEC2        0.0000 
     26 N          -3.4600   38.7530   -0.0650 N.am      7 SEL2        0.0000 
     27 N          -2.2030   39.9250    2.2520 N.am      4 SEP2        0.0000 
     28 CA         -5.1840   32.4245   -3.4030 C.3       3 GLC5        0.0000 
     29 CA         -6.0490   32.6570   -1.6970 C.3       9 GLL5        0.0000 
     30 CA         -4.3190   32.1920   -5.1090 C.3       6 GLP5        0.0000 
     31 CA         -4.9605   30.8865   -2.0020 C.3       3 GLC5        0.0000 
     32 CA         -3.8720   29.1160   -2.3070 C.3       6 GLP5        0.0000 
     33 CA         -5.8560   32.9790   -4.3570 C.3       3 GLC5        0.0000 
     34 CA         -7.3930   33.7660   -3.6050 C.3       9 GLL5        0.0000 
     35 CA         -7.7600   34.1275   -5.1280 C.3       3 GLC5        0.0000 
     36 CA         -7.9190   34.8970   -1.9510 C.3       3 GLC5        0.0000 
     37 CA         -8.4450   36.0280   -0.2970 C.3       6 GLP5        0.0000 
     38 CA          1.1410   40.6060   -2.0080 C.3       3 GLC5        0.0000 
     39 CA         -0.7120   39.9260   -1.4770 C.3       9 GLL5        0.0000 
     40 CA          2.9940   41.2860   -2.5390 C.3       6 GLP5        0.0000 
     41 CA         -5.1675   32.2285    1.0940 C.3       3 GLC5        0.0000 
     42 CA         -7.2220   32.5490    0.5530 C.3       9 GLL5        0.0000 
     43 CA         -3.1130   31.9080    1.6350 C.3       6 GLP5        0.0000 
     44 CA         -7.2615   30.5275    0.3535 C.3       3 GLC5        0.0000 
     45 CA         -7.3010   28.5060    0.1540 C.3       6 GLP5        0.0000 
     46 CA        -10.2000   32.6815    2.7180 C.3       3 GLC5        0.0000 
     47 CA         -9.4370   31.8960    0.7840 C.3       9 GLL5        0.0000 
     48 CA        -10.9630   33.4670    4.6520 C.3       6 GLP5        0.0000 
     49 CA         -8.6400   31.0880    2.7100 C.3       3 GLC5        0.0000 
     50 CA         -7.8430   30.2800    4.6360 C.3       6 GLP5        0.0000 
     51 CA         -5.7182   37.4455   -4.5720 C.3       3 GLC5        0.0000 
     52 CA         -6.8210   38.8690   -5.5390 C.3       6 GLP5        0.0000 
     53 CA         -5.6152   38.4585   -1.4788 C.3       3 GLC5        0.0000 
     54 CA         -4.0580   37.2420   -2.3420 C.3       9 GLL5        0.0000 
     55 CA         -6.8820   39.9490   -1.1870 C.3       6 GLP5        0.0000 
     56 CA         -2.6238   36.5845   -1.4752 C.3       3 GLC5        0.0000 
     57 CA         -4.6390   36.6940   -1.1990 C.3       9 GLL5        0.0000 
     58 CA         -0.8990   36.2010   -1.1800 C.3       6 GLP5        0.0000 
     59 CA         -4.8005   33.6775   -4.0907 C.3       3 GLC5        0.0000 
     60 CA         -6.8696   35.7638   -1.0839 C.3       3 GLC5        0.0000 
     61 CA         -5.3920   35.5260   -1.2780 C.3       9 GLL5        0.0000 
     62 CA         -3.3400   34.7708   -2.4096 C.3       3 GLC5        0.0000 
     63 CA         -1.3430   34.1970   -2.6440 C.3       6 GLP5        0.0000 
     64 CA         -0.8365   41.9032   -2.0873 C.3       3 GLC5        0.0000 
     65 CA         -0.2190   43.6980   -2.7310 C.3       6 GLP5        0.0000 
     66 CA         -1.3845   39.5607    0.6668 C.3       3 GLC5        0.0000 
     67 CA         -1.3150   39.0130    2.7770 C.3       6 GLP5        0.0000 
     68 CA         -1.1765   38.1547   -1.3117 C.3       3 GLC5        0.0000 
     69 CA         -0.5510   41.2837    0.0767 C.3       3 GLC5        0.0000 
     70 CA          0.3520   42.4590    1.5970 C.3       6 GLP5        0.0000 
     71 CA         -6.5113   30.5583   -1.1385 C.3       3 GLC5        0.0000 
     72 CA         -7.2720   32.3640   -0.8250 C.3       9 GLL5        0.0000 
     73 CA         -6.3620   28.6060   -1.0160 C.3       6 GLP5        0.0000 
     74 CA         -7.6931   34.2789   -0.3255 C.3       3 GLC5        0.0000 
     75 CA         -9.8770   30.4263    1.4207 C.3       3 GLC5        0.0000 
     76 CA        -10.2540   29.0610    2.7420 C.3       6 GLP5        0.0000 
     77 CA         -8.8346   33.9395   -0.2006 C.3       3 GLC5        0.0000 
     78 CA         -8.2626   30.1785    0.0249 C.3       3 GLC5        0.0000 
@<TRIPOS>BOND
@<TRIPOS>SUBSTRUCTURE
     1 SEC2       10 GROUP        1 X    SEC  0     ROOT SEC X 2
     2 LYC4        7 GROUP        1 X    LYC  0     **** LYC X 4
     3 GLC5        1 GROUP        1 X    GLC  0     **** GLC X 6
     4 SEP2       12 GROUP        1 Y    SEP  0     ROOT SEP Y 9
     5 LYP4        9 GROUP        1 Y    LYP  0     **** LYP Y 11
     6 GLP5        3 GROUP        1 Y    GLP  0     **** GLP Y 13
     7 SEL2       11 GROUP        1 Z    SEL  0     ROOT SEL Z 16
     8 LYL4        8 GROUP        1 Z    LYL  0     **** LYL Z 18
     9 GLL5        2 GROUP        1 Z    GLL  0     **** GLL Z 20
@<TRIPOS>SET

