#    Name: 3kvl_7Z5_2_ligand
#    Modification time : Mon Mar 24 20:37:06 2014

@<TRIPOS>MOLECULE
3kvl_7Z5_2_ligand
   41    42     1     0     0
SMALL
NO_CHARGES


@<TRIPOS>ATOM
      1 CAA        -4.2400   36.6070   -3.5680 C.ar      1 7Z5402      0.0000 
      2 CAB        -4.0580   37.2420   -2.3420 C.ar      1 7Z5402      0.0000 
      3 CAC        -4.9910   35.4370   -3.6420 C.ar      1 7Z5402      0.0000 
      4 CAD        -3.6390   37.1970   -4.8470 C.2       1 7Z5402      0.0000 
      5 CAE        -4.6390   36.6940   -1.1990 C.ar      1 7Z5402      0.0000 
      6 NAF        -3.3240   38.3530   -2.2960 N.am      1 7Z5402      0.0000 
      7 CAG        -5.5730   34.8890   -2.5030 C.ar      1 7Z5402      0.0000 
      8 OAH        -3.8500   36.5970   -5.9240 O.co2     1 7Z5402      0.0000 
      9 OAI        -2.9720   38.2500   -4.7550 O.co2     1 7Z5402      0.0000 
     10 CAJ        -5.3920   35.5260   -1.2780 C.ar      1 7Z5402      0.0000 
     11 CAK        -3.0620   39.0490   -1.1910 C.2       1 7Z5402      0.0000 
     12 NAL        -6.3220   33.7900   -2.5960 N.pl3     1 7Z5402      0.0000 
     13 CAM        -2.1960   40.2910   -1.4100 C.3       1 7Z5402      0.0000 
     14 OAN        -3.4600   38.7530   -0.0650 O.2       1 7Z5402      0.0000 
     15 CAO        -6.0490   32.6570   -1.6970 C.3       1 7Z5402      0.0000 
     16 CAP        -7.3930   33.7660   -3.6050 C.3       1 7Z5402      0.0000 
     17 CAQ        -0.7120   39.9260   -1.4770 C.3       1 7Z5402      0.0000 
     18 CAR        -7.2720   32.3640   -0.8250 C.ar      1 7Z5402      0.0000 
     19 CAS        -8.4600   31.9250   -1.4000 C.ar      1 7Z5402      0.0000 
     20 CAT        -7.2220   32.5490    0.5530 C.ar      1 7Z5402      0.0000 
     21 CAU        -9.5630   31.6870   -0.5850 C.ar      1 7Z5402      0.0000 
     22 NAV        -8.2900   32.3120    1.2960 N.ar      1 7Z5402      0.0000 
     23 CAW        -9.4370   31.8960    0.7840 C.ar      1 7Z5402      0.0000 
     24 H          -5.1178   34.9694   -4.5554 H         1 7Z5402      0.0000 
     25 H          -4.5090   37.1590   -0.2875 H         1 7Z5402      0.0000 
     26 H          -2.9098   38.7170   -3.2261 H         1 7Z5402      0.0000 
     27 H          -5.8170   35.1312   -0.4274 H         1 7Z5402      0.0000 
     28 H          -2.3568   40.9896   -0.5890 H         1 7Z5402      0.0000 
     29 H          -2.4893   40.7727   -2.3427 H         1 7Z5402      0.0000 
     30 H          -5.2040   32.8795   -1.0408 H         1 7Z5402      0.0000 
     31 H          -5.8118   31.7575   -2.2703 H         1 7Z5402      0.0000 
     32 H          -8.5229   31.7786   -2.4103 H         1 7Z5402      0.0000 
     33 H          -6.3259   32.8761    0.9714 H         1 7Z5402      0.0000 
     34 H         -10.4436   31.3665   -0.9836 H         1 7Z5402      0.0000 
     35 H         -10.2695   31.7152    1.3858 H         1 7Z5402      0.0000 
     36 H          -7.0337   33.8835   -4.5308 H         1 7Z5402      0.0000 
     37 H          -7.8952   32.9013   -3.5930 H         1 7Z5402      0.0000 
     38 H          -8.0609   34.4950   -3.4551 H         1 7Z5402      0.0000 
     39 H          -0.1373   40.7321   -1.6177 H         1 7Z5402      0.0000 
     40 H          -0.3993   39.4864   -0.6350 H         1 7Z5402      0.0000 
     41 H          -0.5186   39.2936   -2.2271 H         1 7Z5402      0.0000 
@<TRIPOS>BOND
     1    2    1 ar   
     2    3    1 ar   
     3    4    1 1    
     4    5    2 ar   
     5    6    2 1    
     6    7    3 ar   
     7   24    3 1    
     8    8    4 ar   
     9    9    4 ar   
    10   10    5 ar   
    11   25    5 1    
    12   11    6 am   
    13   26    6 1    
    14   10    7 ar   
    15   12    7 1    
    16   27   10 1    
    17   13   11 1    
    18   14   11 2    
    19   15   12 1    
    20   16   12 1    
    21   17   13 1    
    22   28   13 1    
    23   29   13 1    
    24   18   15 1    
    25   30   15 1    
    26   31   15 1    
    27   36   16 1    
    28   37   16 1    
    29   38   16 1    
    30   39   17 1    
    31   40   17 1    
    32   41   17 1    
    33   19   18 ar   
    34   20   18 ar   
    35   21   19 ar   
    36   32   19 1    
    37   22   20 ar   
    38   33   20 1    
    39   23   21 ar   
    40   34   21 1    
    41   23   22 ar   
    42   35   23 1    
@<TRIPOS>SUBSTRUCTURE
     1 7Z5402      1 GROUP   
@<TRIPOS>SET

