#    Name: 2IU8_1_CAVITY_N1_6.mol2
#    Modification time : Mon Mar 10 20:07:23 2014

@<TRIPOS>MOLECULE
2IU8_1_CAVITY_N1_6.mol2
  104     0     6     0     0
SMALL
NO_CHARGES


@<TRIPOS>ATOM
      1 N          32.2810  -75.9865  -23.6128 N.2       2 ALA2        0.0000 
      2 N          33.0416  -76.8924  -22.6904 N.2       2 ALA2        0.0000 
      3 CZ         33.8021  -77.7984  -21.7679 C.ar      4 PHE5        0.0000 
      4 N          31.8408  -77.7841  -22.5760 N.2       2 ALA2        0.0000 
      5 CZ         32.6013  -78.6900  -21.6536 C.ar      4 PHE5        0.0000 
      6 N          31.8743  -86.1433  -28.3744 N.2       2 ALA2        0.0000 
      7 CA         34.4403  -76.6877  -26.0817 C.3       5 GLY6        0.0000 
      8 CZ         35.2008  -77.5936  -25.1593 C.ar      4 PHE5        0.0000 
      9 CA         33.2395  -77.5793  -25.9674 C.3       5 GLY6        0.0000 
     10 CZ         34.0000  -78.4853  -25.0450 C.ar      4 PHE5        0.0000 
     11 OG         34.7606  -79.3912  -24.1226 O.2       1 SER1        0.0000 
     12 CZ         32.0387  -78.4709  -25.8531 C.ar      4 PHE5        0.0000 
     13 CZ         32.7992  -79.3769  -24.9306 C.ar      4 PHE5        0.0000 
     14 CZ         33.5598  -80.2828  -24.0082 C.ar      4 PHE5        0.0000 
     15 O          34.3203  -81.1888  -23.0858 O.2       2 ALA2        0.0000 
     16 CZ         32.3590  -81.1745  -23.8939 C.ar      4 PHE5        0.0000 
     17 O          33.1195  -82.0804  -22.9714 O.2       2 ALA2        0.0000 
     18 O          33.8800  -82.9863  -22.0490 O.2       2 ALA2        0.0000 
     19 CZ         31.9187  -82.9720  -22.8571 C.ar      4 PHE5        0.0000 
     20 NZ         31.4784  -84.7696  -21.8203 N.2       3 LYS4        0.0000 
     21 NZ         32.2389  -85.6755  -20.8979 N.2       3 LYS4        0.0000 
     22 N          30.2776  -85.6612  -21.7060 N.2       2 ALA2        0.0000 
     23 OG         35.4378  -80.8745  -28.5769 O.2       1 SER1        0.0000 
     24 N          36.1983  -81.7804  -27.6545 N.2       2 ALA2        0.0000 
     25 N          34.2370  -81.7661  -28.4626 N.2       2 ALA2        0.0000 
     26 N          34.9975  -82.6721  -27.5401 N.2       2 ALA2        0.0000 
     27 N          35.7580  -83.5780  -26.6177 N.2       2 ALA2        0.0000 
     28 N          32.2756  -81.7518  -29.2706 N.2       2 ALA2        0.0000 
     29 N          33.0362  -82.6577  -28.3482 N.2       2 ALA2        0.0000 
     30 N          33.7967  -83.5637  -27.4258 N.2       2 ALA2        0.0000 
     31 N          34.5572  -84.4696  -26.5034 N.2       2 ALA2        0.0000 
     32 DU         35.3177  -85.3756  -25.5810 H         6 CUB7        0.0000 
     33 CA         31.8354  -83.5494  -28.2339 C.3       5 GLY6        0.0000 
     34 N          32.5959  -84.4553  -27.3114 N.2       2 ALA2        0.0000 
     35 DU         33.3564  -85.3612  -26.3890 H         6 CUB7        0.0000 
     36 DU         34.1169  -86.2672  -25.4666 H         6 CUB7        0.0000 
     37 CA         31.3951  -85.3469  -27.1971 C.3       5 GLY6        0.0000 
     38 CA         32.1556  -86.2529  -26.2747 C.3       5 GLY6        0.0000 
     39 CA         32.9161  -87.1588  -25.3523 C.3       5 GLY6        0.0000 
     40 O          30.9548  -87.1445  -26.1603 O.2       2 ALA2        0.0000 
     41 OG         36.6775  -82.5768  -28.8318 O.2       1 SER1        0.0000 
     42 CA         34.7162  -82.5625  -29.6399 C.3       5 GLY6        0.0000 
     43 N          36.2373  -84.3744  -27.7950 N.2       2 ALA2        0.0000 
     44 N          36.9978  -85.2804  -26.8726 N.2       2 ALA2        0.0000 
     45 CA         33.5154  -83.4541  -29.5255 C.3       5 GLY6        0.0000 
     46 N          35.7970  -86.1720  -26.7583 N.2       2 ALA2        0.0000 
     47 CA         32.3146  -84.3458  -29.4112 C.3       5 GLY6        0.0000 
     48 N          33.0751  -85.2517  -28.4888 N.2       2 ALA2        0.0000 
     49 N          33.8356  -86.1577  -27.5663 N.2       2 ALA2        0.0000 
     50 CA         34.5962  -87.0636  -26.6439 C.3       5 GLY6        0.0000 
     51 O          33.9611  -75.8913  -24.9044 O.2       2 ALA2        0.0000 
     52 CZ         34.7216  -76.7972  -23.9820 C.ar      4 PHE5        0.0000 
     53 O          32.7603  -76.7829  -24.7901 O.2       2 ALA2        0.0000 
     54 CZ         33.5208  -77.6888  -23.8677 C.ar      4 PHE5        0.0000 
     55 CZ         34.2813  -78.5948  -22.9452 C.ar      4 PHE5        0.0000 
     56 CZ         31.5595  -77.6745  -24.6757 C.ar      4 PHE5        0.0000 
     57 CZ         32.3200  -78.5805  -23.7533 C.ar      4 PHE5        0.0000 
     58 CZ         33.0805  -79.4864  -22.8309 C.ar      4 PHE5        0.0000 
     59 O          33.8410  -80.3924  -21.9085 O.2       2 ALA2        0.0000 
     60 O          32.6402  -81.2840  -21.7941 O.2       2 ALA2        0.0000 
     61 NZ         34.9196  -77.4841  -27.2591 N.2       3 LYS4        0.0000 
     62 OG         35.6801  -78.3900  -26.3366 O.2       1 SER1        0.0000 
     63 CA         33.7188  -78.3757  -27.1447 C.3       5 GLY6        0.0000 
     64 OG         34.4793  -79.2817  -26.2223 O.2       1 SER1        0.0000 
     65 OG         35.2398  -80.1876  -25.2999 O.2       1 SER1        0.0000 
     66 CZ         32.5180  -79.2673  -27.0304 C.ar      4 PHE5        0.0000 
     67 DU         33.2785  -80.1733  -26.1079 H         6 CUB7        0.0000 
     68 DU         34.0390  -81.0792  -25.1855 H         6 CUB7        0.0000 
     69 OG         34.7995  -81.9852  -24.2631 O.2       1 SER1        0.0000 
     70 CZ         31.3171  -80.1590  -26.9160 C.ar      4 PHE5        0.0000 
     71 CZ         32.0777  -81.0649  -25.9936 C.ar      4 PHE5        0.0000 
     72 CZ         32.8382  -81.9709  -25.0712 C.ar      4 PHE5        0.0000 
     73 DU         33.5987  -82.8768  -24.1488 H         6 CUB7        0.0000 
     74 O          34.3593  -83.7828  -23.2263 O.2       2 ALA2        0.0000 
     75 O          30.8769  -81.9565  -25.8792 O.2       2 ALA2        0.0000 
     76 O          31.6374  -82.8625  -24.9568 O.2       2 ALA2        0.0000 
     77 DU         32.3979  -83.7684  -24.0344 H         6 CUB7        0.0000 
     78 DU         33.1584  -84.6744  -23.1120 H         6 CUB7        0.0000 
     79 O          31.1971  -84.6601  -23.9201 O.2       2 ALA2        0.0000 
     80 N          31.9576  -85.5660  -22.9976 N.2       2 ALA2        0.0000 
     81 CA         29.9963  -85.5517  -23.8057 C.3       5 GLY6        0.0000 
     82 OG         36.1593  -79.1864  -27.5139 O.2       1 SER1        0.0000 
     83 NZ         34.1980  -79.1721  -28.3220 N.2       3 LYS4        0.0000 
     84 OG         34.9585  -80.0781  -27.3996 O.2       1 SER1        0.0000 
     85 N          35.7190  -80.9840  -26.4772 N.2       2 ALA2        0.0000 
     86 CZ         32.2367  -79.1578  -29.1301 C.ar      4 PHE5        0.0000 
     87 N          32.9972  -80.0637  -28.2077 N.2       2 ALA2        0.0000 
     88 DU         33.7577  -80.9697  -27.2853 H         6 CUB7        0.0000 
     89 DU         34.5182  -81.8756  -26.3628 H         6 CUB7        0.0000 
     90 N          35.2788  -82.7816  -25.4404 N.2       2 ALA2        0.0000 
     91 CZ         31.7964  -80.9554  -28.0933 C.ar      4 PHE5        0.0000 
     92 DU         32.5569  -81.8613  -27.1709 H         6 CUB7        0.0000 
     93 DU         33.3174  -82.7673  -26.2485 H         6 CUB7        0.0000 
     94 CA         30.5956  -81.8470  -27.9790 C.3       5 GLY6        0.0000 
     95 CA         31.3561  -82.7529  -27.0566 C.3       5 GLY6        0.0000 
     96 O          32.1166  -83.6589  -26.1341 O.2       2 ALA2        0.0000 
     97 DU         32.8772  -84.5648  -25.2117 H         6 CUB7        0.0000 
     98 DU         33.6377  -85.4708  -24.2893 H         6 CUB7        0.0000 
     99 DU         34.3982  -86.3767  -23.3669 H         6 CUB7        0.0000 
    100 O          30.9158  -84.5505  -26.0198 O.2       2 ALA2        0.0000 
    101 N          31.6764  -85.4565  -25.0974 N.2       2 ALA2        0.0000 
    102 N          32.4369  -86.3624  -24.1749 N.2       2 ALA2        0.0000 
    103 N          33.1974  -87.2684  -23.2525 N.2       2 ALA2        0.0000 
    104 CA         30.4756  -86.3481  -24.9830 C.3       5 GLY6        0.0000 
@<TRIPOS>BOND
@<TRIPOS>SUBSTRUCTURE
     1 SER1       11 GROUP   
     2 ALA2        1 GROUP   
     3 LYS4       20 GROUP   
     4 PHE5        3 GROUP   
     5 GLY6        7 GROUP   
     6 CUB7       32 GROUP   
@<TRIPOS>SET

