#    Name: 2iu8_UD1_1_INTS_M
#    Modification time : Tue Mar 25 18:40:22 2014

@<TRIPOS>MOLECULE
2iu8_UD1_1_INTS_M
   55     0     9     0     0
SMALL
NO_CHARGES


@<TRIPOS>ATOM
      1 CA         33.9725  -88.5865  -26.6730 C.3       3 GLC5        0.0000 
      2 CA         35.8030  -87.9240  -25.9140 C.3       9 GLL5        0.0000 
      3 CA         32.1420  -89.2490  -27.4320 C.3       6 GLP5        0.0000 
      4 CA         41.4365  -87.4200  -29.0695 C.3       3 GLC5        0.0000 
      5 CA         40.2540  -86.9640  -27.4840 C.3       9 GLL5        0.0000 
      6 CA         42.6190  -87.8760  -30.6550 C.3       6 GLP5        0.0000 
      7 CA         41.6720  -85.7145  -28.3265 C.3       3 GLC5        0.0000 
      8 CA         43.0900  -84.4650  -29.1690 C.3       6 GLP5        0.0000 
      9 O          38.5910  -83.8055  -26.7020 O.2       1 ALC1        0.0000 
     10 O          38.4940  -85.3970  -26.7240 O.2       7 ALL1        0.0000 
     11 O          38.6880  -82.2140  -26.6800 O.2       4 ALP1        0.0000 
     12 O          34.6600  -89.2935  -27.4235 O.2       1 ALC1        0.0000 
     13 O          34.7070  -88.1170  -26.7960 O.2       7 ALL1        0.0000 
     14 O          34.6130  -90.4700  -28.0510 O.2       4 ALP1        0.0000 
     15 N          32.3980  -89.4715  -24.8605 N.am      2 SEC2        0.0000 
     16 N          33.8730  -89.3300  -24.3300 N.am      8 SEL2        0.0000 
     17 N          30.9230  -89.6130  -25.3910 N.am      5 SEP2        0.0000 
     18 O          31.6165  -76.3225  -21.9765 O.2       1 ALC1        0.0000 
     19 O          32.6620  -77.1630  -22.5640 O.2       7 ALL1        0.0000 
     20 O          30.5710  -75.4820  -21.3890 O.2       4 ALP1        0.0000 
     21 CA         35.4865  -79.1450  -22.1030 C.3       3 GLC5        0.0000 
     22 CA         33.7000  -79.3430  -22.3080 C.3       9 GLL5        0.0000 
     23 CA         37.2730  -78.9470  -21.8980 C.3       6 GLP5        0.0000 
     24 CA         35.6080  -78.9810  -23.4480 C.3       3 GLC5        0.0000 
     25 CA         33.8380  -79.4550  -23.6890 C.3       9 GLL5        0.0000 
     26 CA         37.3780  -78.5070  -23.2070 C.3       6 GLP5        0.0000 
     27 N          32.5470  -74.9600  -24.9660 N.am      2 SEC2        0.0000 
     28 N          32.3870  -76.3240  -24.6540 N.am      8 SEL2        0.0000 
     29 N          32.7070  -73.5960  -25.2780 N.am      5 SEP2        0.0000 
     30 N          32.1470  -78.4270  -19.4525 N.am      2 SEC2        0.0000 
     31 N          33.0140  -78.1310  -20.5220 N.am      8 SEL2        0.0000 
     32 N          31.2800  -78.7230  -18.3830 N.am      5 SEP2        0.0000 
     33 N          33.2790  -79.0820  -19.1140 N.am      2 SEC2        0.0000 
     34 N          33.5440  -80.0330  -17.7060 N.am      5 SEP2        0.0000 
     35 CA         36.1910  -78.7675  -24.7940 C.3       3 GLC5        0.0000 
     36 CA         35.0040  -79.0280  -26.3810 C.3       9 GLL5        0.0000 
     37 N          35.5685  -79.2750  -30.2575 N.am      2 SEC2        0.0000 
     38 N          35.4300  -79.7910  -28.6970 N.am      8 SEL2        0.0000 
     39 N          35.7070  -78.7590  -31.8180 N.am      5 SEP2        0.0000 
     40 N          36.3905  -80.2340  -29.6000 N.am      2 SEC2        0.0000 
     41 N          37.3510  -80.6770  -30.5030 N.am      5 SEP2        0.0000 
     42 O          34.7975  -80.0700  -30.0450 O.2       1 ALC1        0.0000 
     43 O          35.4300  -79.7910  -28.6970 O.2       7 ALL1        0.0000 
     44 O          34.1650  -80.3490  -31.3930 O.2       4 ALP1        0.0000 
     45 N          37.4795  -80.9280  -23.9255 N.am      2 SEC2        0.0000 
     46 N          37.3260  -82.4350  -23.6430 N.am      8 SEL2        0.0000 
     47 N          37.6330  -79.4210  -24.2080 N.am      5 SEP2        0.0000 
     48 CA         31.9325  -79.7075  -23.1968 C.3       3 GLC5        0.0000 
     49 CA         30.0960  -80.0160  -23.3950 C.3       6 GLP5        0.0000 
     50 CA         33.7917  -77.0365  -27.0913 C.3       3 GLC5        0.0000 
     51 CA         33.5690  -78.5760  -26.0160 C.3       9 GLL5        0.0000 
     52 CA         33.2970  -75.2710  -27.9840 C.3       6 GLP5        0.0000 
     53 CA         31.4307  -80.0315  -28.4992 C.3       3 GLC5        0.0000 
     54 CA         33.2990  -80.2120  -27.6340 C.3       9 GLL5        0.0000 
     55 CA         29.7200  -79.1000  -29.2840 C.3       6 GLP5        0.0000 
@<TRIPOS>BOND
@<TRIPOS>SUBSTRUCTURE
     1 ALC1        9 GROUP        1 X    ALC  0     ROOT ALC X 1
     2 SEC2       15 GROUP        1 X    SEC  0     **** SEC X 2
     3 GLC5        1 GROUP        1 X    GLC  0     **** GLC X 6
     4 ALP1       11 GROUP        1 Y    ALP  0     ROOT ALP Y 8
     5 SEP2       17 GROUP        1 Y    SEP  0     **** SEP Y 9
     6 GLP5        3 GROUP        1 Y    GLP  0     **** GLP Y 13
     7 ALL1       10 GROUP        1 Z    ALL  0     ROOT ALL Z 15
     8 SEL2       16 GROUP        1 Z    SEL  0     **** SEL Z 16
     9 GLL5        2 GROUP        1 Z    GLL  0     **** GLL Z 20
@<TRIPOS>SET

