#    Name: 2iu8_UD1_1_ligand
#    Modification time : Tue Mar 25 18:40:22 2014

@<TRIPOS>MOLECULE
2iu8_UD1_1_ligand
   64    66     1     0     0
SMALL
NO_CHARGES


@<TRIPOS>ATOM
      1 C1'        37.3240  -85.7540  -24.5860 C.3       1 UD11348     0.0000 
      2 C2'        37.8820  -86.4200  -25.8530 C.3       1 UD11348     0.0000 
      3 C3'        36.7660  -87.0370  -26.6890 C.3       1 UD11348     0.0000 
      4 C4'        35.8030  -87.9240  -25.9140 C.3       1 UD11348     0.0000 
      5 C5'        35.3100  -87.2720  -24.6070 C.3       1 UD11348     0.0000 
      6 C6'        34.4930  -88.2180  -23.6500 C.3       1 UD11348     0.0000 
      7 C7'        39.5670  -85.5860  -27.5050 C.2       1 UD11348     0.0000 
      8 C8'        40.2540  -86.9640  -27.4840 C.3       1 UD11348     0.0000 
      9 N2'        38.4940  -85.3970  -26.7240 N.am      1 UD11348     0.0000 
     10 O1'        36.7000  -84.5100  -25.0080 O.3       1 UD11348     0.0000 
     11 O3'        37.3490  -87.8130  -27.7410 O.3       1 UD11348     0.0000 
     12 O4'        34.7070  -88.1170  -26.7960 O.3       1 UD11348     0.0000 
     13 O5'        36.4380  -86.6870  -23.8520 O.3       1 UD11348     0.0000 
     14 O6'        33.8730  -89.3300  -24.3300 O.3       1 UD11348     0.0000 
     15 O7'        40.0200  -84.6980  -28.2160 O.2       1 UD11348     0.0000 
     16 N1         33.3990  -78.4150  -24.5400 N.am      1 UD11348     0.0000 
     17 C2         32.7960  -77.2560  -23.9630 C.2       1 UD11348     0.0000 
     18 N3         32.6620  -77.1630  -22.5640 N.am      1 UD11348     0.0000 
     19 C4         33.1200  -78.2080  -21.7450 C.2       1 UD11348     0.0000 
     20 C5         33.7000  -79.3430  -22.3080 C.2       1 UD11348     0.0000 
     21 C6         33.8380  -79.4550  -23.6890 C.2       1 UD11348     0.0000 
     22 O2         32.3870  -76.3240  -24.6540 O.2       1 UD11348     0.0000 
     23 O4         33.0140  -78.1310  -20.5220 O.2       1 UD11348     0.0000 
     24 C1B        33.5690  -78.5760  -26.0160 C.3       1 UD11348     0.0000 
     25 C2B        35.0040  -79.0280  -26.3810 C.3       1 UD11348     0.0000 
     26 O2'        35.7820  -77.9510  -26.9230 O.3       1 UD11348     0.0000 
     27 C3B        34.8110  -80.1170  -27.4450 C.3       1 UD11348     0.0000 
     28 C4B        33.2990  -80.2120  -27.6340 C.3       1 UD11348     0.0000 
     29 O4B        32.7290  -79.6790  -26.4080 O.3       1 UD11348     0.0000 
     30 O3B        35.4300  -79.7910  -28.6970 O.3       1 UD11348     0.0000 
     31 C5B        32.9840  -81.7140  -27.7950 C.3       1 UD11348     0.0000 
     32 O5B        33.3050  -82.4580  -26.5850 O.3       1 UD11348     0.0000 
     33 PA         34.7550  -83.2110  -26.3320 P.3       1 UD11348     0.0000 
     34 O1A        35.7170  -82.8100  -27.3850 O.co2     1 UD11348     0.0000 
     35 O2A        34.4450  -84.6510  -26.1350 O.co2     1 UD11348     0.0000 
     36 O3A        35.2140  -82.5380  -24.9570 O.3       1 UD11348     0.0000 
     37 PB         36.2050  -83.3380  -23.9930 P.3       1 UD11348     0.0000 
     38 O1B        35.4010  -83.9510  -22.9070 O.co2     1 UD11348     0.0000 
     39 O2B        37.3260  -82.4350  -23.6430 O.co2     1 UD11348     0.0000 
     40 H          38.2035  -85.5220  -23.9643 H         1 UD11348     0.0000 
     41 H          38.5851  -87.1629  -25.5999 H         1 UD11348     0.0000 
     42 H          36.1851  -86.2173  -27.1307 H         1 UD11348     0.0000 
     43 H          36.2876  -88.8466  -25.6921 H         1 UD11348     0.0000 
     44 H          34.6243  -86.4463  -24.8821 H         1 UD11348     0.0000 
     45 H          33.7449  -87.5811  -23.1421 H         1 UD11348     0.0000 
     46 H          35.1974  -88.5585  -22.8682 H         1 UD11348     0.0000 
     47 H          38.0067  -84.4539  -26.6919 H         1 UD11348     0.0000 
     48 H          32.2314  -76.3347  -22.1467 H         1 UD11348     0.0000 
     49 H          34.0293  -80.1054  -21.6970 H         1 UD11348     0.0000 
     50 H          34.2607  -80.2957  -24.1016 H         1 UD11348     0.0000 
     51 H          33.3330  -77.7052  -26.5349 H         1 UD11348     0.0000 
     52 H          35.4385  -79.4769  -25.5246 H         1 UD11348     0.0000 
     53 H          35.1463  -81.0451  -27.0403 H         1 UD11348     0.0000 
     54 H          33.0232  -79.6870  -28.4834 H         1 UD11348     0.0000 
     55 H          33.5601  -82.0854  -28.6530 H         1 UD11348     0.0000 
     56 H          31.9189  -81.8063  -28.0460 H         1 UD11348     0.0000 
     57 H          41.0385  -86.9974  -28.1033 H         1 UD11348     0.0000 
     58 H          40.5906  -87.1973  -26.5717 H         1 UD11348     0.0000 
     59 H          39.6300  -87.6944  -27.7618 H         1 UD11348     0.0000 
     60 H          36.6855  -88.5379  -27.9260 H         1 UD11348     0.0000 
     61 H          35.0447  -88.7486  -27.4939 H         1 UD11348     0.0000 
     62 H          34.0197  -89.1525  -25.3031 H         1 UD11348     0.0000 
     63 H          36.0746  -78.2711  -27.8241 H         1 UD11348     0.0000 
     64 H          34.7822  -80.0989  -29.3938 H         1 UD11348     0.0000 
@<TRIPOS>BOND
     1    2    1 1    
     2   10    1 1    
     3   13    1 1    
     4   40    1 1    
     5    3    2 1    
     6    9    2 1    
     7   41    2 1    
     8    4    3 1    
     9   11    3 1    
    10   42    3 1    
    11    5    4 1    
    12   12    4 1    
    13   43    4 1    
    14    6    5 1    
    15   13    5 1    
    16   44    5 1    
    17   14    6 1    
    18   45    6 1    
    19   46    6 1    
    20    8    7 1    
    21    9    7 am   
    22   15    7 2    
    23   57    8 1    
    24   58    8 1    
    25   59    8 1    
    26   47    9 1    
    27   37   10 1    
    28   60   11 1    
    29   61   12 1    
    30   62   14 1    
    31   17   16 1    
    32   21   16 1    
    33   24   16 1    
    34   18   17 1    
    35   22   17 2    
    36   19   18 1    
    37   48   18 1    
    38   20   19 1    
    39   23   19 2    
    40   21   20 2    
    41   49   20 1    
    42   50   21 1    
    43   25   24 1    
    44   29   24 1    
    45   51   24 1    
    46   26   25 1    
    47   27   25 1    
    48   52   25 1    
    49   63   26 1    
    50   28   27 1    
    51   30   27 1    
    52   53   27 1    
    53   29   28 1    
    54   31   28 1    
    55   54   28 1    
    56   64   30 1    
    57   32   31 1    
    58   55   31 1    
    59   56   31 1    
    60   33   32 1    
    61   34   33 ar   
    62   35   33 ar   
    63   36   33 1    
    64   37   36 1    
    65   38   37 ar   
    66   39   37 ar   
@<TRIPOS>SUBSTRUCTURE
     1 UD11348     1 GROUP   
@<TRIPOS>SET

