#    Name: 2ivn_ANP_1_INTS_M
#    Modification time : Tue Mar 25 18:45:14 2014

@<TRIPOS>MOLECULE
2ivn_ANP_1_INTS_M
   69     0    12     0     0
SMALL
NO_CHARGES


@<TRIPOS>ATOM
      1 N           5.1325   65.7295    4.8520 N.am      2 SEC2        0.0000 
      2 N           4.9270   65.3540    6.2790 N.am     10 SEL2        0.0000 
      3 N           5.3380   66.1050    3.4250 N.am      6 SEP2        0.0000 
      4 N           7.0575   63.5820    5.1250 N.am      2 SEC2        0.0000 
      5 N           7.3200   64.6380    5.8920 N.am     10 SEL2        0.0000 
      6 N           6.7950   62.5260    4.3580 N.am      6 SEP2        0.0000 
      7 N           5.3575   65.4685    8.7400 N.am      2 SEC2        0.0000 
      8 N           6.5150   65.0880    8.2410 N.am     10 SEL2        0.0000 
      9 N           4.2000   65.8490    9.2390 N.am      6 SEP2        0.0000 
     10 N           6.7630   65.3000    9.9085 N.am      2 SEC2        0.0000 
     11 N           7.0110   65.5120   11.5760 N.am      6 SEP2        0.0000 
     12 N           5.3005   62.8915   10.4070 N.am      2 SEC2        0.0000 
     13 N           5.8580   62.1400    9.4530 N.am     10 SEL2        0.0000 
     14 N           4.7430   63.6430   11.3610 N.am      6 SEP2        0.0000 
     15 Zn          3.1655   61.9205    6.4780 Zn        3 ZIC7        0.0000 
     16 Zn          3.6530   60.9370    6.6220 Zn       11 ZIL7        0.0000 
     17 Zn          2.6780   62.9040    6.3340 Zn        7 ZIP7        0.0000 
     18 N           3.3275   60.7975    5.1360 N.am      2 SEC2        0.0000 
     19 N           3.6530   60.9370    6.6220 N.am     10 SEL2        0.0000 
     20 N           3.0020   60.6580    3.6500 N.am      6 SEP2        0.0000 
     21 CA          6.5420   58.3465   13.0385 C.3       4 GLC5        0.0000 
     22 CA          4.5920   59.2910   12.5630 C.3      12 GLL5        0.0000 
     23 CA          8.4920   57.4020   13.5140 C.3       8 GLP5        0.0000 
     24 O           5.9260   59.9885   14.3660 O.2       1 ALC1        0.0000 
     25 O           4.9310   60.2930   13.5300 O.2       9 ALL1        0.0000 
     26 O           6.9210   59.6840   15.2020 O.2       5 ALP1        0.0000 
     27 CA          4.2240   56.4450   13.2965 C.3       4 GLC5        0.0000 
     28 CA          3.5210   58.3740   13.1150 C.3      12 GLL5        0.0000 
     29 CA          4.9270   54.5160   13.4780 C.3       8 GLP5        0.0000 
     30 N           3.1290   57.2970   15.7205 N.am      2 SEC2        0.0000 
     31 N           3.6850   58.0720   14.5100 N.am     10 SEL2        0.0000 
     32 N           2.5730   56.5220   16.9310 N.am      6 SEP2        0.0000 
     33 O           4.6805   58.1725   15.4235 O.2       1 ALC1        0.0000 
     34 O           3.6850   58.0720   14.5100 O.2       9 ALL1        0.0000 
     35 O           5.6760   58.2730   16.3370 O.2       5 ALP1        0.0000 
     36 CA          1.3575   60.8830   12.9700 C.3       4 GLC5        0.0000 
     37 CA          2.2620   59.1780   12.8200 C.3      12 GLL5        0.0000 
     38 CA          0.4530   62.5880   13.1200 C.3       8 GLP5        0.0000 
     39 CA         -3.6330   58.3895   14.7020 C.3       4 GLC5        0.0000 
     40 CA         -2.0430   57.2700   14.3820 C.3      12 GLL5        0.0000 
     41 CA         -5.2230   59.5090   15.0220 C.3       8 GLP5        0.0000 
     42 O          -3.9790   55.7795   15.0245 O.2       1 ALC1        0.0000 
     43 O          -2.9880   56.3170   14.1960 O.2       9 ALL1        0.0000 
     44 O          -4.9700   55.2420   15.8530 O.2       5 ALP1        0.0000 
     45 N          -3.2730   58.5255   16.2945 N.am      2 SEC2        0.0000 
     46 N          -2.1440   58.1740   15.3860 N.am     10 SEL2        0.0000 
     47 N          -4.4020   58.8770   17.2030 N.am      6 SEP2        0.0000 
     48 CA         -0.4890   60.4445   16.9515 C.3       4 GLC5        0.0000 
     49 CA         -1.2160   59.1330   15.5890 C.3      12 GLL5        0.0000 
     50 CA          0.2380   61.7560   18.3140 C.3       8 GLP5        0.0000 
     51 CA         -0.0215   58.0285   16.1840 C.3       4 GLC5        0.0000 
     52 CA          1.1730   56.9240   16.7790 C.3       8 GLP5        0.0000 
     53 CA         -1.5405   60.8595   14.8270 C.3       4 GLC5        0.0000 
     54 CA         -1.8650   62.5860   14.0650 C.3       8 GLP5        0.0000 
     55 CA         -3.2195   59.3210   15.3055 C.3       4 GLC5        0.0000 
     56 CA          2.2865   60.1450    9.6498 C.3       4 GLC5        0.0000 
     57 CA          3.9070   59.9530   11.3760 C.3      12 GLL5        0.0000 
     58 CA          0.4520   60.6560    8.5810 C.3       8 GLP5        0.0000 
     59 CA          5.0492   61.5710   12.1352 C.3       4 GLC5        0.0000 
     60 CA          5.8490   63.5200   12.3010 C.3       8 GLP5        0.0000 
     61 CA         -0.8845   59.6623   12.7305 C.3       4 GLC5        0.0000 
     62 CA         -0.8580   57.3510   13.4930 C.3      12 GLL5        0.0000 
     63 CA         -1.3950   61.4390   11.8240 C.3       8 GLP5        0.0000 
     64 CA         -2.5743   57.0213   12.2157 C.3       4 GLC5        0.0000 
     65 CA         -3.6980   56.7320   10.4940 C.3       8 GLP5        0.0000 
     66 CA          0.2514   57.3946   15.3191 C.3       4 GLC5        0.0000 
     67 CA          0.1719   56.2301   14.4176 C.3       4 GLC5        0.0000 
     68 CA          0.1100   58.4200   13.7810 C.3      12 GLL5        0.0000 
     69 CA          1.0140   54.5950   14.9760 C.3       8 GLP5        0.0000 
@<TRIPOS>BOND
@<TRIPOS>SUBSTRUCTURE
     1 ALC1       24 GROUP        1 X    ALC  0     ROOT ALC X 1
     2 SEC2        1 GROUP        1 X    SEC  0     **** SEC X 2
     3 ZIC7       15 GROUP        1 X    ZIC  0     **** ZIC X 5
     4 GLC5       21 GROUP        1 X    GLC  0     **** GLC X 6
     5 ALP1       26 GROUP        1 Y    ALP  0     ROOT ALP Y 8
     6 SEP2        3 GROUP        1 Y    SEP  0     **** SEP Y 9
     7 ZIP7       17 GROUP        1 Y    ZIP  0     **** ZIP Y 12
     8 GLP5       23 GROUP        1 Y    GLP  0     **** GLP Y 13
     9 ALL1       25 GROUP        1 Z    ALL  0     ROOT ALL Z 15
    10 SEL2        2 GROUP        1 Z    SEL  0     **** SEL Z 16
    11 ZIL7       16 GROUP        1 Z    ZIL  0     **** ZIL Z 19
    12 GLL5       22 GROUP        1 Z    GLL  0     **** GLL Z 20
@<TRIPOS>SET

