#    Name: 2ivn_ANP_1_ligand
#    Modification time : Tue Mar 25 18:45:14 2014

@<TRIPOS>MOLECULE
2ivn_ANP_1_ligand
   43    45     1     0     0
SMALL
NO_CHARGES


@<TRIPOS>ATOM
      1 PG          6.1440   64.6610    6.8400 P.3       1 ANP1327     0.0000 
      2 O1G         4.9270   65.3540    6.2790 O.co2     1 ANP1327     0.0000 
      3 O2G         7.3200   64.6380    5.8920 O.co2     1 ANP1327     0.0000 
      4 O3G         6.5150   65.0880    8.2410 O.co2     1 ANP1327     0.0000 
      5 PB          6.3750   61.8750    8.0650 P.3       1 ANP1327     0.0000 
      6 O1B         7.8660   61.9500    7.8400 O.co2     1 ANP1327     0.0000 
      7 O2B         5.8580   62.1400    9.4530 O.co2     1 ANP1327     0.0000 
      8 N3B         5.6070   63.0010    6.9740 N.4       1 ANP1327     0.0000 
      9 PA          4.3730   59.9380    7.4960 P.3       1 ANP1327     0.0000 
     10 O1A         4.3560   58.4750    7.1200 O.co2     1 ANP1327     0.0000 
     11 O2A         3.6530   60.9370    6.6220 O.co2     1 ANP1327     0.0000 
     12 O3A         5.9180   60.3790    7.6570 O.3       1 ANP1327     0.0000 
     13 O5'         3.7870   60.0780    8.9900 O.3       1 ANP1327     0.0000 
     14 C5'         4.3350   59.3150   10.0610 C.3       1 ANP1327     0.0000 
     15 C4'         3.9070   59.9530   11.3760 C.3       1 ANP1327     0.0000 
     16 O4'         2.4940   59.7740   11.5430 O.3       1 ANP1327     0.0000 
     17 C3'         4.5920   59.2910   12.5630 C.3       1 ANP1327     0.0000 
     18 O3'         4.9310   60.2930   13.5300 O.3       1 ANP1327     0.0000 
     19 C2'         3.5210   58.3740   13.1150 C.3       1 ANP1327     0.0000 
     20 O2'         3.6850   58.0720   14.5100 O.3       1 ANP1327     0.0000 
     21 C1'         2.2620   59.1780   12.8200 C.3       1 ANP1327     0.0000 
     22 N9          1.0710   58.3020   12.8690 N.pl3     1 ANP1327     0.0000 
     23 C8          0.7830   57.2600   12.0610 C.2       1 ANP1327     0.0000 
     24 N7         -0.3860   56.6740   12.4270 N.2       1 ANP1327     0.0000 
     25 C5         -0.8580   57.3510   13.4930 C.ar      1 ANP1327     0.0000 
     26 C6         -2.0430   57.2700   14.3820 C.ar      1 ANP1327     0.0000 
     27 N6         -2.9880   56.3170   14.1960 N.pl3     1 ANP1327     0.0000 
     28 N1         -2.1440   58.1740   15.3860 N.ar      1 ANP1327     0.0000 
     29 C2         -1.2160   59.1330   15.5890 C.ar      1 ANP1327     0.0000 
     30 N3         -0.1160   59.2660   14.8210 N.ar      1 ANP1327     0.0000 
     31 C4          0.1100   58.4200   13.7810 C.ar      1 ANP1327     0.0000 
     32 H           5.4264   59.2998   10.0341 H         1 ANP1327     0.0000 
     33 H           3.9741   58.2846   10.0540 H         1 ANP1327     0.0000 
     34 H           4.1635   60.9910   11.3641 H         1 ANP1327     0.0000 
     35 H           5.3996   58.7268   12.2237 H         1 ANP1327     0.0000 
     36 H           3.4912   57.5006   12.4884 H         1 ANP1327     0.0000 
     37 H           2.1971   59.9418   13.5876 H         1 ANP1327     0.0000 
     38 H           1.3388   56.9631   11.3111 H         1 ANP1327     0.0000 
     39 H          -3.1504   56.0372   13.2498 H         1 ANP1327     0.0000 
     40 H          -3.4393   55.9779   15.0214 H         1 ANP1327     0.0000 
     41 H          -1.3598   59.8147   16.3919 H         1 ANP1327     0.0000 
     42 H           5.6655   59.8886   14.0750 H         1 ANP1327     0.0000 
     43 H           4.6226   58.3449   14.7253 H         1 ANP1327     0.0000 
@<TRIPOS>BOND
     1    2    1 ar   
     2    3    1 ar   
     3    4    1 ar   
     4    8    1 1    
     5    6    5 ar   
     6    7    5 ar   
     7    8    5 1    
     8   12    5 1    
     9   10    9 ar   
    10   11    9 ar   
    11   12    9 1    
    12   13    9 1    
    13   14   13 1    
    14   15   14 1    
    15   32   14 1    
    16   33   14 1    
    17   16   15 1    
    18   17   15 1    
    19   34   15 1    
    20   21   16 1    
    21   18   17 1    
    22   19   17 1    
    23   35   17 1    
    24   42   18 1    
    25   20   19 1    
    26   21   19 1    
    27   36   19 1    
    28   43   20 1    
    29   22   21 1    
    30   37   21 1    
    31   23   22 1    
    32   31   22 1    
    33   24   23 2    
    34   38   23 1    
    35   25   24 1    
    36   26   25 ar   
    37   31   25 ar   
    38   27   26 1    
    39   28   26 ar   
    40   39   27 1    
    41   40   27 1    
    42   29   28 ar   
    43   30   29 ar   
    44   41   29 1    
    45   31   30 ar   
@<TRIPOS>SUBSTRUCTURE
     1 ANP1327     1 GROUP   
@<TRIPOS>SET

