#    Name: 2xa4_AZ5_2_INTS_M
#    Modification time : Tue Mar 25 05:37:51 2014

@<TRIPOS>MOLECULE
2xa4_AZ5_2_INTS_M
   68     0     6     0     0
SMALL
NO_CHARGES


@<TRIPOS>ATOM
      1 CA         19.6680  -22.8750   41.4990 C.3       2 GLC5        0.0000 
      2 CA         19.6410  -24.6200   41.9730 C.3       6 GLL5        0.0000 
      3 CA         19.6950  -21.1300   41.0250 C.3       4 GLP5        0.0000 
      4 CA         20.5140  -21.4650   42.8025 C.3       2 GLC5        0.0000 
      5 CA         21.3330  -21.8000   44.5800 C.3       6 GLL5        0.0000 
      6 CA         20.7080  -20.4330   46.0905 C.3       2 GLC5        0.0000 
      7 CA         20.0830  -19.0660   47.6010 C.3       4 GLP5        0.0000 
      8 CA         25.1655  -21.1190   42.5685 C.3       2 GLC5        0.0000 
      9 CA         23.5490  -21.5480   43.8620 C.3       6 GLL5        0.0000 
     10 CA         26.7820  -20.6900   41.2750 C.3       4 GLP5        0.0000 
     11 CA         22.7900  -21.6955   42.1710 C.3       2 GLC5        0.0000 
     12 CA         22.0310  -21.8430   40.4800 C.3       4 GLP5        0.0000 
     13 CA         20.2870  -26.9830   41.2645 C.3       2 GLC5        0.0000 
     14 CA         19.8370  -24.9190   40.5990 C.3       6 GLL5        0.0000 
     15 CA         20.7370  -29.0470   41.9300 C.3       4 GLP5        0.0000 
     16 CA         20.9340  -23.3810   40.5395 C.3       2 GLC5        0.0000 
     17 CA         21.4845  -27.3545   41.2345 C.3       2 GLC5        0.0000 
     18 CA         22.2320  -25.6620   40.5390 C.3       6 GLL5        0.0000 
     19 CA         22.1315  -23.7525   40.5095 C.3       2 GLC5        0.0000 
     20 CA         22.3755  -22.7005   42.4610 C.3       2 GLC5        0.0000 
     21 CA         22.7200  -23.5580   44.4420 C.3       6 GLL5        0.0000 
     22 CA         23.2380  -27.4435   42.8585 C.3       2 GLC5        0.0000 
     23 CA         23.6770  -25.6910   42.3260 C.3       6 GLL5        0.0000 
     24 CA         22.7990  -29.1960   43.3910 C.3       4 GLP5        0.0000 
     25 CA         17.0450  -25.4040   42.7475 C.3       2 GLC5        0.0000 
     26 CA         17.5470  -23.7030   43.2280 C.3       6 GLL5        0.0000 
     27 CA         16.5430  -27.1050   42.2670 C.3       4 GLP5        0.0000 
     28 CA         16.4150  -22.2400   42.0630 C.3       2 GLC5        0.0000 
     29 CA         15.2830  -20.7770   40.8980 C.3       4 GLP5        0.0000 
     30 CA         16.4865  -23.9850   44.5810 C.3       2 GLC5        0.0000 
     31 CA         15.4260  -24.2670   45.9340 C.3       4 GLP5        0.0000 
     32 CA         18.6210  -22.4165   42.1265 C.3       2 GLC5        0.0000 
     33 CA         24.3785  -26.8565   46.5275 C.3       2 GLC5        0.0000 
     34 CA         23.4420  -25.1590   46.0230 C.3       6 GLL5        0.0000 
     35 CA         25.3150  -28.5540   47.0320 C.3       4 GLP5        0.0000 
     36 CA         21.7200  -25.8160   46.9650 C.3       2 GLC5        0.0000 
     37 CA         19.9980  -26.4730   47.9070 C.3       4 GLP5        0.0000 
     38 CA         22.8605  -27.1025   44.0015 C.3       2 GLC5        0.0000 
     39 CA         22.9220  -25.0090   44.6120 C.3       6 GLL5        0.0000 
     40 CA         21.5780  -26.3180   45.7805 C.3       2 GLC5        0.0000 
     41 CA         20.2340  -27.6270   46.9490 C.3       4 GLP5        0.0000 
     42 O          20.8570  -25.0610   38.3780 O.2       1 ALC1        0.0000 
     43 O          20.9810  -25.3900   40.0140 O.2       5 ALL1        0.0000 
     44 O          20.7330  -24.7320   36.7420 O.2       3 ALP1        0.0000 
     45 CA         22.6415  -17.9190   42.7440 C.3       2 GLC5        0.0000 
     46 CA         22.1400  -19.6540   43.9750 C.3       6 GLL5        0.0000 
     47 CA         23.1430  -16.1840   41.5130 C.3       4 GLP5        0.0000 
     48 CA         20.4965  -18.9185   43.6095 C.3       2 GLC5        0.0000 
     49 CA         18.8530  -18.1830   43.2440 C.3       4 GLP5        0.0000 
     50 CA         21.1115  -19.3600   45.7880 C.3       2 GLC5        0.0000 
     51 CA         23.0050  -28.0825   39.4945 C.3       2 GLC5        0.0000 
     52 CA         23.0340  -26.4490   38.0390 C.3       6 GLL5        0.0000 
     53 CA         22.9760  -29.7160   40.9500 C.3       4 GLP5        0.0000 
     54 CA         21.5735  -27.5045   38.0135 C.3       2 GLC5        0.0000 
     55 CA         20.1130  -28.5600   37.9880 C.3       4 GLP5        0.0000 
     56 CA         22.0290  -26.1740   36.1435 C.3       2 GLC5        0.0000 
     57 CA         21.0240  -25.8990   34.2480 C.3       4 GLP5        0.0000 
     58 CA         23.9525  -25.0160   37.9585 C.3       2 GLC5        0.0000 
     59 CA         24.8710  -23.5830   37.8780 C.3       4 GLP5        0.0000 
     60 CA         18.1410  -25.9372   41.7765 C.3       2 GLC5        0.0000 
     61 CA         23.4128  -27.9955   40.4853 C.3       2 GLC5        0.0000 
     62 CA         23.1950  -26.1370   39.7400 C.3       6 GLL5        0.0000 
     63 CA         23.0673  -18.6833   44.5953 C.3       2 GLC5        0.0000 
     64 CA         22.3410  -20.9710   44.1400 C.3       6 GLL5        0.0000 
     65 CA         23.8940  -17.0540   45.1330 C.3       4 GLP5        0.0000 
     66 CA         21.6588  -20.4808   42.3447 C.3       2 GLC5        0.0000 
     67 CA         21.0770  -20.6490   40.6320 C.3       4 GLP5        0.0000 
     68 CA         23.9559  -24.7757   39.0789 C.3       2 GLC5        0.0000 
@<TRIPOS>BOND
@<TRIPOS>SUBSTRUCTURE
     1 ALC1       42 GROUP        1 X    ALC  0     ROOT ALC X 1
     2 GLC5        1 GROUP        1 X    GLC  0     **** GLC X 6
     3 ALP1       44 GROUP        1 Y    ALP  0     ROOT ALP Y 8
     4 GLP5        3 GROUP        1 Y    GLP  0     **** GLP Y 13
     5 ALL1       43 GROUP        1 Z    ALL  0     ROOT ALL Z 15
     6 GLL5        2 GROUP        1 Z    GLL  0     **** GLL Z 20
@<TRIPOS>SET

