#    Name: 2xa4_AZ5_2_ligand
#    Modification time : Tue Mar 25 05:37:51 2014

@<TRIPOS>MOLECULE
2xa4_AZ5_2_ligand
   38    40     1     0     0
SMALL
NO_CHARGES


@<TRIPOS>ATOM
      1 C3         19.6410  -24.6200   41.9730 C.2       1 AZ52132     0.0000 
      2 C19        21.3330  -21.8000   44.5800 C.ar      1 AZ52132     0.0000 
      3 C21        23.5490  -21.5480   43.8620 C.ar      1 AZ52132     0.0000 
      4 C10        24.5040  -26.4130   40.3010 C.ar      1 AZ52132     0.0000 
      5 C20        22.3410  -20.9710   44.1400 C.ar      1 AZ52132     0.0000 
      6 C9         23.1950  -26.1370   39.7400 C.ar      1 AZ52132     0.0000 
      7 C2         18.3460  -24.1710   42.0820 C.2       1 AZ52132     0.0000 
      8 C4         19.8370  -24.9190   40.5990 C.2       1 AZ52132     0.0000 
      9 C8         22.2320  -25.6620   40.5390 C.ar      1 AZ52132     0.0000 
     10 C17        22.7200  -23.5580   44.4420 C.ar      1 AZ52132     0.0000 
     11 C12        23.6770  -25.6910   42.3260 C.ar      1 AZ52132     0.0000 
     12 C1         17.5470  -23.7030   43.2280 C.3       1 AZ52132     0.0000 
     13 C16        23.4420  -25.1590   46.0230 C.3       1 AZ52132     0.0000 
     14 C15        22.9220  -25.0090   44.6120 C.3       1 AZ52132     0.0000 
     15 N18        21.4980  -23.1140   44.7460 N.ar      1 AZ52132     0.0000 
     16 N22        23.7760  -22.8540   44.0080 N.ar      1 AZ52132     0.0000 
     17 N11        24.6650  -26.1510   41.6260 N.ar      1 AZ52132     0.0000 
     18 N13        22.4360  -25.4470   41.7710 N.ar      1 AZ52132     0.0000 
     19 N5         18.7110  -24.6560   39.9130 N.pl3     1 AZ52132     0.0000 
     20 N6         17.8270  -24.2100   40.8230 N.2       1 AZ52132     0.0000 
     21 N7         20.9810  -25.3900   40.0140 N.pl3     1 AZ52132     0.0000 
     22 N14        23.9140  -25.4800   43.6620 N.pl3     1 AZ52132     0.0000 
     23 F23        22.1400  -19.6540   43.9750 F         1 AZ52132     0.0000 
     24 CL2        23.0340  -26.4490   38.0390 Cl        1 AZ52132     0.0000 
     25 H          20.2787  -24.7176   42.6447 H         1 AZ52132     0.0000 
     26 H          20.3934  -21.3587   44.7908 H         1 AZ52132     0.0000 
     27 H          24.3295  -20.9182   43.5164 H         1 AZ52132     0.0000 
     28 H          25.2223  -26.7767   39.7080 H         1 AZ52132     0.0000 
     29 H          22.0032  -25.5181   44.5258 H         1 AZ52132     0.0000 
     30 H          18.5691  -24.7629   38.9795 H         1 AZ52132     0.0000 
     31 H          20.8950  -25.5917   38.9215 H         1 AZ52132     0.0000 
     32 H          24.8749  -25.6641   44.0566 H         1 AZ52132     0.0000 
     33 H          17.4544  -24.4096   43.9295 H         1 AZ52132     0.0000 
     34 H          17.9601  -22.9056   43.6679 H         1 AZ52132     0.0000 
     35 H          16.6222  -23.4399   42.9532 H         1 AZ52132     0.0000 
     36 H          23.6221  -26.1155   46.2527 H         1 AZ52132     0.0000 
     37 H          24.2973  -24.6589   46.1587 H         1 AZ52132     0.0000 
     38 H          22.7900  -24.8132   46.6978 H         1 AZ52132     0.0000 
@<TRIPOS>BOND
     1    7    1 1    
     2    8    1 2    
     3   25    1 1    
     4    5    2 ar   
     5   15    2 ar   
     6   26    2 1    
     7    5    3 ar   
     8   16    3 ar   
     9   27    3 1    
    10    6    4 ar   
    11   17    4 ar   
    12   28    4 1    
    13   23    5 1    
    14    9    6 ar   
    15   24    6 1    
    16   12    7 1    
    17   20    7 2    
    18   19    8 1    
    19   21    8 1    
    20   18    9 ar   
    21   21    9 1    
    22   14   10 1    
    23   15   10 ar   
    24   16   10 ar   
    25   17   11 ar   
    26   18   11 ar   
    27   22   11 1    
    28   33   12 1    
    29   34   12 1    
    30   35   12 1    
    31   14   13 1    
    32   36   13 1    
    33   37   13 1    
    34   38   13 1    
    35   22   14 1    
    36   29   14 1    
    37   20   19 1    
    38   30   19 1    
    39   31   21 1    
    40   32   22 1    
@<TRIPOS>SUBSTRUCTURE
     1 AZ52132     1 GROUP   
@<TRIPOS>SET

