#    Name: 3ugr_IMN_1_INTS_M
#    Modification time : Mon Mar 24 22:20:31 2014

@<TRIPOS>MOLECULE
3ugr_IMN_1_INTS_M
   44     0     6     0     0
SMALL
NO_CHARGES


@<TRIPOS>ATOM
      1 CA         -1.8630   -7.5940   -9.2060 C.3       2 GLC5        0.0000 
      2 CA         -3.7580   -7.2620   -8.2540 C.3       6 GLL5        0.0000 
      3 CA          0.0320   -7.9260  -10.1580 C.3       4 GLP5        0.0000 
      4 CA         -2.1305   -7.2235   -7.0710 C.3       2 GLC5        0.0000 
      5 CA         -0.5030   -7.1850   -5.8880 C.3       4 GLP5        0.0000 
      6 CA         -3.7770   -6.4555   -6.6345 C.3       2 GLC5        0.0000 
      7 CA         -3.7960   -5.6490   -5.0150 C.3       4 GLP5        0.0000 
      8 CA         -4.8775   -8.3040   -7.0005 C.3       2 GLC5        0.0000 
      9 CA         -5.9970   -9.3460   -5.7470 C.3       4 GLP5        0.0000 
     10 CA         -4.7285   -8.3595   -9.7030 C.3       2 GLC5        0.0000 
     11 CA         -5.6990   -9.4570  -11.1520 C.3       4 GLP5        0.0000 
     12 CA         -1.2590   -6.7825  -18.3755 C.3       2 GLC5        0.0000 
     13 CA         -2.0050   -5.3920  -16.9390 C.3       6 GLL5        0.0000 
     14 CA         -0.5130   -8.1730  -19.8120 C.3       4 GLP5        0.0000 
     15 CA         -3.5345    0.7585  -11.8050 C.3       2 GLC5        0.0000 
     16 CA         -3.1770   -0.8750  -12.3260 C.3       6 GLL5        0.0000 
     17 CA         -3.8920    2.3920  -11.2840 C.3       4 GLP5        0.0000 
     18 CA         -1.1760   -0.4425  -13.2430 C.3       2 GLC5        0.0000 
     19 CA          0.8250   -0.0100  -14.1600 C.3       4 GLP5        0.0000 
     20 CA         -5.0210   -1.6175  -12.4235 C.3       2 GLC5        0.0000 
     21 CA         -6.8650   -2.3600  -12.5210 C.3       4 GLP5        0.0000 
     22 CA         -3.7825   -0.1490   -9.7465 C.3       2 GLC5        0.0000 
     23 CA         -4.0160   -2.0620   -9.4500 C.3       6 GLL5        0.0000 
     24 CA         -3.5490    1.7640  -10.0430 C.3       4 GLP5        0.0000 
     25 CA         -5.4405   -2.2110  -10.9855 C.3       2 GLC5        0.0000 
     26 N          -3.7865   -2.8305   -5.7685 N.am      1 SEC2        0.0000 
     27 N          -3.6170   -2.8230   -7.1840 N.am      5 SEL2        0.0000 
     28 N          -3.9560   -2.8380   -4.3530 N.am      3 SEP2        0.0000 
     29 CA         -3.5845   -5.0195  -19.3085 C.3       2 GLC5        0.0000 
     30 CA         -3.6960   -6.7430  -18.5980 C.3       6 GLL5        0.0000 
     31 CA         -3.4730   -3.2960  -20.0190 C.3       4 GLP5        0.0000 
     32 CA         -2.1045   -7.4580  -19.2050 C.3       2 GLC5        0.0000 
     33 CA         -4.1375   -8.6970  -18.7505 C.3       2 GLC5        0.0000 
     34 CA         -4.5790  -10.6510  -18.9030 C.3       4 GLP5        0.0000 
     35 CA         -5.3405   -6.9365  -19.3715 C.3       2 GLC5        0.0000 
     36 CA         -6.9850   -7.1300  -20.1450 C.3       4 GLP5        0.0000 
     37 CA         -4.5135   -8.0583  -11.1017 C.3       2 GLC5        0.0000 
     38 CA         -3.1390   -6.7780  -11.6990 C.3       6 GLL5        0.0000 
     39 CA         -0.0782   -4.7075  -16.7230 C.3       2 GLC5        0.0000 
     40 CA         -1.7280   -4.5420  -15.8970 C.3       6 GLL5        0.0000 
     41 CA          1.7100   -4.4480  -17.0280 C.3       4 GLP5        0.0000 
     42 CA         -2.8259   -2.5550  -16.2280 C.3       2 GLC5        0.0000 
     43 CA         -2.7550   -4.0180  -15.1090 C.3       6 GLL5        0.0000 
     44 CA         -2.5060   -0.8200  -16.9920 C.3       4 GLP5        0.0000 
@<TRIPOS>BOND
@<TRIPOS>SUBSTRUCTURE
     1 SEC2       26 GROUP        1 X    SEC  0     ROOT SEC X 2
     2 GLC5        1 GROUP        1 X    GLC  0     **** GLC X 6
     3 SEP2       28 GROUP        1 Y    SEP  0     ROOT SEP Y 9
     4 GLP5        3 GROUP        1 Y    GLP  0     **** GLP Y 13
     5 SEL2       27 GROUP        1 Z    SEL  0     ROOT SEL Z 16
     6 GLL5        2 GROUP        1 Z    GLL  0     **** GLL Z 20
@<TRIPOS>SET

