#    Name: 3ugr_IMN_1_ligand
#    Modification time : Mon Mar 24 22:20:31 2014

@<TRIPOS>MOLECULE
3ugr_IMN_1_ligand
   40    42     1     0     0
SMALL
NO_CHARGES


@<TRIPOS>ATOM
      1 C          -3.0840   -4.4930  -12.1640 C.ar      1 IMN2001     0.0000 
      2 C1         -3.4850   -4.2420  -10.8860 C.ar      1 IMN2001     0.0000 
      3 C2         -3.7020   -5.2430  -10.0140 C.ar      1 IMN2001     0.0000 
      4 C3         -3.5170   -6.5410  -10.4040 C.ar      1 IMN2001     0.0000 
      5 C4         -3.1390   -6.7780  -11.6990 C.ar      1 IMN2001     0.0000 
      6 C5         -2.9420   -5.7520  -12.5920 C.ar      1 IMN2001     0.0000 
      7 C6         -3.7580   -7.2620   -8.2540 C.3       1 IMN2001     0.0000 
      8 C7         -3.5660   -2.8920  -10.7600 C.2       1 IMN2001     0.0000 
      9 C8         -3.2130   -2.3810  -11.9600 C.2       1 IMN2001     0.0000 
     10 C9         -2.4810   -3.1850  -14.0390 C.2       1 IMN2001     0.0000 
     11 C10        -2.7550   -4.0180  -15.1090 C.ar      1 IMN2001     0.0000 
     12 C11        -1.7280   -4.5420  -15.8970 C.ar      1 IMN2001     0.0000 
     13 C12        -2.0050   -5.3920  -16.9390 C.ar      1 IMN2001     0.0000 
     14 C13        -3.3340   -5.6660  -17.2400 C.ar      1 IMN2001     0.0000 
     15 C14        -4.3240   -5.1340  -16.4850 C.ar      1 IMN2001     0.0000 
     16 C15        -4.0500   -4.3000  -15.4250 C.ar      1 IMN2001     0.0000 
     17 C16        -3.1770   -0.8750  -12.3260 C.3       1 IMN2001     0.0000 
     18 C17        -4.0160   -2.0620   -9.4500 C.3       1 IMN2001     0.0000 
     19 C18        -3.1040   -2.4380   -8.2480 C.2       1 IMN2001     0.0000 
     20 N          -2.9650   -3.3520  -12.8260 N.am      1 IMN2001     0.0000 
     21 O          -3.7010   -7.5850   -9.5850 O.3       1 IMN2001     0.0000 
     22 O1         -1.5320   -2.4470  -14.1290 O.2       1 IMN2001     0.0000 
     23 O2         -3.6170   -2.8230   -7.1840 O.co2     1 IMN2001     0.0000 
     24 O3         -1.9180   -2.3740   -8.4880 O.co2     1 IMN2001     0.0000 
     25 CL         -3.6960   -6.7430  -18.5980 Cl        1 IMN2001     0.0000 
     26 H          -4.0102   -5.0410   -9.0421 H         1 IMN2001     0.0000 
     27 H          -2.9962   -7.7637  -12.0183 H         1 IMN2001     0.0000 
     28 H          -2.6903   -5.9666  -13.5684 H         1 IMN2001     0.0000 
     29 H          -0.7486   -4.2799  -15.6844 H         1 IMN2001     0.0000 
     30 H          -1.2551   -5.8184  -17.4868 H         1 IMN2001     0.0000 
     31 H          -5.3233   -5.3560  -16.7045 H         1 IMN2001     0.0000 
     32 H          -4.8249   -3.8940  -14.8769 H         1 IMN2001     0.0000 
     33 H          -5.0342   -2.3205   -9.2344 H         1 IMN2001     0.0000 
     34 H          -3.9162   -1.0183   -9.6754 H         1 IMN2001     0.0000 
     35 H          -2.9151   -6.8237   -7.9418 H         1 IMN2001     0.0000 
     36 H          -4.5074   -6.6299   -8.0570 H         1 IMN2001     0.0000 
     37 H          -3.8977   -8.0699   -7.6814 H         1 IMN2001     0.0000 
     38 H          -2.5425   -0.3664  -11.7440 H         1 IMN2001     0.0000 
     39 H          -2.8877   -0.7295  -13.2721 H         1 IMN2001     0.0000 
     40 H          -4.0750   -0.4467  -12.2249 H         1 IMN2001     0.0000 
@<TRIPOS>BOND
     1    2    1 ar   
     2    6    1 ar   
     3   20    1 1    
     4    3    2 ar   
     5    8    2 1    
     6    4    3 ar   
     7   26    3 1    
     8    5    4 ar   
     9   21    4 1    
    10    6    5 ar   
    11   27    5 1    
    12   28    6 1    
    13   21    7 1    
    14   35    7 1    
    15   36    7 1    
    16   37    7 1    
    17    9    8 2    
    18   18    8 1    
    19   17    9 1    
    20   20    9 1    
    21   11   10 1    
    22   20   10 am   
    23   22   10 2    
    24   12   11 ar   
    25   16   11 ar   
    26   13   12 ar   
    27   29   12 1    
    28   14   13 ar   
    29   30   13 1    
    30   15   14 ar   
    31   25   14 1    
    32   16   15 ar   
    33   31   15 1    
    34   32   16 1    
    35   38   17 1    
    36   39   17 1    
    37   40   17 1    
    38   19   18 1    
    39   33   18 1    
    40   34   18 1    
    41   23   19 ar   
    42   24   19 ar   
@<TRIPOS>SUBSTRUCTURE
     1 IMN2001     1 GROUP   
@<TRIPOS>SET

