#    Name: 3qlf_PD5_1_INTS_M
#    Modification time : Mon Apr  7 19:40:47 2014

@<TRIPOS>MOLECULE
3qlf_PD5_1_INTS_M
   83     0     9     0     0
SMALL
NO_CHARGES


@<TRIPOS>ATOM
      1 CA         12.9000  -34.2830   -7.7055 C.3       3 GLC5        0.0000 
      2 CA         11.0280  -35.1910   -6.8820 C.3       9 GLL5        0.0000 
      3 CA         14.7720  -33.3750   -8.5290 C.3       6 GLP5        0.0000 
      4 CA         11.8600  -33.5375   -5.7010 C.3       3 GLC5        0.0000 
      5 CA         12.6920  -31.8840   -4.5200 C.3       6 GLP5        0.0000 
      6 N          13.4500  -34.4020   -6.3870 N.am      2 SEC2        0.0000 
      7 N          12.3820  -35.2610   -6.6550 N.am      8 SEL2        0.0000 
      8 N          14.5180  -33.5430   -6.1190 N.am      5 SEP2        0.0000 
      9 CA          8.4965  -42.2310   -4.9595 C.3       3 GLC5        0.0000 
     10 CA          8.4590  -40.0820   -4.7440 C.3       9 GLL5        0.0000 
     11 CA          8.5340  -44.3800   -5.1750 C.3       6 GLP5        0.0000 
     12 CA         11.4395  -38.1055   -1.8675 C.3       3 GLC5        0.0000 
     13 CA          9.7520  -38.8700   -2.9190 C.3       9 GLL5        0.0000 
     14 CA         13.1270  -37.3410   -0.8160 C.3       6 GLP5        0.0000 
     15 CA          9.5830  -36.9570   -2.5045 C.3       3 GLC5        0.0000 
     16 CA          9.4140  -35.0440   -2.0900 C.3       6 GLP5        0.0000 
     17 CA         13.3455  -38.3790   -6.5915 C.3       3 GLC5        0.0000 
     18 CA         12.8180  -36.3210   -5.9120 C.3       9 GLL5        0.0000 
     19 CA         13.8730  -40.4370   -7.2710 C.3       6 GLP5        0.0000 
     20 CA         12.2380  -36.1975   -7.9805 C.3       3 GLC5        0.0000 
     21 CA         11.6580  -36.0740  -10.0490 C.3       6 GLP5        0.0000 
     22 CA         13.7950  -34.8480   -7.2205 C.3       3 GLC5        0.0000 
     23 CA         13.8280  -34.7870   -5.3195 C.3       3 GLC5        0.0000 
     24 CA         14.8380  -33.2530   -4.7270 C.3       6 GLP5        0.0000 
     25 O          11.3880  -33.3600   -8.4535 O.2       1 ALC1        0.0000 
     26 O          10.5360  -34.1560   -7.6140 O.2       7 ALL1        0.0000 
     27 O          12.2400  -32.5640   -9.2930 O.2       4 ALP1        0.0000 
     28 CA          7.1315  -37.9990   -8.2515 C.3       3 GLC5        0.0000 
     29 CA          7.4790  -35.8690   -8.2690 C.3       9 GLL5        0.0000 
     30 CA          6.7840  -40.1290   -8.2340 C.3       6 GLP5        0.0000 
     31 CA          6.9480  -33.8785  -10.1170 C.3       3 GLC5        0.0000 
     32 CA          6.3510  -35.2680   -8.7860 C.3       9 GLL5        0.0000 
     33 CA          7.5450  -32.4890  -11.4480 C.3       6 GLP5        0.0000 
     34 CA          5.7160  -33.1470   -5.0195 C.3       3 GLC5        0.0000 
     35 CA          5.6230  -34.6940   -6.5050 C.3       9 GLL5        0.0000 
     36 CA          5.8090  -31.6000   -3.5340 C.3       6 GLP5        0.0000 
     37 N           3.6045  -31.9775   -5.9265 N.am      2 SEC2        0.0000 
     38 N           4.2170  -32.2880   -7.0350 N.am      8 SEL2        0.0000 
     39 N           2.9920  -31.6670   -4.8180 N.am      5 SEP2        0.0000 
     40 CA          3.2925  -30.5895   -8.8870 C.3       3 GLC5        0.0000 
     41 CA          2.4070  -30.4520   -7.4210 C.3       9 GLL5        0.0000 
     42 CA          4.1780  -30.7270  -10.3530 C.3       6 GLP5        0.0000 
     43 CA          1.8210  -31.0200   -6.0665 C.3       3 GLC5        0.0000 
     44 CA          1.6570  -29.3410   -7.0850 C.3       9 GLL5        0.0000 
     45 CA          1.9850  -32.6990   -5.0480 C.3       6 GLP5        0.0000 
     46 CA          3.0655  -25.2195   -6.0630 C.3       3 GLC5        0.0000 
     47 CA          2.3550  -27.0350   -6.9960 C.3       9 GLL5        0.0000 
     48 CA          3.7760  -23.4040   -5.1300 C.3       6 GLP5        0.0000 
     49 CA          0.5300  -27.0410   -6.2805 C.3       3 GLC5        0.0000 
     50 CA         -1.2950  -27.0470   -5.5650 C.3       6 GLP5        0.0000 
     51 CA          0.7970  -28.0495   -3.2705 C.3       3 GLC5        0.0000 
     52 CA          1.6690  -27.8720   -5.1320 C.3       9 GLL5        0.0000 
     53 CA         -0.0750  -28.2270   -1.4090 C.3       6 GLP5        0.0000 
     54 CA          9.8833  -38.2987   -7.1315 C.3       3 GLC5        0.0000 
     55 CA         10.1880  -36.1890   -6.3550 C.3       9 GLL5        0.0000 
     56 CA          9.2780  -39.8820   -8.2880 C.3       6 GLP5        0.0000 
     57 CA         11.1330  -35.8820   -8.3337 C.3       3 GLC5        0.0000 
     58 CA          9.9996  -34.7796   -5.2752 C.3       3 GLC5        0.0000 
     59 CA          9.2410  -33.6060   -4.1220 C.3       6 GLP5        0.0000 
     60 CA          9.1860  -39.7870   -6.4260 C.3       3 GLC5        0.0000 
     61 CA          9.7290  -39.3020   -4.3840 C.3       9 GLL5        0.0000 
     62 CA          4.6067  -36.3350   -9.0633 C.3       3 GLC5        0.0000 
     63 CA          5.4480  -34.6840   -7.8850 C.3       9 GLL5        0.0000 
     64 CA          3.3140  -37.6940   -9.7910 C.3       6 GLP5        0.0000 
     65 CA          7.8290  -34.3671   -5.3004 C.3       3 GLC5        0.0000 
     66 CA          4.0613  -34.3715   -5.9310 C.3       3 GLC5        0.0000 
     67 CA          2.5870  -34.0540   -4.6670 C.3       6 GLP5        0.0000 
     68 CA          1.8668  -31.0645   -9.7852 C.3       3 GLC5        0.0000 
     69 CA          1.7840  -31.4830   -8.1360 C.3       9 GLL5        0.0000 
     70 CA          2.6230  -30.6850  -11.2480 C.3       6 GLP5        0.0000 
     71 CA          1.6256  -31.9426   -6.5959 C.3       3 GLC5        0.0000 
     72 CA         -0.7732  -30.6480   -6.0352 C.3       3 GLC5        0.0000 
     73 CA         -0.2840  -30.2680   -8.1600 C.3       9 GLL5        0.0000 
     74 CA         -1.5640  -31.5450   -4.2660 C.3       6 GLP5        0.0000 
     75 CA          1.5641  -29.2245   -9.3539 C.3       3 GLC5        0.0000 
     76 CA          2.2910  -28.9030  -11.2630 C.3       6 GLP5        0.0000 
     77 CA          0.4728  -28.0825   -5.2313 C.3       3 GLC5        0.0000 
     78 CA         -1.0480  -28.1360   -4.7460 C.3       6 GLP5        0.0000 
     79 CA          1.3779  -26.2146   -6.8611 C.3       3 GLC5        0.0000 
     80 CA          0.7530  -24.6880   -7.8320 C.3       6 GLP5        0.0000 
     81 CA          3.7446  -29.3920   -4.6519 C.3       3 GLC5        0.0000 
     82 CA          2.3180  -28.1860   -6.3010 C.3       9 GLL5        0.0000 
     83 CA          4.6890  -30.5700   -3.4780 C.3       6 GLP5        0.0000 
@<TRIPOS>BOND
@<TRIPOS>SUBSTRUCTURE
     1 ALC1       25 GROUP        1 X    ALC  0     ROOT ALC X 1
     2 SEC2        6 GROUP        1 X    SEC  0     **** SEC X 2
     3 GLC5        1 GROUP        1 X    GLC  0     **** GLC X 6
     4 ALP1       27 GROUP        1 Y    ALP  0     ROOT ALP Y 8
     5 SEP2        8 GROUP        1 Y    SEP  0     **** SEP Y 9
     6 GLP5        3 GROUP        1 Y    GLP  0     **** GLP Y 13
     7 ALL1       26 GROUP        1 Z    ALL  0     ROOT ALL Z 15
     8 SEL2        7 GROUP        1 Z    SEL  0     **** SEL Z 16
     9 GLL5        2 GROUP        1 Z    GLL  0     **** GLL Z 20
@<TRIPOS>SET

