#    Name: 3qlf_PD5_1_ligand
#    Modification time : Mon Apr  7 19:40:47 2014

@<TRIPOS>MOLECULE
3qlf_PD5_1_ligand
   53    56     1     0     0
SMALL
NO_CHARGES


@<TRIPOS>ATOM
      1 C4         10.7890  -37.2420   -5.5950 C.ar      1 PD5601      0.0000 
      2 C5         10.1880  -36.1890   -6.3550 C.ar      1 PD5601      0.0000 
      3 C6         11.0280  -35.1910   -6.8820 C.ar      1 PD5601      0.0000 
      4 N1         12.3820  -35.2610   -6.6550 N.ar      1 PD5601      0.0000 
      5 N3         12.1350  -37.3430   -5.3470 N.ar      1 PD5601      0.0000 
      6 CAA         8.4590  -40.0820   -4.7440 C.3       1 PD5601      0.0000 
      7 CBE         9.7290  -39.3020   -4.3840 C.3       1 PD5601      0.0000 
      8 CAB         9.7520  -38.8700   -2.9190 C.3       1 PD5601      0.0000 
      9 NBF         9.7530  -38.0710   -5.2030 N.pl3     1 PD5601      0.0000 
     10 NAS         8.5540  -37.6100   -5.6590 N.2       1 PD5601      0.0000 
     11 C2         12.8180  -36.3210   -5.9120 C.ar      1 PD5601      0.0000 
     12 NAC        10.5360  -34.1560   -7.6140 N.pl3     1 PD5601      0.0000 
     13 CBB         8.8000  -36.4910   -6.3490 C.2       1 PD5601      0.0000 
     14 CAZ         7.6690  -35.8260   -6.8980 C.ar      1 PD5601      0.0000 
     15 CAO         7.4790  -35.8690   -8.2690 C.ar      1 PD5601      0.0000 
     16 CAM         6.3510  -35.2680   -8.7860 C.ar      1 PD5601      0.0000 
     17 CAN         6.7530  -35.2990   -6.0070 C.ar      1 PD5601      0.0000 
     18 CAL         5.6230  -34.6940   -6.5050 C.ar      1 PD5601      0.0000 
     19 CAX         5.4480  -34.6840   -7.8850 C.ar      1 PD5601      0.0000 
     20 NAT         4.2840  -34.1280   -8.4450 N.am      1 PD5601      0.0000 
     21 CAV         3.6920  -32.9870   -7.8970 C.2       1 PD5601      0.0000 
     22 OAD         4.2170  -32.2880   -7.0350 O.2       1 PD5601      0.0000 
     23 NAU         2.4710  -32.6580   -8.5200 N.am      1 PD5601      0.0000 
     24 CAY         1.7840  -31.4830   -8.1360 C.ar      1 PD5601      0.0000 
     25 CAP         2.4070  -30.4520   -7.4210 C.ar      1 PD5601      0.0000 
     26 CAJ         0.4370  -31.4050   -8.5090 C.ar      1 PD5601      0.0000 
     27 CAH        -0.2840  -30.2680   -8.1600 C.ar      1 PD5601      0.0000 
     28 CAK         0.3190  -29.2340   -7.4490 C.ar      1 PD5601      0.0000 
     29 CBA         1.6570  -29.3410   -7.0850 C.ar      1 PD5601      0.0000 
     30 CBG         2.3180  -28.1860   -6.3010 C.3       1 PD5601      0.0000 
     31 FAF         2.3550  -27.0350   -6.9960 F         1 PD5601      0.0000 
     32 FAG         1.6690  -27.8720   -5.1320 F         1 PD5601      0.0000 
     33 FAE         3.6070  -28.3990   -5.9350 F         1 PD5601      0.0000 
     34 H          10.5850  -39.8950   -4.5955 H         1 PD5601      0.0000 
     35 H          13.9193  -36.3437   -5.7463 H         1 PD5601      0.0000 
     36 H          11.2119  -33.5198   -7.9861 H         1 PD5601      0.0000 
     37 H           9.5417  -34.1224   -7.7156 H         1 PD5601      0.0000 
     38 H           8.1536  -36.3312   -8.8746 H         1 PD5601      0.0000 
     39 H           6.1697  -35.2429   -9.7826 H         1 PD5601      0.0000 
     40 H           6.9153  -35.3594   -4.9991 H         1 PD5601      0.0000 
     41 H           4.9351  -34.2669   -5.8925 H         1 PD5601      0.0000 
     42 H           3.8623  -34.5736   -9.2757 H         1 PD5601      0.0000 
     43 H           2.0839  -33.2620   -9.2431 H         1 PD5601      0.0000 
     44 H           3.3864  -30.5275   -7.1600 H         1 PD5601      0.0000 
     45 H          -0.0006  -32.1646   -9.0234 H         1 PD5601      0.0000 
     46 H          -1.2777  -30.1893   -8.4310 H         1 PD5601      0.0000 
     47 H          -0.2200  -28.3999   -7.1959 H         1 PD5601      0.0000 
     48 H           8.4536  -40.3600   -5.7046 H         1 PD5601      0.0000 
     49 H           8.3669  -40.9144   -4.1975 H         1 PD5601      0.0000 
     50 H           7.6336  -39.5385   -4.5916 H         1 PD5601      0.0000 
     51 H          10.5856  -38.3658   -2.6935 H         1 PD5601      0.0000 
     52 H           8.9800  -38.2751   -2.6951 H         1 PD5601      0.0000 
     53 H           9.7071  -39.6540   -2.2999 H         1 PD5601      0.0000 
@<TRIPOS>BOND
     1    2    1 ar   
     2    5    1 ar   
     3    9    1 1    
     4    3    2 ar   
     5   13    2 1    
     6    4    3 ar   
     7   12    3 1    
     8   11    4 ar   
     9   11    5 ar   
    10    7    6 1    
    11   48    6 1    
    12   49    6 1    
    13   50    6 1    
    14    8    7 1    
    15    9    7 1    
    16   34    7 1    
    17   51    8 1    
    18   52    8 1    
    19   53    8 1    
    20   10    9 1    
    21   13   10 2    
    22   35   11 1    
    23   36   12 1    
    24   37   12 1    
    25   14   13 1    
    26   15   14 ar   
    27   17   14 ar   
    28   16   15 ar   
    29   38   15 1    
    30   19   16 ar   
    31   39   16 1    
    32   18   17 ar   
    33   40   17 1    
    34   19   18 ar   
    35   41   18 1    
    36   20   19 1    
    37   21   20 am   
    38   42   20 1    
    39   22   21 2    
    40   23   21 am   
    41   24   23 1    
    42   43   23 1    
    43   25   24 ar   
    44   26   24 ar   
    45   29   25 ar   
    46   44   25 1    
    47   27   26 ar   
    48   45   26 1    
    49   28   27 ar   
    50   46   27 1    
    51   29   28 ar   
    52   47   28 1    
    53   30   29 1    
    54   31   30 1    
    55   32   30 1    
    56   33   30 1    
@<TRIPOS>SUBSTRUCTURE
     1 PD5601      1 GROUP   
@<TRIPOS>SET

