#    Name: 1mo3_ADP_1_INTS_M
#    Modification time : Tue Mar 25 11:53:08 2014

@<TRIPOS>MOLECULE
1mo3_ADP_1_INTS_M
   44     0     6     0     0
SMALL
NO_CHARGES


@<TRIPOS>ATOM
      1 N          33.8305   74.6410   -5.9435 N.am      1 SEC2        0.0000 
      2 N          34.9340   75.7590   -6.2970 N.am      5 SEL2        0.0000 
      3 N          32.7270   73.5230   -5.5900 N.am      3 SEP2        0.0000 
      4 N          33.3400   75.9785   -6.0635 N.am      1 SEC2        0.0000 
      5 N          31.7460   76.1980   -5.8300 N.am      3 SEP2        0.0000 
      6 N          36.5750   76.8020   -9.2660 N.am      1 SEC2        0.0000 
      7 N          35.1900   76.8210   -8.5890 N.am      5 SEL2        0.0000 
      8 N          37.9600   76.7830   -9.9430 N.am      3 SEP2        0.0000 
      9 N          36.4860   73.3435   -8.3325 N.am      1 SEC2        0.0000 
     10 N          36.4240   74.6900   -8.0090 N.am      5 SEL2        0.0000 
     11 N          36.5480   71.9970   -8.6560 N.am      3 SEP2        0.0000 
     12 N          35.8340   73.3725   -7.1585 N.am      1 SEC2        0.0000 
     13 N          35.2440   72.0550   -6.3080 N.am      3 SEP2        0.0000 
     14 N          37.3275   74.3445   -8.8065 N.am      1 SEC2        0.0000 
     15 N          38.2310   73.9990   -9.6040 N.am      3 SEP2        0.0000 
     16 N          31.5180   72.8785   -8.4700 N.am      1 SEC2        0.0000 
     17 N          32.1150   73.6270   -9.6400 N.am      5 SEL2        0.0000 
     18 N          30.9210   72.1300   -7.3000 N.am      3 SEP2        0.0000 
     19 N          31.5350   72.5095   -9.9120 N.am      1 SEC2        0.0000 
     20 N          30.9550   71.3920  -10.1840 N.am      3 SEP2        0.0000 
     21 N          33.3840   74.0815   -6.9705 N.am      1 SEC2        0.0000 
     22 N          34.0410   74.6400   -8.3510 N.am      5 SEL2        0.0000 
     23 CA         36.1110   74.8695  -11.1455 C.3       2 GLC5        0.0000 
     24 CA         34.6720   73.8730  -11.2880 C.3       6 GLL5        0.0000 
     25 CA         37.5500   75.8660  -11.0030 C.3       4 GLP5        0.0000 
     26 CA         35.0310   72.5015   -9.9235 C.3       2 GLC5        0.0000 
     27 CA         35.3900   71.1300   -8.5590 C.3       4 GLP5        0.0000 
     28 N          31.8040   72.2365  -11.2925 N.am      1 SEC2        0.0000 
     29 N          32.6530   73.0810  -12.4010 N.am      5 SEL2        0.0000 
     30 CA         33.0625   73.2130  -16.7760 C.3       2 GLC5        0.0000 
     31 CA         33.0250   73.6000  -14.6980 C.3       6 GLL5        0.0000 
     32 CA         33.1000   72.8260  -18.8540 C.3       4 GLP5        0.0000 
     33 CA         30.1650   72.7560  -13.1065 C.3       2 GLC5        0.0000 
     34 CA         31.9620   73.2570  -13.6560 C.3       6 GLL5        0.0000 
     35 CA         28.3680   72.2550  -12.5570 C.3       4 GLP5        0.0000 
     36 CA         28.0075   73.4520  -16.9675 C.3       2 GLC5        0.0000 
     37 CA         28.9850   74.9560  -16.4790 C.3       6 GLL5        0.0000 
     38 CA         27.0300   71.9480  -17.4560 C.3       4 GLP5        0.0000 
     39 N          29.2050   73.0660  -16.6550 N.am      1 SEC2        0.0000 
     40 N          29.9430   74.3330  -15.7650 N.am      5 SEL2        0.0000 
     41 N          28.4670   71.7990  -17.5450 N.am      3 SEP2        0.0000 
     42 CA         26.9235   75.5327  -13.6262 C.3       2 GLC5        0.0000 
     43 CA         29.2920   75.7700  -13.9110 C.3       6 GLL5        0.0000 
     44 CA         25.0590   74.9910  -12.9150 C.3       4 GLP5        0.0000 
@<TRIPOS>BOND
@<TRIPOS>SUBSTRUCTURE
     1 SEC2        1 GROUP        1 X    SEC  0     ROOT SEC X 2
     2 GLC5       23 GROUP        1 X    GLC  0     **** GLC X 6
     3 SEP2        3 GROUP        1 Y    SEP  0     ROOT SEP Y 9
     4 GLP5       25 GROUP        1 Y    GLP  0     **** GLP Y 13
     5 SEL2        2 GROUP        1 Z    SEL  0     ROOT SEL Z 16
     6 GLL5       24 GROUP        1 Z    GLL  0     **** GLL Z 20
@<TRIPOS>SET

