#    Name: 1mo3_ADP_1_ligand
#    Modification time : Tue Mar 25 11:53:08 2014

@<TRIPOS>MOLECULE
1mo3_ADP_1_ligand
   39    41     1     0     0
SMALL
NO_CHARGES


@<TRIPOS>ATOM
      1 PB         35.1680   75.5710   -7.7840 P.3       1 ADP500      0.0000 
      2 O1B        34.9340   75.7590   -6.2970 O.co2     1 ADP500      0.0000 
      3 O2B        35.1900   76.8210   -8.5890 O.co2     1 ADP500      0.0000 
      4 O3B        36.4240   74.6900   -8.0090 O.co2     1 ADP500      0.0000 
      5 PA         32.9490   74.8290   -9.5470 P.3       1 ADP500      0.0000 
      6 O1A        32.2700   76.1530   -9.3370 O.co2     1 ADP500      0.0000 
      7 O2A        32.1150   73.6270   -9.6400 O.co2     1 ADP500      0.0000 
      8 O3A        34.0410   74.6400   -8.3510 O.3       1 ADP500      0.0000 
      9 O5'        33.8910   74.9990  -10.8260 O.3       1 ADP500      0.0000 
     10 C5'        34.6720   73.8730  -11.2880 C.3       1 ADP500      0.0000 
     11 C4'        34.1270   73.2900  -12.5750 C.3       1 ADP500      0.0000 
     12 O4'        32.6530   73.0810  -12.4010 O.3       1 ADP500      0.0000 
     13 C3'        34.1740   74.1850  -13.7960 C.3       1 ADP500      0.0000 
     14 O3'        35.4700   74.1270  -14.4340 O.3       1 ADP500      0.0000 
     15 C2'        33.0250   73.6000  -14.6980 C.3       1 ADP500      0.0000 
     16 O2'        33.4580   72.3880  -15.4010 O.3       1 ADP500      0.0000 
     17 C1'        31.9620   73.2570  -13.6560 C.3       1 ADP500      0.0000 
     18 N9         30.8990   74.3710  -13.5040 N.pl3     1 ADP500      0.0000 
     19 C8         30.6420   75.0980  -12.4190 C.2       1 ADP500      0.0000 
     20 N7         29.6970   75.9470  -12.5940 N.2       1 ADP500      0.0000 
     21 C5         29.2920   75.7700  -13.9110 C.ar      1 ADP500      0.0000 
     22 C6         28.2840   76.3790  -14.7640 C.ar      1 ADP500      0.0000 
     23 N6         27.4430   77.3780  -14.3380 N.pl3     1 ADP500      0.0000 
     24 N1         28.1770   75.9280  -16.0460 N.ar      1 ADP500      0.0000 
     25 C2         28.9850   74.9560  -16.4790 C.ar      1 ADP500      0.0000 
     26 N3         29.9430   74.3330  -15.7650 N.ar      1 ADP500      0.0000 
     27 C4         30.0460   74.7860  -14.4870 C.ar      1 ADP500      0.0000 
     28 H          34.6920   73.0703  -10.5285 H         1 ADP500      0.0000 
     29 H          35.7227   74.1683  -11.4624 H         1 ADP500      0.0000 
     30 H          34.5678   72.3524  -12.7981 H         1 ADP500      0.0000 
     31 H          33.8790   75.1625  -13.5088 H         1 ADP500      0.0000 
     32 H          32.6744   74.3592  -15.3140 H         1 ADP500      0.0000 
     33 H          31.4734   72.3492  -13.9474 H         1 ADP500      0.0000 
     34 H          31.1552   74.9735  -11.5557 H         1 ADP500      0.0000 
     35 H          26.7678   77.6980  -15.0026 H         1 ADP500      0.0000 
     36 H          27.5794   77.6980  -13.4005 H         1 ADP500      0.0000 
     37 H          28.8604   74.6318  -17.5112 H         1 ADP500      0.0000 
     38 H          35.3986   73.3823  -15.0976 H         1 ADP500      0.0000 
     39 H          33.3035   71.6433  -14.7518 H         1 ADP500      0.0000 
@<TRIPOS>BOND
     1    2    1 ar   
     2    3    1 ar   
     3    4    1 ar   
     4    8    1 1    
     5    6    5 ar   
     6    7    5 ar   
     7    8    5 1    
     8    9    5 1    
     9   10    9 1    
    10   11   10 1    
    11   28   10 1    
    12   29   10 1    
    13   12   11 1    
    14   13   11 1    
    15   30   11 1    
    16   17   12 1    
    17   14   13 1    
    18   15   13 1    
    19   31   13 1    
    20   38   14 1    
    21   16   15 1    
    22   17   15 1    
    23   32   15 1    
    24   39   16 1    
    25   18   17 1    
    26   33   17 1    
    27   19   18 1    
    28   27   18 1    
    29   20   19 2    
    30   34   19 1    
    31   21   20 1    
    32   22   21 ar   
    33   27   21 ar   
    34   23   22 1    
    35   24   22 ar   
    36   35   23 1    
    37   36   23 1    
    38   25   24 ar   
    39   26   25 ar   
    40   37   25 1    
    41   27   26 ar   
@<TRIPOS>SUBSTRUCTURE
     1 ADP500      1 GROUP   
@<TRIPOS>SET

