#    Name: 3is2_FAD_1_INTS_M
#    Modification time : Tue Mar 25 17:19:12 2014

@<TRIPOS>MOLECULE
3is2_FAD_1_INTS_M
  111     0    12     0     0
SMALL
NO_CHARGES


@<TRIPOS>ATOM
      1 NZ         -5.6535    4.2530   -9.6350 N.4       3 LYC4        0.0000 
      2 NZ         -4.2190    5.2220   -9.2400 N.4      11 LYL4        0.0000 
      3 NZ         -7.0880    3.2840  -10.0300 N.4       7 LYP4        0.0000 
      4 NZ         -3.3925    6.0190   -8.0120 N.4       3 LYC4        0.0000 
      5 NZ         -2.3400    7.7620   -7.6820 N.4       7 LYP4        0.0000 
      6 N          -5.3840    5.7710   -9.8165 N.am      2 SEC2        0.0000 
      7 N          -4.2190    5.2220   -9.2400 N.am     10 SEL2        0.0000 
      8 N          -6.5490    6.3200  -10.3930 N.am      6 SEP2        0.0000 
      9 N          -3.3925    6.0190   -8.0120 N.am      2 SEC2        0.0000 
     10 N          -2.5660    6.8160   -6.7840 N.am      6 SEP2        0.0000 
     11 N          -3.5240    6.4310   -9.0760 N.am      2 SEC2        0.0000 
     12 N          -2.8290    7.6400   -8.9120 N.am      6 SEP2        0.0000 
     13 NZ         -5.5415    3.3745  -10.5540 N.4       3 LYC4        0.0000 
     14 NZ         -3.9950    3.4650  -11.0780 N.4      11 LYL4        0.0000 
     15 CA          0.7300    3.1845  -11.3890 C.3       4 GLC5        0.0000 
     16 CA         -1.0430    4.4130  -11.2650 C.3      12 GLL5        0.0000 
     17 CA          2.5030    1.9560  -11.5130 C.3       8 GLP5        0.0000 
     18 CA         -1.6280    2.3785  -11.2445 C.3       4 GLC5        0.0000 
     19 CA         -2.2130    0.3440  -11.2240 C.3       8 GLP5        0.0000 
     20 O          -2.0840    8.6570  -11.8515 O.2       1 ALC1        0.0000 
     21 O          -1.0370    7.8800  -12.4840 O.2       9 ALL1        0.0000 
     22 O          -3.1310    9.4340  -11.2190 O.2       5 ALP1        0.0000 
     23 CA          2.1380    6.9075  -13.9230 C.3       4 GLC5        0.0000 
     24 CA          0.5290    5.4940  -14.1790 C.3      12 GLL5        0.0000 
     25 CA          3.7470    8.3210  -13.6670 C.3       8 GLP5        0.0000 
     26 CA          1.6630    3.8575  -13.5880 C.3       4 GLC5        0.0000 
     27 CA          2.7970    2.2210  -12.9970 C.3       8 GLP5        0.0000 
     28 N           1.2135    6.4035   -2.4575 N.am      2 SEC2        0.0000 
     29 N           2.0210    6.3780   -1.1510 N.am     10 SEL2        0.0000 
     30 N           0.4060    6.4290   -3.7640 N.am      6 SEP2        0.0000 
     31 N           2.8095    7.5310   -0.6635 N.am      2 SEC2        0.0000 
     32 N           3.5980    8.6840   -0.1760 N.am      6 SEP2        0.0000 
     33 O           3.0075    6.5000    1.3405 O.2       1 ALC1        0.0000 
     34 O           2.2920    5.3190    0.8470 O.2       9 ALL1        0.0000 
     35 O           3.7230    7.6810    1.8340 O.2       5 ALP1        0.0000 
     36 N           2.1740    1.5580    3.3155 N.am      2 SEC2        0.0000 
     37 N           1.3860    1.9040    1.9370 N.am     10 SEL2        0.0000 
     38 N           2.9620    1.2120    4.6940 N.am      6 SEP2        0.0000 
     39 CA          1.9930   -1.3855    0.9655 C.3       4 GLC5        0.0000 
     40 CA          0.5730   -0.4010    2.1320 C.3      12 GLL5        0.0000 
     41 CA          3.4130   -2.3700   -0.2010 C.3       8 GLP5        0.0000 
     42 CA         -0.1460   -1.4150    4.1910 C.3       4 GLC5        0.0000 
     43 CA         -0.2240   -2.7560    2.4960 C.3      12 GLL5        0.0000 
     44 CA         -0.0680   -0.0740    5.8860 C.3       8 GLP5        0.0000 
     45 CA         -0.5840   -4.5475    1.7165 C.3       4 GLC5        0.0000 
     46 CA         -0.9440   -6.3390    0.9370 C.3       8 GLP5        0.0000 
     47 CA          0.5950   -4.3115    3.6495 C.3       4 GLC5        0.0000 
     48 CA          1.4140   -5.8670    4.8030 C.3       8 GLP5        0.0000 
     49 CA         -1.1275   -4.4925    0.2855 C.3       4 GLC5        0.0000 
     50 CA         -1.3110   -2.6460   -0.3660 C.3      12 GLL5        0.0000 
     51 CA          2.4130    1.3655   -0.1900 C.3       4 GLC5        0.0000 
     52 CA          0.2680    0.8440   -0.0190 C.3      12 GLL5        0.0000 
     53 CA          4.5580    1.8870   -0.3610 C.3       8 GLP5        0.0000 
     54 CA          1.8685    2.3265   -3.0960 C.3       4 GLC5        0.0000 
     55 CA          0.0650    2.1790   -2.2240 C.3      12 GLL5        0.0000 
     56 CA          3.6720    2.4740   -3.9680 C.3       8 GLP5        0.0000 
     57 CA         -2.0325    4.5500   -2.1525 C.3       4 GLC5        0.0000 
     58 CA         -1.3400    2.6440   -2.6100 C.3      12 GLL5        0.0000 
     59 CA         -2.7250    6.4560   -1.6950 C.3       8 GLP5        0.0000 
     60 O          -3.4880    2.6915   -1.9660 O.2       1 ALC1        0.0000 
     61 O          -2.2960    2.0820   -1.7070 O.2       9 ALL1        0.0000 
     62 O          -4.6800    3.3010   -2.2250 O.2       5 ALP1        0.0000 
     63 CA          1.4470    3.4215   -5.0135 C.3       4 GLC5        0.0000 
     64 CA         -0.5620    2.8750   -5.0860 C.3      12 GLL5        0.0000 
     65 CA          3.4560    3.9680   -4.9410 C.3       8 GLP5        0.0000 
     66 N          -0.1890    5.3475   -4.4585 N.am      2 SEC2        0.0000 
     67 N          -0.7840    4.2660   -5.1530 N.am     10 SEL2        0.0000 
     68 CA          1.1840    1.4335   -6.1695 C.3       4 GLC5        0.0000 
     69 CA         -0.6600    2.2720   -6.5000 C.3      12 GLL5        0.0000 
     70 CA          3.0280    0.5950   -5.8390 C.3       8 GLP5        0.0000 
     71 CA         -0.5905    1.0600   -7.9905 C.3       4 GLC5        0.0000 
     72 CA         -0.5210   -0.1520   -9.4810 C.3       8 GLP5        0.0000 
     73 NZ         -5.3980    2.7865   -6.3200 N.4       3 LYC4        0.0000 
     74 NZ         -4.4070    2.2960   -7.1260 N.4      11 LYL4        0.0000 
     75 NZ         -6.3770    4.4910   -4.9760 N.4       7 LYP4        0.0000 
     76 N          -5.3980    2.7865   -6.3200 N.am      2 SEC2        0.0000 
     77 N          -4.4070    2.2960   -7.1260 N.am     10 SEL2        0.0000 
     78 N          -6.3890    3.2770   -5.5140 N.am      6 SEP2        0.0000 
     79 NZ         -4.1410    4.7915   -5.9775 N.4       3 LYC4        0.0000 
     80 NZ         -2.9140    4.2580   -6.7270 N.4      11 LYL4        0.0000 
     81 NZ         -2.7400    5.5370   -6.7555 N.4       3 LYC4        0.0000 
     82 N          -4.1410    4.7915   -5.9775 N.am      2 SEC2        0.0000 
     83 N          -2.9140    4.2580   -6.7270 N.am     10 SEL2        0.0000 
     84 N          -5.3680    5.3250   -5.2280 N.am      6 SEP2        0.0000 
     85 N          -2.7400    5.5370   -6.7555 N.am      2 SEC2        0.0000 
     86 CA         -0.0220    5.0602   -9.9962 C.3       4 GLC5        0.0000 
     87 CA          0.6290    5.1360   -8.3820 C.3       8 GLP5        0.0000 
     88 CA          2.1638    2.8765  -14.6517 C.3       4 GLC5        0.0000 
     89 CA          1.6820    4.1160  -15.9920 C.3      12 GLL5        0.0000 
     90 CA          2.7367    0.5477    1.8385 C.3       4 GLC5        0.0000 
     91 CA          0.7520    0.8060    1.3560 C.3      12 GLL5        0.0000 
     92 CA          4.8110    0.8930    1.9330 C.3       8 GLP5        0.0000 
     93 CA         -0.1524    0.1886    3.3312 C.3       4 GLC5        0.0000 
     94 CA         -0.0780   -1.5100    1.6070 C.3      12 GLL5        0.0000 
     95 CA         -0.5970    1.0310    4.9870 C.3       8 GLP5        0.0000 
     96 CA         -1.6981   -1.6404    2.5224 C.3       4 GLC5        0.0000 
     97 CA         -3.4080   -1.4250    2.8620 C.3       8 GLP5        0.0000 
     98 CA          1.6149   -2.2279    3.2664 C.3       4 GLC5        0.0000 
     99 CA          3.2180   -2.6000    4.3500 C.3       8 GLP5        0.0000 
    100 CA         -2.1767   -1.7443    1.4068 C.3       4 GLC5        0.0000 
    101 CA         -0.5800   -1.4810    0.2690 C.3      12 GLL5        0.0000 
    102 CA          0.7670   -1.9064   -0.6160 C.3       4 GLC5        0.0000 
    103 CA          2.3540   -1.7420   -1.5180 C.3       8 GLP5        0.0000 
    104 CA         -0.9760    1.7605    0.8421 C.3       4 GLC5        0.0000 
    105 CA         -0.4040   -0.2890   -0.5200 C.3      12 GLL5        0.0000 
    106 CA         -2.0050    3.2530    1.6100 C.3       8 GLP5        0.0000 
    107 CA         -0.5544   -1.6901   -2.0976 C.3       4 GLC5        0.0000 
    108 CA         -0.4340   -2.2040   -3.9110 C.3       8 GLP5        0.0000 
    109 CA          1.2035   -0.7370   -0.7219 C.3       4 GLC5        0.0000 
    110 CA         -1.3213    2.8323   -0.4035 C.3       4 GLC5        0.0000 
    111 CA          0.0090    3.8547   -7.0875 C.3       4 GLC5        0.0000 
@<TRIPOS>BOND
@<TRIPOS>SUBSTRUCTURE
     1 ALC1       20 GROUP        1 X    ALC  0     ROOT ALC X 1
     2 SEC2        6 GROUP        1 X    SEC  0     **** SEC X 2
     3 LYC4        1 GROUP        1 X    LYC  0     **** LYC X 4
     4 GLC5       15 GROUP        1 X    GLC  0     **** GLC X 6
     5 ALP1       22 GROUP        1 Y    ALP  0     ROOT ALP Y 8
     6 SEP2        8 GROUP        1 Y    SEP  0     **** SEP Y 9
     7 LYP4        3 GROUP        1 Y    LYP  0     **** LYP Y 11
     8 GLP5       17 GROUP        1 Y    GLP  0     **** GLP Y 13
     9 ALL1       21 GROUP        1 Z    ALL  0     ROOT ALL Z 15
    10 SEL2        7 GROUP        1 Z    SEL  0     **** SEL Z 16
    11 LYL4        2 GROUP        1 Z    LYL  0     **** LYL Z 18
    12 GLL5       16 GROUP        1 Z    GLL  0     **** GLL Z 20
@<TRIPOS>SET

