#    Name: 3is2_FAD_1_ligand
#    Modification time : Tue Mar 25 17:19:12 2014

@<TRIPOS>MOLECULE
3is2_FAD_1_ligand
   84    89     1     0     0
SMALL
NO_CHARGES


@<TRIPOS>ATOM
      1 PA         -3.3770    4.2340   -9.9740 P.3       1 FAD201      0.0000 
      2 O1A        -4.2190    5.2220   -9.2400 O.co2     1 FAD201      0.0000 
      3 O2A        -3.9950    3.4650  -11.0780 O.co2     1 FAD201      0.0000 
      4 O5B        -2.0980    5.0130  -10.4830 O.3       1 FAD201      0.0000 
      5 C5B        -1.0430    4.4130  -11.2650 C.3       1 FAD201      0.0000 
      6 C4B        -0.3030    5.5560  -11.9560 C.3       1 FAD201      0.0000 
      7 O4B         0.6780    4.9840  -12.8440 O.3       1 FAD201      0.0000 
      8 C3B        -1.1840    6.5130  -12.8010 C.3       1 FAD201      0.0000 
      9 O3B        -1.0370    7.8800  -12.4840 O.3       1 FAD201      0.0000 
     10 C2B        -0.8280    6.2000  -14.2510 C.3       1 FAD201      0.0000 
     11 O2B        -0.8400    7.2670  -15.1660 O.3       1 FAD201      0.0000 
     12 C1B         0.5290    5.4940  -14.1790 C.3       1 FAD201      0.0000 
     13 N9A         0.6610    4.3650  -15.0880 N.pl3     1 FAD201      0.0000 
     14 C8A        -0.1790    3.3080  -15.2390 C.2       1 FAD201      0.0000 
     15 N7A         0.1970    2.4260  -16.1370 N.2       1 FAD201      0.0000 
     16 C5A         1.3790    2.9480  -16.6210 C.ar      1 FAD201      0.0000 
     17 C6A         2.3030    2.4680  -17.6170 C.ar      1 FAD201      0.0000 
     18 N6A         2.0880    1.3250  -18.2860 N.pl3     1 FAD201      0.0000 
     19 N1A         3.4100    3.2250  -17.8820 N.ar      1 FAD201      0.0000 
     20 C2A         3.5960    4.3850  -17.1810 C.ar      1 FAD201      0.0000 
     21 N3A         2.8030    4.9250  -16.2280 N.ar      1 FAD201      0.0000 
     22 C4A         1.6820    4.1160  -15.9920 C.ar      1 FAD201      0.0000 
     23 N1          1.2530    4.2500   -1.0100 N.2       1 FAD201      0.0000 
     24 C2          1.8500    5.3390   -0.4880 C.2       1 FAD201      0.0000 
     25 O2          2.0210    6.3780   -1.1510 O.2       1 FAD201      0.0000 
     26 N3          2.2920    5.3190    0.8470 N.am      1 FAD201      0.0000 
     27 C4          2.1740    4.2180    1.7120 C.2       1 FAD201      0.0000 
     28 O4          2.5970    4.2980    2.8900 O.2       1 FAD201      0.0000 
     29 C4X         1.5590    3.0710    1.1460 C.2       1 FAD201      0.0000 
     30 N5          1.3860    1.9040    1.9370 N.2       1 FAD201      0.0000 
     31 C5X         0.7520    0.8060    1.3560 C.ar      1 FAD201      0.0000 
     32 C6          0.5730   -0.4010    2.1320 C.ar      1 FAD201      0.0000 
     33 C7         -0.0780   -1.5100    1.6070 C.ar      1 FAD201      0.0000 
     34 C7M        -0.2240   -2.7560    2.4960 C.3       1 FAD201      0.0000 
     35 C8         -0.5800   -1.4810    0.2690 C.ar      1 FAD201      0.0000 
     36 C8M        -1.3110   -2.6460   -0.3660 C.3       1 FAD201      0.0000 
     37 C9         -0.4040   -0.2890   -0.5200 C.ar      1 FAD201      0.0000 
     38 C9A         0.2680    0.8440   -0.0190 C.ar      1 FAD201      0.0000 
     39 N10         0.4740    2.0560   -0.8000 N.pl3     1 FAD201      0.0000 
     40 C10         1.0930    3.1410   -0.2180 C.2       1 FAD201      0.0000 
     41 C1'         0.0650    2.1790   -2.2240 C.3       1 FAD201      0.0000 
     42 C2'        -1.3400    2.6440   -2.6100 C.3       1 FAD201      0.0000 
     43 O2'        -2.2960    2.0820   -1.7070 O.3       1 FAD201      0.0000 
     44 C3'        -1.5740    2.2320   -4.0770 C.3       1 FAD201      0.0000 
     45 O3'        -1.4210    0.8310   -4.1400 O.3       1 FAD201      0.0000 
     46 C4'        -0.5620    2.8750   -5.0860 C.3       1 FAD201      0.0000 
     47 O4'        -0.7840    4.2660   -5.1530 O.3       1 FAD201      0.0000 
     48 C5'        -0.6600    2.2720   -6.5000 C.3       1 FAD201      0.0000 
     49 O5'        -2.0110    1.8940   -6.8270 O.3       1 FAD201      0.0000 
     50 P          -3.1180    2.9350   -7.3610 P.3       1 FAD201      0.0000 
     51 O1P        -4.4070    2.2960   -7.1260 O.co2     1 FAD201      0.0000 
     52 O2P        -2.9140    4.2580   -6.7270 O.co2     1 FAD201      0.0000 
     53 O3P        -2.8670    3.1410   -8.9220 O.3       1 FAD201      0.0000 
     54 H          -1.4359    3.7527  -12.0269 H         1 FAD201      0.0000 
     55 H          -0.3376    3.8789  -10.6421 H         1 FAD201      0.0000 
     56 H           0.2045    6.1515  -11.2015 H         1 FAD201      0.0000 
     57 H          -2.2191    6.1628  -12.6620 H         1 FAD201      0.0000 
     58 H          -1.5407    5.3910  -14.5629 H         1 FAD201      0.0000 
     59 H           1.2998    6.2266  -14.3695 H         1 FAD201      0.0000 
     60 H          -1.0260    3.2270  -14.6895 H         1 FAD201      0.0000 
     61 H           2.7634    1.0907  -18.9853 H         1 FAD201      0.0000 
     62 H           1.2716    0.8096  -18.0255 H         1 FAD201      0.0000 
     63 H           4.5063    4.9444  -17.4277 H         1 FAD201      0.0000 
     64 H           2.7453    6.1951    1.2263 H         1 FAD201      0.0000 
     65 H           0.9451   -0.4143    3.0923 H         1 FAD201      0.0000 
     66 H          -0.7855   -0.2772   -1.4776 H         1 FAD201      0.0000 
     67 H           0.2441    1.1803   -2.7452 H         1 FAD201      0.0000 
     68 H           0.8047    2.8612   -2.7611 H         1 FAD201      0.0000 
     69 H          -1.3373    3.7273   -2.5709 H         1 FAD201      0.0000 
     70 H          -2.5651    2.5276   -4.3633 H         1 FAD201      0.0000 
     71 H           0.4400    2.6627   -4.7059 H         1 FAD201      0.0000 
     72 H           0.0207    1.4065   -6.5380 H         1 FAD201      0.0000 
     73 H          -0.2693    3.0216   -7.2067 H         1 FAD201      0.0000 
     74 H           0.6648   -3.1184    2.7764 H         1 FAD201      0.0000 
     75 H          -0.7367   -2.5581    3.3315 H         1 FAD201      0.0000 
     76 H          -0.7060   -3.4944    2.0243 H         1 FAD201      0.0000 
     77 H          -0.7409   -3.4668   -0.4024 H         1 FAD201      0.0000 
     78 H          -2.1386   -2.8862    0.1414 H         1 FAD201      0.0000 
     79 H          -1.5911   -2.4419   -1.3040 H         1 FAD201      0.0000 
     80 H          -1.8155    8.0939  -11.8940 H         1 FAD201      0.0000 
     81 H          -0.3897    8.0218  -14.6890 H         1 FAD201      0.0000 
     82 H          -3.1714    2.1420   -2.1867 H         1 FAD201      0.0000 
     83 H          -1.5954    0.5944   -5.0958 H         1 FAD201      0.0000 
     84 H          -1.2266    4.4151   -6.0373 H         1 FAD201      0.0000 
@<TRIPOS>BOND
     1    2    1 ar   
     2    3    1 ar   
     3    4    1 1    
     4   53    1 1    
     5    5    4 1    
     6    6    5 1    
     7   54    5 1    
     8   55    5 1    
     9    7    6 1    
    10    8    6 1    
    11   56    6 1    
    12   12    7 1    
    13    9    8 1    
    14   10    8 1    
    15   57    8 1    
    16   80    9 1    
    17   11   10 1    
    18   12   10 1    
    19   58   10 1    
    20   81   11 1    
    21   13   12 1    
    22   59   12 1    
    23   14   13 1    
    24   22   13 1    
    25   15   14 2    
    26   60   14 1    
    27   16   15 1    
    28   17   16 ar   
    29   22   16 ar   
    30   18   17 1    
    31   19   17 ar   
    32   61   18 1    
    33   62   18 1    
    34   20   19 ar   
    35   21   20 ar   
    36   63   20 1    
    37   22   21 ar   
    38   24   23 1    
    39   40   23 2    
    40   25   24 2    
    41   26   24 am   
    42   27   26 am   
    43   64   26 1    
    44   28   27 2    
    45   29   27 1    
    46   30   29 2    
    47   40   29 1    
    48   31   30 1    
    49   32   31 ar   
    50   38   31 ar   
    51   33   32 ar   
    52   65   32 1    
    53   34   33 1    
    54   35   33 ar   
    55   74   34 1    
    56   75   34 1    
    57   76   34 1    
    58   36   35 1    
    59   37   35 ar   
    60   77   36 1    
    61   78   36 1    
    62   79   36 1    
    63   38   37 ar   
    64   66   37 1    
    65   39   38 1    
    66   40   39 1    
    67   41   39 1    
    68   42   41 1    
    69   67   41 1    
    70   68   41 1    
    71   43   42 1    
    72   44   42 1    
    73   69   42 1    
    74   82   43 1    
    75   45   44 1    
    76   46   44 1    
    77   70   44 1    
    78   83   45 1    
    79   47   46 1    
    80   48   46 1    
    81   71   46 1    
    82   84   47 1    
    83   49   48 1    
    84   72   48 1    
    85   73   48 1    
    86   50   49 1    
    87   51   50 ar   
    88   52   50 ar   
    89   53   50 1    
@<TRIPOS>SUBSTRUCTURE
     1 FAD201      1 GROUP   
@<TRIPOS>SET

