#    Name: 2zi5_3L1_3_INTS_M
#    Modification time : Mon Apr  7 18:44:44 2014

@<TRIPOS>MOLECULE
2zi5_3L1_3_INTS_M
   40     0     9     0     0
SMALL
NO_CHARGES


@<TRIPOS>ATOM
      1 O          79.0805   12.5405   20.7185 O.2       1 ALC1        0.0000 
      2 O          79.2920   11.1480   20.6990 O.2       7 ALL1        0.0000 
      3 O          78.8690   13.9330   20.7380 O.2       4 ALP1        0.0000 
      4 CA         81.4665   10.6785   22.7885 C.3       3 GLC5        0.0000 
      5 CA         80.4790   10.6710   20.7870 C.3       9 GLL5        0.0000 
      6 CA         82.4540   10.6860   24.7900 C.3       6 GLP5        0.0000 
      7 CA         83.8170   12.7980   21.5430 C.3       3 GLC5        0.0000 
      8 CA         82.9400   10.9130   20.8790 C.3       9 GLL5        0.0000 
      9 CA         84.6940   14.6830   22.2070 C.3       6 GLP5        0.0000 
     10 CA         83.7590   10.5165   22.2535 C.3       3 GLC5        0.0000 
     11 CA         84.5780   10.1200   23.6280 C.3       6 GLP5        0.0000 
     12 CA         83.2685    9.4155   22.2005 C.3       3 GLC5        0.0000 
     13 CA         81.9590    8.7110   20.7730 C.3       9 GLL5        0.0000 
     14 N          78.2650    7.9525   21.0270 N.am      2 SEC2        0.0000 
     15 N          79.8390    8.1820   20.7110 N.am      8 SEL2        0.0000 
     16 N          76.6910    7.7230   21.3430 N.am      5 SEP2        0.0000 
     17 CA         82.3740    6.8475   18.1870 C.3       3 GLC5        0.0000 
     18 CA         83.0530    5.4850   19.5760 C.3       9 GLL5        0.0000 
     19 CA         81.6950    8.2100   16.7980 C.3       6 GLP5        0.0000 
     20 CA         82.3175    4.3535   17.8490 C.3       3 GLC5        0.0000 
     21 CA         81.5820    3.2220   16.1220 C.3       6 GLP5        0.0000 
     22 CA         85.2505    2.9550   19.5005 C.3       3 GLC5        0.0000 
     23 CA         83.6570    4.2480   20.2300 C.3       9 GLL5        0.0000 
     24 CA         86.8440    1.6620   18.7710 C.3       6 GLP5        0.0000 
     25 O          85.6370    3.6045   21.3790 O.2       1 ALC1        0.0000 
     26 O          85.0640    4.3760   20.4680 O.2       7 ALL1        0.0000 
     27 O          86.2100    2.8330   22.2900 O.2       4 ALP1        0.0000 
     28 CA         83.5165    4.6170   23.6575 C.3       3 GLC5        0.0000 
     29 CA         82.9600    4.2620   21.6170 C.3       9 GLL5        0.0000 
     30 CA         84.0730    4.9720   25.6980 C.3       6 GLP5        0.0000 
     31 CA         80.3045    3.4235   23.0380 C.3       3 GLC5        0.0000 
     32 CA         81.5400    3.7380   21.5590 C.3       9 GLL5        0.0000 
     33 CA         79.0690    3.1090   24.5170 C.3       6 GLP5        0.0000 
     34 CA         79.3783    9.5222   19.3457 C.3       3 GLC5        0.0000 
     35 CA         80.6920    9.2200   20.7720 C.3       9 GLL5        0.0000 
     36 CA         78.1710    9.0990   17.9120 C.3       6 GLP5        0.0000 
     37 CA         84.2825    5.4303   18.3030 C.3       3 GLC5        0.0000 
     38 CA         85.2100    5.9940   16.7030 C.3       6 GLP5        0.0000 
     39 CA         84.3902    3.0755   21.9522 C.3       3 GLC5        0.0000 
     40 CA         85.4720    1.8960   22.9810 C.3       6 GLP5        0.0000 
@<TRIPOS>BOND
@<TRIPOS>SUBSTRUCTURE
     1 ALC1        1 GROUP        1 X    ALC  0     ROOT ALC X 1
     2 SEC2       14 GROUP        1 X    SEC  0     **** SEC X 2
     3 GLC5        4 GROUP        1 X    GLC  0     **** GLC X 6
     4 ALP1        3 GROUP        1 Y    ALP  0     ROOT ALP Y 8
     5 SEP2       16 GROUP        1 Y    SEP  0     **** SEP Y 9
     6 GLP5        6 GROUP        1 Y    GLP  0     **** GLP Y 13
     7 ALL1        2 GROUP        1 Z    ALL  0     ROOT ALL Z 15
     8 SEL2       15 GROUP        1 Z    SEL  0     **** SEL Z 16
     9 GLL5        5 GROUP        1 Z    GLL  0     **** GLL Z 20
@<TRIPOS>SET

