#    Name: 2zi5_3L1_3_ligand
#    Modification time : Mon Apr  7 18:44:44 2014

@<TRIPOS>MOLECULE
2zi5_3L1_3_ligand
   30    32     1     0     0
SMALL
NO_CHARGES


@<TRIPOS>ATOM
      1 N6         79.2920   11.1480   20.6990 N.pl3     1 3L13401     0.0000 
      2 C6         80.4790   10.6710   20.7870 C.ar      1 3L13401     0.0000 
      3 N1         81.6000   11.3730   20.7910 N.ar      1 3L13401     0.0000 
      4 C2         82.9400   10.9130   20.8790 C.ar      1 3L13401     0.0000 
      5 N3         83.0750    9.4890   20.8950 N.ar      1 3L13401     0.0000 
      6 C4         81.9590    8.7110   20.7730 C.ar      1 3L13401     0.0000 
      7 C5         80.6920    9.2200   20.7720 C.ar      1 3L13401     0.0000 
      8 N7         79.8390    8.1820   20.7110 N.2       1 3L13401     0.0000 
      9 C8         80.6190    7.0600   20.7390 C.2       1 3L13401     0.0000 
     10 N9         81.9490    7.3960   20.8040 N.pl3     1 3L13401     0.0000 
     11 C1'        83.0480    6.4360   20.7530 C.3       1 3L13401     0.0000 
     12 O4'        82.9460    5.6690   21.9850 O.3       1 3L13401     0.0000 
     13 C2'        83.0530    5.4850   19.5760 C.3       1 3L13401     0.0000 
     14 C3'        83.6570    4.2480   20.2300 C.3       1 3L13401     0.0000 
     15 O3'        85.0640    4.3760   20.4680 O.3       1 3L13401     0.0000 
     16 C4'        82.9600    4.2620   21.6170 C.3       1 3L13401     0.0000 
     17 C5'        81.5400    3.7380   21.5590 C.3       1 3L13401     0.0000 
     18 O5'        81.4500    2.3080   21.4130 O.3       1 3L13401     0.0000 
     19 H          83.7089   11.5138   20.9250 H         1 3L13401     0.0000 
     20 H          80.2823    6.1482   20.7162 H         1 3L13401     0.0000 
     21 H          83.9999    6.9727   20.7742 H         1 3L13401     0.0000 
     22 H          83.6934    5.8393   18.8244 H         1 3L13401     0.0000 
     23 H          82.0710    5.2817   19.2680 H         1 3L13401     0.0000 
     24 H          83.3618    3.3930   19.7316 H         1 3L13401     0.0000 
     25 H          83.5486    3.7035   22.2927 H         1 3L13401     0.0000 
     26 H          81.0210    4.2536   20.7193 H         1 3L13401     0.0000 
     27 H          81.0153    4.0740   22.4821 H         1 3L13401     0.0000 
     28 H          79.4063   12.0518   20.2866 H         1 3L13401     0.0000 
     29 H          85.2671    3.7078   21.1837 H         1 3L13401     0.0000 
     30 H          82.3628    2.0195   21.1238 H         1 3L13401     0.0000 
@<TRIPOS>BOND
     1    2    1 1    
     2   28    1 1    
     3    3    2 ar   
     4    7    2 ar   
     5    4    3 ar   
     6    5    4 ar   
     7   19    4 1    
     8    6    5 ar   
     9    7    6 ar   
    10   10    6 1    
    11    8    7 1    
    12    9    8 2    
    13   10    9 1    
    14   20    9 1    
    15   11   10 1    
    16   12   11 1    
    17   13   11 1    
    18   21   11 1    
    19   16   12 1    
    20   14   13 1    
    21   22   13 1    
    22   23   13 1    
    23   15   14 1    
    24   16   14 1    
    25   24   14 1    
    26   29   15 1    
    27   17   16 1    
    28   25   16 1    
    29   18   17 1    
    30   26   17 1    
    31   27   17 1    
    32   30   18 1    
@<TRIPOS>SUBSTRUCTURE
     1 3L13401     1 GROUP   
@<TRIPOS>SET

