#    Name: 4DZW_1_CAVITY_N1_6.mol2
#    Modification time : Mon Mar 10 15:37:29 2014

@<TRIPOS>MOLECULE
4DZW_1_CAVITY_N1_6.mol2
  102     0     7     0     0
SMALL
NO_CHARGES


@<TRIPOS>ATOM
      1 N         -13.7860   -7.5514  -19.1356 N.2       2 ALA2        0.0000 
      2 CA        -13.8727   -8.3882  -17.8937 C.3       6 GLY6        0.0000 
      3 CA        -14.0300   -7.9173  -21.2108 C.3       6 GLY6        0.0000 
      4 OD1       -14.1167   -8.7540  -19.9689 O.3       3 ASP3        0.0000 
      5 OD1       -15.0383  -13.6694  -17.9097 O.3       3 ASP3        0.0000 
      6 OD1       -15.2824  -14.0352  -19.9849 O.3       3 ASP3        0.0000 
      7 OD1       -15.3691  -14.8719  -18.7430 O.3       3 ASP3        0.0000 
      8 OD1       -15.4558  -15.7087  -17.5011 O.3       3 ASP3        0.0000 
      9 OD1       -15.6131  -15.2378  -20.8182 O.3       3 ASP3        0.0000 
     10 OD1       -15.7865  -16.9112  -18.3344 O.3       3 ASP3        0.0000 
     11 OD1       -16.1173  -18.1138  -19.1677 O.3       3 ASP3        0.0000 
     12 CA        -12.1681   -8.3443  -15.9334 C.3       6 GLY6        0.0000 
     13 N         -12.3255   -7.8734  -19.2506 N.2       2 ALA2        0.0000 
     14 CA        -12.4122   -8.7102  -18.0086 C.3       6 GLY6        0.0000 
     15 NZ        -12.4989   -9.5469  -16.7667 N.2       4 LYS4        0.0000 
     16 CA        -12.5695   -8.2393  -21.3258 C.3       6 GLY6        0.0000 
     17 O         -12.6562   -9.0760  -20.0839 O.2       2 ALA2        0.0000 
     18 NZ        -12.7429   -9.9127  -18.8419 N.2       4 LYS4        0.0000 
     19 O         -13.0737  -11.1153  -19.6752 O.2       2 ALA2        0.0000 
     20 O         -13.4911  -13.1546  -19.2666 O.2       2 ALA2        0.0000 
     21 NZ        -13.5778  -13.9914  -18.0247 N.2       4 LYS4        0.0000 
     22 O         -13.6645  -14.8281  -16.7828 O.2       2 ALA2        0.0000 
     23 O         -13.8218  -14.3572  -20.0999 O.2       2 ALA2        0.0000 
     24 DU        -13.9086  -15.1939  -18.8580 H         7 CUB7        0.0000 
     25 N         -13.9953  -16.0307  -17.6161 N.2       2 ALA2        0.0000 
     26 NZ        -14.1526  -15.5598  -20.9332 N.2       4 LYS4        0.0000 
     27 OD1       -14.2393  -16.3965  -19.6913 O.3       3 ASP3        0.0000 
     28 N         -14.3260  -17.2332  -18.4494 N.2       2 ALA2        0.0000 
     29 NZ        -14.4833  -16.7624  -21.7665 N.2       4 LYS4        0.0000 
     30 NZ        -14.5700  -17.5991  -20.5246 N.2       4 LYS4        0.0000 
     31 CA        -14.6567  -18.4358  -19.2827 C.3       6 GLY6        0.0000 
     32 NZ        -14.9008  -18.8017  -21.3579 N.2       4 LYS4        0.0000 
     33 N         -14.9875  -19.6384  -20.1160 N.2       2 ALA2        0.0000 
     34 N         -10.8650   -8.1954  -19.3655 N.2       2 ALA2        0.0000 
     35 NZ        -10.9517   -9.0322  -18.1236 N.2       4 LYS4        0.0000 
     36 NZ        -11.0384   -9.8689  -16.8817 N.2       4 LYS4        0.0000 
     37 CA        -11.1090   -8.5613  -21.4408 C.3       6 GLY6        0.0000 
     38 DU        -11.1957   -9.3980  -20.1988 H         7 CUB7        0.0000 
     39 NZ        -11.2824  -10.2348  -18.9569 N.2       4 LYS4        0.0000 
     40 O         -11.5264  -10.6006  -21.0321 O.2       2 ALA2        0.0000 
     41 O         -11.6131  -11.4373  -19.7902 O.2       2 ALA2        0.0000 
     42 NZ        -11.6999  -12.2741  -18.5483 N.2       4 LYS4        0.0000 
     43 O         -12.0306  -13.4766  -19.3816 O.2       2 ALA2        0.0000 
     44 NZ        -12.1173  -14.3134  -18.1397 N.2       4 LYS4        0.0000 
     45 N         -12.2040  -15.1501  -16.8977 N.2       2 ALA2        0.0000 
     46 O         -12.3613  -14.6792  -20.2149 O.2       2 ALA2        0.0000 
     47 DU        -12.4480  -15.5159  -18.9730 H         7 CUB7        0.0000 
     48 N         -12.5347  -16.3527  -17.7310 N.2       2 ALA2        0.0000 
     49 CA        -12.6921  -15.8818  -21.0482 C.3       6 GLY6        0.0000 
     50 DU        -12.7788  -16.7185  -19.8063 H         7 CUB7        0.0000 
     51 N         -12.8655  -17.5553  -18.5643 N.2       2 ALA2        0.0000 
     52 CA        -13.0228  -17.0844  -21.8815 C.3       6 GLY6        0.0000 
     53 DU        -13.1095  -17.9211  -20.6396 H         7 CUB7        0.0000 
     54 N         -13.1962  -18.7578  -19.3976 N.2       2 ALA2        0.0000 
     55 CA        -13.3536  -18.2870  -22.7148 C.3       6 GLY6        0.0000 
     56 N         -13.4403  -19.1237  -21.4729 N.2       2 ALA2        0.0000 
     57 N         -13.5270  -19.9604  -20.2310 N.2       2 ALA2        0.0000 
     58 O         -13.6843  -19.4896  -23.5481 O.2       2 ALA2        0.0000 
     59 N         -13.7710  -20.3263  -22.3062 N.2       2 ALA2        0.0000 
     60 DU         -9.4912   -9.3542  -18.2386 H         7 CUB7        0.0000 
     61 NZ         -9.5779  -10.1909  -16.9967 N.2       4 LYS4        0.0000 
     62 NZ         -9.6646  -11.0276  -15.7547 N.2       4 LYS4        0.0000 
     63 CA         -9.6485   -8.8833  -21.5557 C.3       6 GLY6        0.0000 
     64 DU         -9.7352   -9.7200  -20.3138 H         7 CUB7        0.0000 
     65 DU         -9.8219  -10.5568  -19.0719 H         7 CUB7        0.0000 
     66 NZ         -9.9086  -11.3935  -17.8300 N.2       4 LYS4        0.0000 
     67 NZ         -9.9953  -12.2302  -16.5880 N.2       4 LYS4        0.0000 
     68 O          -9.9792  -10.0859  -22.3891 O.2       2 ALA2        0.0000 
     69 O         -10.0659  -10.9226  -21.1471 O.2       2 ALA2        0.0000 
     70 DU        -10.1526  -11.7593  -19.9052 H         7 CUB7        0.0000 
     71 NZ        -10.2393  -12.5961  -18.6633 N.2       4 LYS4        0.0000 
     72 NZ        -10.3260  -13.4328  -17.4213 N.2       4 LYS4        0.0000 
     73 CA        -10.3100  -11.2885  -23.2224 C.3       6 GLY6        0.0000 
     74 O         -10.3967  -12.1252  -21.9804 O.2       2 ALA2        0.0000 
     75 O         -10.4834  -12.9619  -20.7385 O.2       2 ALA2        0.0000 
     76 O         -10.5701  -13.7986  -19.4966 O.2       2 ALA2        0.0000 
     77 CZ        -10.6568  -14.6354  -18.2546 C.ar      5 PHE5        0.0000 
     78 N         -10.7435  -15.4721  -17.0127 N.2       2 ALA2        0.0000 
     79 CA        -10.8141  -14.1645  -21.5718 C.3       6 GLY6        0.0000 
     80 CA        -10.9008  -15.0012  -20.3299 C.3       6 GLY6        0.0000 
     81 DU        -10.9875  -15.8380  -19.0879 H         7 CUB7        0.0000 
     82 N         -11.0742  -16.6747  -17.8460 N.2       2 ALA2        0.0000 
     83 OG        -11.2316  -16.2038  -21.1632 O.2       1 SER1        0.0000 
     84 OG        -11.3183  -17.0405  -19.9213 O.2       1 SER1        0.0000 
     85 CA        -11.4050  -17.8773  -18.6793 C.3       6 GLY6        0.0000 
     86 OG        -11.5623  -17.4064  -21.9965 O.2       1 SER1        0.0000 
     87 OG        -11.6490  -18.2431  -20.7546 O.2       1 SER1        0.0000 
     88 N         -11.7357  -19.0798  -19.5126 N.2       2 ALA2        0.0000 
     89 CA        -11.8931  -18.6090  -22.8298 C.3       6 GLY6        0.0000 
     90 N         -11.9798  -19.4457  -21.5879 N.2       2 ALA2        0.0000 
     91 CA        -12.3105  -20.6483  -22.4212 C.3       6 GLY6        0.0000 
     92 DU         -8.2747  -10.0420  -20.4288 H         7 CUB7        0.0000 
     93 DU         -8.3614  -10.8788  -19.1869 H         7 CUB7        0.0000 
     94 CZ         -8.4481  -11.7155  -17.9449 C.ar      5 PHE5        0.0000 
     95 O          -8.6054  -11.2446  -21.2621 O.2       2 ALA2        0.0000 
     96 O          -8.6921  -12.0813  -20.0202 O.2       2 ALA2        0.0000 
     97 O          -8.7788  -12.9181  -18.7782 O.2       2 ALA2        0.0000 
     98 O          -8.9362  -12.4472  -22.0954 O.2       2 ALA2        0.0000 
     99 O          -9.0229  -13.2839  -20.8535 O.2       2 ALA2        0.0000 
    100 O          -9.1963  -14.9574  -18.3696 O.2       2 ALA2        0.0000 
    101 OG         -9.4403  -15.3232  -20.4449 O.2       1 SER1        0.0000 
    102 OG         -9.5270  -16.1600  -19.2029 O.2       1 SER1        0.0000 
@<TRIPOS>BOND
@<TRIPOS>SUBSTRUCTURE
     1 SER1       83 GROUP   
     2 ALA2        1 GROUP   
     3 ASP3        4 GROUP   
     4 LYS4       15 GROUP   
     5 PHE5       77 GROUP   
     6 GLY6        2 GROUP   
     7 CUB7       24 GROUP   
@<TRIPOS>SET

