#    Name: 4dzw_0MQ_1_INTS_M
#    Modification time : Tue Mar 25 10:26:14 2014

@<TRIPOS>MOLECULE
4dzw_0MQ_1_INTS_M
   60     0    15     0     0
SMALL
NO_CHARGES


@<TRIPOS>ATOM
      1 Zn        -15.9280  -13.8970  -16.0515 Zn        4 ZIC7        0.0000 
      2 Zn        -15.1070  -14.8370  -16.3970 Zn       14 ZIL7        0.0000 
      3 Zn        -16.7490  -12.9570  -15.7060 Zn        9 ZIP7        0.0000 
      4 N         -14.5170  -15.3515  -15.3365 N.am      1 SEC2        0.0000 
      5 N         -15.1070  -14.8370  -16.3970 N.am     11 SEL2        0.0000 
      6 N         -13.9270  -15.8660  -14.2760 N.am      6 SEP2        0.0000 
      7 NZ        -15.7020  -18.0940  -16.3340 N.4       3 LYC4        0.0000 
      8 NZ        -15.5820  -17.1840  -17.4160 N.4      13 LYL4        0.0000 
      9 NZ        -15.8220  -19.0040  -15.2520 N.4       8 LYP4        0.0000 
     10 NZ        -17.1820  -17.4005  -17.1590 N.4       3 LYC4        0.0000 
     11 NZ        -18.7820  -17.6170  -16.9020 N.4       8 LYP4        0.0000 
     12 N         -15.7020  -18.0940  -16.3340 N.am      1 SEC2        0.0000 
     13 N         -15.5820  -17.1840  -17.4160 N.am     11 SEL2        0.0000 
     14 N         -15.8220  -19.0040  -15.2520 N.am      6 SEP2        0.0000 
     15 NZ        -17.9375  -16.4325  -17.3960 N.4       3 LYC4        0.0000 
     16 NZ        -17.0930  -15.2480  -17.8900 N.4      13 LYL4        0.0000 
     17 Zn        -17.5555  -15.4830  -18.9555 Zn        4 ZIC7        0.0000 
     18 Zn        -17.0930  -15.2480  -17.8900 Zn       14 ZIL7        0.0000 
     19 Zn        -18.0180  -15.7180  -20.0210 Zn        9 ZIP7        0.0000 
     20 N         -17.9375  -16.4325  -17.3960 N.am      1 SEC2        0.0000 
     21 N         -17.0930  -15.2480  -17.8900 N.am     11 SEL2        0.0000 
     22 N         -18.7820  -17.6170  -16.9020 N.am      6 SEP2        0.0000 
     23 NZ        -15.3995  -13.3685  -22.0770 N.4       3 LYC4        0.0000 
     24 NZ        -15.8380  -13.3990  -20.5110 N.4      13 LYL4        0.0000 
     25 NZ        -14.1390  -12.3100  -23.4810 N.4       8 LYP4        0.0000 
     26 NZ        -16.1720  -11.6795  -19.6105 N.4       3 LYC4        0.0000 
     27 NZ        -16.5060   -9.9600  -18.7100 N.4       8 LYP4        0.0000 
     28 N         -14.6870  -12.7645  -21.4100 N.am      1 SEC2        0.0000 
     29 N         -15.8380  -13.3990  -20.5110 N.am     11 SEL2        0.0000 
     30 N         -13.5360  -12.1300  -22.3090 N.am      6 SEP2        0.0000 
     31 N         -15.3995  -13.3685  -22.0770 N.am      1 SEC2        0.0000 
     32 N         -14.9610  -13.3380  -23.6430 N.am      6 SEP2        0.0000 
     33 NZ        -15.9730  -11.3740  -18.4045 N.4       3 LYC4        0.0000 
     34 NZ        -15.4400  -12.7880  -18.0990 N.4      13 LYL4        0.0000 
     35 Zn        -16.0945  -12.8725  -16.9025 Zn        4 ZIC7        0.0000 
     36 Zn        -15.4400  -12.7880  -18.0990 Zn       14 ZIL7        0.0000 
     37 N         -15.9730  -11.3740  -18.4045 N.am      1 SEC2        0.0000 
     38 N         -15.4400  -12.7880  -18.0990 N.am     11 SEL2        0.0000 
     39 N         -16.5060   -9.9600  -18.7100 N.am      6 SEP2        0.0000 
     40 NZ        -13.4925  -12.5280  -20.9815 N.4       3 LYC4        0.0000 
     41 NZ        -13.4490  -12.9260  -19.6540 N.4      13 LYL4        0.0000 
     42 N         -13.4925  -12.5280  -20.9815 N.am      1 SEC2        0.0000 
     43 N         -13.4490  -12.9260  -19.6540 N.am     11 SEL2        0.0000 
     44 OD1       -15.6490  -17.1380  -21.2500 O.co2     2 ASC3        0.0000 
     45 OD1       -14.3160  -17.4760  -19.8710 O.co2    12 ASL3        0.0000 
     46 OD1       -16.9820  -16.8000  -22.6290 O.co2     7 ASP3        0.0000 
     47 CA        -13.4935  -21.2725  -19.0325 C.3       5 GLC5        0.0000 
     48 CA        -13.4880  -19.6720  -20.5290 C.3      15 GLL5        0.0000 
     49 CA        -13.4990  -22.8730  -17.5360 C.3      10 GLP5        0.0000 
     50 CA        -11.7378  -16.3638  -22.9285 C.3       5 GLC5        0.0000 
     51 CA        -12.2890  -17.6080  -21.2700 C.3      15 GLL5        0.0000 
     52 CA        -11.5380  -14.7270  -24.0340 C.3      10 GLP5        0.0000 
     53 CA         -9.9383  -19.5215  -21.6262 C.3       5 GLC5        0.0000 
     54 CA        -11.5190  -19.8930  -22.0730 C.3      15 GLL5        0.0000 
     55 CA         -8.3240  -19.9000  -21.0280 C.3      10 GLP5        0.0000 
     56 CA        -11.2690  -21.8490  -22.0643 C.3       5 GLC5        0.0000 
     57 CA        -10.3440  -23.5100  -22.2590 C.3      10 GLP5        0.0000 
     58 CA        -11.8804  -20.0385  -23.9046 C.3       5 GLC5        0.0000 
     59 CA        -12.8690  -20.4830  -21.6660 C.3      15 GLL5        0.0000 
     60 CA        -11.5500  -20.2640  -25.8640 C.3      10 GLP5        0.0000 
@<TRIPOS>BOND
@<TRIPOS>SUBSTRUCTURE
     1 SEC2        4 GROUP        1 X    SEC  0     ROOT SEC X 2
     2 ASC3       44 GROUP        1 X    ASC  0     **** ASC X 3
     3 LYC4        7 GROUP        1 X    LYC  0     **** LYC X 4
     4 ZIC7        1 GROUP        1 X    ZIC  0     **** ZIC X 5
     5 GLC5       47 GROUP        1 X    GLC  0     **** GLC X 6
     6 SEP2        6 GROUP        1 Y    SEP  0     ROOT SEP Y 9
     7 ASP3       46 GROUP        1 Y    ASP  0     **** ASP Y 10
     8 LYP4        9 GROUP        1 Y    LYP  0     **** LYP Y 11
     9 ZIP7        3 GROUP        1 Y    ZIP  0     **** ZIP Y 12
    10 GLP5       49 GROUP        1 Y    GLP  0     **** GLP Y 13
    11 SEL2        5 GROUP        1 Z    SEL  0     ROOT SEL Z 16
    12 ASL3       45 GROUP        1 Z    ASL  0     **** ASL Z 17
    13 LYL4        8 GROUP        1 Z    LYL  0     **** LYL Z 18
    14 ZIL7        2 GROUP        1 Z    ZIL  0     **** ZIL Z 19
    15 GLL5       48 GROUP        1 Z    GLL  0     **** GLL Z 20
@<TRIPOS>SET

