#    Name: 4dzw_0MQ_1_ligand
#    Modification time : Tue Mar 25 10:26:14 2014

@<TRIPOS>MOLECULE
4dzw_0MQ_1_ligand
   31    31     1     0     0
SMALL
NO_CHARGES


@<TRIPOS>ATOM
      1 O6        -15.1070  -14.8370  -16.3970 O.co2     1 0MQ401      0.0000 
      2 P2        -15.5830  -15.6840  -17.5510 P.3       1 0MQ401      0.0000 
      3 O4        -15.5820  -17.1840  -17.4160 O.co2     1 0MQ401      0.0000 
      4 O5        -17.0930  -15.2480  -17.8900 O.co2     1 0MQ401      0.0000 
      5 C1        -14.5450  -15.2570  -18.9730 C.3       1 0MQ401      0.0000 
      6 P1        -14.8160  -13.5100  -19.4030 P.3       1 0MQ401      0.0000 
      7 O3        -15.8380  -13.3990  -20.5110 O.co2     1 0MQ401      0.0000 
      8 O2        -15.4400  -12.7880  -18.0990 O.co2     1 0MQ401      0.0000 
      9 O1        -13.4490  -12.9260  -19.6540 O.co2     1 0MQ401      0.0000 
     10 C2        -14.8900  -16.1740  -20.1360 C.3       1 0MQ401      0.0000 
     11 N1        -14.3160  -17.4760  -19.8710 N.4       1 0MQ401      0.0000 
     12 C3        -13.6580  -18.2090  -20.9370 C.3       1 0MQ401      0.0000 
     13 C4        -12.2890  -17.6080  -21.2700 C.3       1 0MQ401      0.0000 
     14 C5        -11.5860  -18.3930  -22.3760 C.3       1 0MQ401      0.0000 
     15 C6        -11.5190  -19.8930  -22.0730 C.3       1 0MQ401      0.0000 
     16 C7        -12.8690  -20.4830  -21.6660 C.3       1 0MQ401      0.0000 
     17 C8        -13.4880  -19.6720  -20.5290 C.3       1 0MQ401      0.0000 
     18 H         -13.5734  -15.3152  -18.6306 H         1 0MQ401      0.0000 
     19 H         -14.4841  -15.7400  -21.0475 H         1 0MQ401      0.0000 
     20 H         -15.9734  -16.2283  -20.2207 H         1 0MQ401      0.0000 
     21 H         -14.2601  -18.1889  -21.8405 H         1 0MQ401      0.0000 
     22 H         -11.6679  -17.6156  -20.3726 H         1 0MQ401      0.0000 
     23 H         -12.4219  -16.5736  -21.5915 H         1 0MQ401      0.0000 
     24 H         -10.5684  -18.0083  -22.4989 H         1 0MQ401      0.0000 
     25 H         -12.1214  -18.2433  -23.3192 H         1 0MQ401      0.0000 
     26 H         -10.7955  -20.0613  -21.2644 H         1 0MQ401      0.0000 
     27 H         -11.1507  -20.4202  -22.9629 H         1 0MQ401      0.0000 
     28 H         -12.7277  -21.5106  -21.3392 H         1 0MQ401      0.0000 
     29 H         -13.5390  -20.4707  -22.5226 H         1 0MQ401      0.0000 
     30 H         -14.4611  -20.0900  -20.2778 H         1 0MQ401      0.0000 
     31 H         -12.8423  -19.7281  -19.6546 H         1 0MQ401      0.0000 
@<TRIPOS>BOND
     1    2    1 ar   
     2    3    2 ar   
     3    4    2 ar   
     4    5    2 1    
     5    6    5 1    
     6   10    5 1    
     7   18    5 1    
     8    7    6 ar   
     9    8    6 ar   
    10    9    6 ar   
    11   11   10 1    
    12   19   10 1    
    13   20   10 1    
    14   12   11 1    
    15   13   12 1    
    16   17   12 1    
    17   21   12 1    
    18   14   13 1    
    19   22   13 1    
    20   23   13 1    
    21   15   14 1    
    22   24   14 1    
    23   25   14 1    
    24   16   15 1    
    25   26   15 1    
    26   27   15 1    
    27   17   16 1    
    28   28   16 1    
    29   29   16 1    
    30   30   17 1    
    31   31   17 1    
@<TRIPOS>SUBSTRUCTURE
     1 0MQ401      1 GROUP   
@<TRIPOS>SET

