#    Name: 3wav_DWV_1_INTS_M
#    Modification time : Tue Mar 25 02:26:33 2014

@<TRIPOS>MOLECULE
3wav_DWV_1_INTS_M
   61     0     6     0     0
SMALL
NO_CHARGES


@<TRIPOS>ATOM
      1 CA         15.7310   37.0625   18.0375 C.3       2 GLC5        0.0000 
      2 CA         15.8010   39.1020   18.4880 C.3       6 GLL5        0.0000 
      3 CA         15.6610   35.0230   17.5870 C.3       4 GLP5        0.0000 
      4 CA         19.2630   41.3160   16.8365 C.3       2 GLC5        0.0000 
      5 CA         19.3870   40.0910   18.3310 C.3       6 GLL5        0.0000 
      6 CA         19.1390   42.5410   15.3420 C.3       4 GLP5        0.0000 
      7 CA         20.7705   40.9430   17.5000 C.3       2 GLC5        0.0000 
      8 CA         22.1540   41.7950   16.6690 C.3       4 GLP5        0.0000 
      9 CA         16.3590   38.2305   14.3525 C.3       2 GLC5        0.0000 
     10 CA         16.6520   38.9990   16.1540 C.3       6 GLL5        0.0000 
     11 CA         16.0660   37.4620   12.5510 C.3       4 GLP5        0.0000 
     12 CA         14.9930   36.6375   17.1585 C.3       2 GLC5        0.0000 
     13 CA         14.3250   38.2520   16.7300 C.3       6 GLL5        0.0000 
     14 CA         14.8635   37.7070   13.8505 C.3       2 GLC5        0.0000 
     15 CA         13.6610   37.9520   15.1500 C.3       6 GLL5        0.0000 
     16 CA         13.7500   36.0825   15.6760 C.3       2 GLC5        0.0000 
     17 CA         13.8390   34.2130   16.2020 C.3       4 GLP5        0.0000 
     18 N          10.2630   37.4250   18.4925 N.am      1 SEC2        0.0000 
     19 N          11.1850   36.8230   17.8600 N.am      5 SEL2        0.0000 
     20 N           9.3410   38.0270   19.1250 N.am      3 SEP2        0.0000 
     21 CA          9.7980   37.8420   15.9350 C.3       2 GLC5        0.0000 
     22 CA         10.9560   36.7350   14.8630 C.3       6 GLL5        0.0000 
     23 CA          8.6400   38.9490   17.0070 C.3       4 GLP5        0.0000 
     24 CA          8.9215   37.4530   13.2025 C.3       2 GLC5        0.0000 
     25 CA         11.0060   36.7020   13.3140 C.3       6 GLL5        0.0000 
     26 CA          6.8370   38.2040   13.0910 C.3       4 GLP5        0.0000 
     27 CA         11.1400   39.5545    8.4885 C.3       2 GLC5        0.0000 
     28 CA         11.8060   39.2210   10.3030 C.3       6 GLL5        0.0000 
     29 CA         10.4740   39.8880    6.6740 C.3       4 GLP5        0.0000 
     30 CA         10.0480   39.9595    9.8945 C.3       2 GLC5        0.0000 
     31 CA          8.2900   40.6980    9.4860 C.3       4 GLP5        0.0000 
     32 CA         11.0490   40.4995   11.7260 C.3       2 GLC5        0.0000 
     33 CA         10.2920   41.7780   13.1490 C.3       4 GLP5        0.0000 
     34 CA         12.2585   36.1225    7.2110 C.3       2 GLC5        0.0000 
     35 CA         10.9640   36.4110    8.8810 C.3       6 GLL5        0.0000 
     36 CA         13.5530   35.8340    5.5410 C.3       4 GLP5        0.0000 
     37 CA         10.7190   38.1495    7.7775 C.3       2 GLC5        0.0000 
     38 CA          9.0145   36.8425    9.8235 C.3       2 GLC5        0.0000 
     39 CA          7.0650   37.2740   10.7660 C.3       4 GLP5        0.0000 
     40 CA         11.8985   33.6545   11.5435 C.3       2 GLC5        0.0000 
     41 CA         10.6370   35.4560   11.3550 C.3       6 GLL5        0.0000 
     42 CA         13.1600   31.8530   11.7320 C.3       4 GLP5        0.0000 
     43 CA         16.1080   38.7945   20.7707 C.3       2 GLC5        0.0000 
     44 CA         15.7080   38.4760   22.8200 C.3       4 GLP5        0.0000 
     45 CA         18.4105   38.2602   14.8653 C.3       2 GLC5        0.0000 
     46 CA         18.0020   38.8380   16.7510 C.3       6 GLL5        0.0000 
     47 CA         19.4940   37.6020   13.2780 C.3       4 GLP5        0.0000 
     48 CA         18.2330   40.7297   15.8973 C.3       2 GLC5        0.0000 
     49 CA         16.9305   36.9202   16.4842 C.3       2 GLC5        0.0000 
     50 CA         16.5340   34.9220   16.5160 C.3       4 GLP5        0.0000 
     51 CA         11.8522   39.1410   15.3020 C.3       2 GLC5        0.0000 
     52 CA         10.7860   40.6650   15.2090 C.3       4 GLP5        0.0000 
     53 CA         11.9720   35.4183   15.6468 C.3       2 GLC5        0.0000 
     54 CA         12.1760   37.2820   15.6400 C.3       6 GLL5        0.0000 
     55 CA         12.3780   33.8280   16.0420 C.3       4 GLP5        0.0000 
     56 CA         11.6002   34.9715   14.5233 C.3       2 GLC5        0.0000 
     57 CA         13.6472   38.3757   10.4760 C.3       2 GLC5        0.0000 
     58 CA         11.3590   37.8060   11.2010 C.3       6 GLL5        0.0000 
     59 CA         15.7120   38.2380   10.2000 C.3       4 GLP5        0.0000 
     60 CA          8.8255   34.9195   12.3370 C.3       2 GLC5        0.0000 
     61 CA          7.0130   34.3470   12.6490 C.3       4 GLP5        0.0000 
@<TRIPOS>BOND
@<TRIPOS>SUBSTRUCTURE
     1 SEC2       18 GROUP        1 X    SEC  0     ROOT SEC X 2
     2 GLC5        1 GROUP        1 X    GLC  0     **** GLC X 6
     3 SEP2       20 GROUP        1 Y    SEP  0     ROOT SEP Y 9
     4 GLP5        3 GROUP        1 Y    GLP  0     **** GLP Y 13
     5 SEL2       19 GROUP        1 Z    SEL  0     ROOT SEL Z 16
     6 GLL5        2 GROUP        1 Z    GLL  0     **** GLL Z 20
@<TRIPOS>SET

