#    Name: 3wav_DWV_1_ligand
#    Modification time : Tue Mar 25 02:26:34 2014

@<TRIPOS>MOLECULE
3wav_DWV_1_ligand
   39    41     1     0     0
SMALL
NO_CHARGES


@<TRIPOS>ATOM
      1 CAK        15.8010   39.1020   18.4880 C.3       1 DWV937      0.0000 
      2 CAI        17.2150   39.1240   18.9550 C.3       1 DWV937      0.0000 
      3 NAU        18.1130   39.6140   17.9490 N.4       1 DWV937      0.0000 
      4 CAA        19.3870   40.0910   18.3310 C.3       1 DWV937      0.0000 
      5 CAJ        18.0020   38.8380   16.7510 C.3       1 DWV937      0.0000 
      6 CAL        16.6520   38.9990   16.1540 C.3       1 DWV937      0.0000 
      7 NAV        15.6020   38.7970   17.0990 N.pl3     1 DWV937      0.0000 
      8 CAR        14.3250   38.2520   16.7300 C.2       1 DWV937      0.0000 
      9 SAN        13.6610   37.9520   15.1500 S.3       1 DWV937      0.0000 
     10 NAM        13.3880   37.8250   17.6320 N.pl3     1 DWV937      0.0000 
     11 CAS        12.2330   37.3050   17.0860 C.2       1 DWV937      0.0000 
     12 OAB        11.1850   36.8230   17.8600 O.2       1 DWV937      0.0000 
     13 CAT        12.1760   37.2820   15.6400 C.2       1 DWV937      0.0000 
     14 CAE        10.9560   36.7350   14.8630 C.2       1 DWV937      0.0000 
     15 CAO        11.0060   36.7020   13.3140 C.ar      1 DWV937      0.0000 
     16 CAH        11.3600   37.8760   12.5330 C.ar      1 DWV937      0.0000 
     17 CAQ        11.3590   37.8060   11.2010 C.ar      1 DWV937      0.0000 
     18 CLD        11.8060   39.2210   10.3030 Cl        1 DWV937      0.0000 
     19 CAP        10.9980   36.5940   10.5700 C.ar      1 DWV937      0.0000 
     20 CLC        10.9640   36.4110    8.8810 Cl        1 DWV937      0.0000 
     21 CAG        10.6370   35.4560   11.3550 C.ar      1 DWV937      0.0000 
     22 CAF        10.6390   35.5280   12.6950 C.ar      1 DWV937      0.0000 
     23 H          15.3364   40.0968   18.7365 H         1 DWV937      0.0000 
     24 H          15.2333   38.3721   19.1300 H         1 DWV937      0.0000 
     25 H          17.4988   38.0975   19.2673 H         1 DWV937      0.0000 
     26 H          17.2738   39.7484   19.8706 H         1 DWV937      0.0000 
     27 H          17.5264   40.6463   17.6042 H         1 DWV937      0.0000 
     28 H          18.1738   37.7686   16.9571 H         1 DWV937      0.0000 
     29 H          18.7572   39.1477   16.0097 H         1 DWV937      0.0000 
     30 H          16.5572   38.2887   15.3019 H         1 DWV937      0.0000 
     31 H          16.5858   40.0146   15.7027 H         1 DWV937      0.0000 
     32 H          13.5269   37.8840   18.6233 H         1 DWV937      0.0000 
     33 H          10.1729   36.4179   15.3347 H         1 DWV937      0.0000 
     34 H          11.6006   38.7266   13.0534 H         1 DWV937      0.0000 
     35 H          10.3791   34.5911   10.8520 H         1 DWV937      0.0000 
     36 H          10.3683   34.7129   13.2753 H         1 DWV937      0.0000 
     37 H          19.9283   39.3826   18.7840 H         1 DWV937      0.0000 
     38 H          19.9169   40.4063   17.5437 H         1 DWV937      0.0000 
     39 H          19.3204   40.8602   18.9665 H         1 DWV937      0.0000 
@<TRIPOS>BOND
     1    2    1 1    
     2    7    1 1    
     3   23    1 1    
     4   24    1 1    
     5    3    2 1    
     6   25    2 1    
     7   26    2 1    
     8    4    3 1    
     9    5    3 1    
    10   27    3 1    
    11   37    4 1    
    12   38    4 1    
    13   39    4 1    
    14    6    5 1    
    15   28    5 1    
    16   29    5 1    
    17    7    6 1    
    18   30    6 1    
    19   31    6 1    
    20    8    7 2    
    21    9    8 1    
    22   10    8 1    
    23   13    9 1    
    24   11   10 1    
    25   32   10 1    
    26   12   11 2    
    27   13   11 1    
    28   14   13 2    
    29   15   14 1    
    30   33   14 1    
    31   16   15 ar   
    32   22   15 ar   
    33   17   16 ar   
    34   34   16 1    
    35   18   17 1    
    36   19   17 ar   
    37   20   19 1    
    38   21   19 ar   
    39   22   21 ar   
    40   35   21 1    
    41   36   22 1    
@<TRIPOS>SUBSTRUCTURE
     1 DWV937      1 GROUP   
@<TRIPOS>SET

