#    Name: 2zkj_ADP_2_INTS_M
#    Modification time : Tue Mar 25 10:48:37 2014

@<TRIPOS>MOLECULE
2zkj_ADP_2_INTS_M
   61     0    12     0     0
SMALL
NO_CHARGES


@<TRIPOS>ATOM
      1 N          14.4275    8.0345    9.1750 N.am      2 SEC2        0.0000 
      2 N          13.8240    8.4270   10.3570 N.am     10 SEL2        0.0000 
      3 N          15.0310    7.6420    7.9930 N.am      6 SEP2        0.0000 
      4 N          16.8225    8.5340   10.8820 N.am      2 SEC2        0.0000 
      5 N          15.9220    8.0660   11.7990 N.am     10 SEL2        0.0000 
      6 N          17.7230    9.0020    9.9650 N.am      6 SEP2        0.0000 
      7 N          16.3050    6.6455   11.8280 N.am      2 SEC2        0.0000 
      8 N          16.6880    5.2250   11.8570 N.am      6 SEP2        0.0000 
      9 Zn         14.1285    9.8330   13.4490 Zn        3 ZIC7        0.0000 
     10 Zn         14.2530    9.7440   12.4230 Zn       11 ZIL7        0.0000 
     11 Zn         14.0040    9.9220   14.4750 Zn        7 ZIP7        0.0000 
     12 Zn         13.2685    9.2170   14.4585 Zn        3 ZIC7        0.0000 
     13 Zn         12.5330    8.5120   14.4420 Zn       11 ZIL7        0.0000 
     14 N          11.6390    9.4340   14.9800 N.am      2 SEC2        0.0000 
     15 N          12.5330    8.5120   14.4420 N.am     10 SEL2        0.0000 
     16 N          10.7450   10.3560   15.5180 N.am      6 SEP2        0.0000 
     17 N          11.9970    6.0010   15.5140 N.am      2 SEC2        0.0000 
     18 N          12.1620    5.9100   14.0260 N.am     10 SEL2        0.0000 
     19 N          11.8320    6.0920   17.0020 N.am      6 SEP2        0.0000 
     20 CA         12.1165    6.4220    9.6255 C.3       4 GLC5        0.0000 
     21 CA         10.9200    6.9880   11.4040 C.3      12 GLL5        0.0000 
     22 CA         13.3130    5.8560    7.8470 C.3       8 GLP5        0.0000 
     23 CA          9.5190    6.9320   13.0405 C.3       4 GLC5        0.0000 
     24 CA          8.1180    6.8760   14.6770 C.3       8 GLP5        0.0000 
     25 CA          8.3140    6.9330    9.9635 C.3       4 GLC5        0.0000 
     26 CA         10.0720    7.7420   10.4170 C.3      12 GLL5        0.0000 
     27 CA          6.5560    6.1240    9.5100 C.3       8 GLP5        0.0000 
     28 N          12.2450   10.2560    8.6595 N.am      2 SEC2        0.0000 
     29 N          11.7510    8.9140    9.0500 N.am     10 SEL2        0.0000 
     30 N          12.7390   11.5980    8.2690 N.am      6 SEP2        0.0000 
     31 N          12.0970    8.2075    7.6680 N.am      2 SEC2        0.0000 
     32 N          12.4430    7.5010    6.2860 N.am      6 SEP2        0.0000 
     33 N          11.4185    9.4465    7.5870 N.am      2 SEC2        0.0000 
     34 N          11.0860    9.9790    6.1240 N.am      6 SEP2        0.0000 
     35 O          10.2560    9.6660    7.0980 O.2       1 ALC1        0.0000 
     36 O           9.4260    9.3530    8.0720 O.2       9 ALL1        0.0000 
     37 O          11.0860    9.9790    6.1240 O.2       5 ALP1        0.0000 
     38 CA          6.2810    9.7425    9.5585 C.3       4 GLC5        0.0000 
     39 CA          8.3590    9.3460   10.2140 C.3      12 GLL5        0.0000 
     40 CA          4.2030   10.1390    8.9030 C.3       8 GLP5        0.0000 
     41 CA          7.4575    7.7350    9.8620 C.3       4 GLC5        0.0000 
     42 CA          8.8595   12.3705   13.6710 C.3       4 GLC5        0.0000 
     43 CA          7.2180   12.0620   12.4410 C.3      12 GLL5        0.0000 
     44 CA         10.5010   12.6790   14.9010 C.3       8 GLP5        0.0000 
     45 CA          7.1605   14.8155   11.5575 C.3       4 GLC5        0.0000 
     46 CA          6.4770   13.2790   12.5230 C.3      12 GLL5        0.0000 
     47 CA          7.8440   16.3520   10.5920 C.3       8 GLP5        0.0000 
     48 CA          4.4905   13.5300   13.0050 C.3       4 GLC5        0.0000 
     49 CA          2.5040   13.7810   13.4870 C.3       8 GLP5        0.0000 
     50 O           5.7620   15.1725   13.9870 O.2       1 ALC1        0.0000 
     51 O           6.3610   13.9180   13.7170 O.2       9 ALL1        0.0000 
     52 O           5.1630   16.4270   14.2570 O.2       5 ALP1        0.0000 
     53 CA          6.9420   14.7475   10.4015 C.3       4 GLC5        0.0000 
     54 CA          6.0400   13.1430   10.2110 C.3      12 GLL5        0.0000 
     55 CA          3.9425   13.5570    9.5465 C.3       4 GLC5        0.0000 
     56 CA          1.8450   13.9710    8.8820 C.3       8 GLP5        0.0000 
     57 CA          5.1215   11.6410    9.5570 C.3       4 GLC5        0.0000 
     58 CA          5.7490   10.7790   10.0095 C.3       4 GLC5        0.0000 
     59 CA          7.2950   11.4190   11.1160 C.3      12 GLL5        0.0000 
     60 CA         10.1995    5.6675    9.6158 C.3       4 GLC5        0.0000 
     61 CA          9.9030    3.9700    8.3210 C.3       8 GLP5        0.0000 
@<TRIPOS>BOND
@<TRIPOS>SUBSTRUCTURE
     1 ALC1       35 GROUP        1 X    ALC  0     ROOT ALC X 1
     2 SEC2        1 GROUP        1 X    SEC  0     **** SEC X 2
     3 ZIC7        9 GROUP        1 X    ZIC  0     **** ZIC X 5
     4 GLC5       20 GROUP        1 X    GLC  0     **** GLC X 6
     5 ALP1       37 GROUP        1 Y    ALP  0     ROOT ALP Y 8
     6 SEP2        3 GROUP        1 Y    SEP  0     **** SEP Y 9
     7 ZIP7       11 GROUP        1 Y    ZIP  0     **** ZIP Y 12
     8 GLP5       22 GROUP        1 Y    GLP  0     **** GLP Y 13
     9 ALL1       36 GROUP        1 Z    ALL  0     ROOT ALL Z 15
    10 SEL2        2 GROUP        1 Z    SEL  0     **** SEL Z 16
    11 ZIL7       10 GROUP        1 Z    ZIL  0     **** ZIL Z 19
    12 GLL5       21 GROUP        1 Z    GLL  0     **** GLL Z 20
@<TRIPOS>SET

