#    Name: 2zkj_ADP_2_ligand
#    Modification time : Tue Mar 25 10:48:37 2014

@<TRIPOS>MOLECULE
2zkj_ADP_2_ligand
   39    41     1     0     0
SMALL
NO_CHARGES


@<TRIPOS>ATOM
      1 PB         14.4840    8.4560   11.7260 P.3       1 ADP501      0.0000 
      2 O1B        13.8240    8.4270   10.3570 O.co2     1 ADP501      0.0000 
      3 O2B        15.9220    8.0660   11.7990 O.co2     1 ADP501      0.0000 
      4 O3B        14.2530    9.7440   12.4230 O.co2     1 ADP501      0.0000 
      5 PA         12.4440    7.3290   13.4950 P.3       1 ADP501      0.0000 
      6 O1A        12.5330    8.5120   14.4420 O.co2     1 ADP501      0.0000 
      7 O2A        12.1620    5.9100   14.0260 O.co2     1 ADP501      0.0000 
      8 O3A        13.7070    7.2490   12.5000 O.3       1 ADP501      0.0000 
      9 O5'        11.2850    7.7830   12.5580 O.3       1 ADP501      0.0000 
     10 C5'        10.9200    6.9880   11.4040 C.3       1 ADP501      0.0000 
     11 C4'        10.0720    7.7420   10.4170 C.3       1 ADP501      0.0000 
     12 O4'         8.7510    8.1170   10.8300 O.3       1 ADP501      0.0000 
     13 C3'        10.7110    9.0750    9.9990 C.3       1 ADP501      0.0000 
     14 O3'        11.7510    8.9140    9.0500 O.3       1 ADP501      0.0000 
     15 C2'         9.5630    9.8550    9.4140 C.3       1 ADP501      0.0000 
     16 O2'         9.4260    9.3530    8.0720 O.3       1 ADP501      0.0000 
     17 C1'         8.3590    9.3460   10.2140 C.3       1 ADP501      0.0000 
     18 N9          8.0370   10.3360   11.2850 N.pl3     1 ADP501      0.0000 
     19 C8          8.3660   10.2490   12.5890 C.2       1 ADP501      0.0000 
     20 N7          7.8870   11.2830   13.3220 N.2       1 ADP501      0.0000 
     21 C5          7.2180   12.0620   12.4410 C.ar      1 ADP501      0.0000 
     22 C6          6.4770   13.2790   12.5230 C.ar      1 ADP501      0.0000 
     23 N6          6.3610   13.9180   13.7170 N.pl3     1 ADP501      0.0000 
     24 N1          5.9200   13.7600   11.3720 N.ar      1 ADP501      0.0000 
     25 C2          6.0400   13.1430   10.2110 C.ar      1 ADP501      0.0000 
     26 N3          6.7100   11.9820   10.0380 N.ar      1 ADP501      0.0000 
     27 C4          7.2950   11.4190   11.1160 C.ar      1 ADP501      0.0000 
     28 H          10.3654    6.0795   11.7172 H         1 ADP501      0.0000 
     29 H          11.8275    6.6259   10.8784 H         1 ADP501      0.0000 
     30 H          10.0018    7.1579    9.4780 H         1 ADP501      0.0000 
     31 H          11.0246    9.5750   10.8953 H         1 ADP501      0.0000 
     32 H           9.6869   10.8410    9.5077 H         1 ADP501      0.0000 
     33 H           7.5409    9.2247    9.5614 H         1 ADP501      0.0000 
     34 H           8.9023    9.5074   12.9754 H         1 ADP501      0.0000 
     35 H           5.8121   14.7539   13.7172 H         1 ADP501      0.0000 
     36 H           6.8348   13.4959   14.4898 H         1 ADP501      0.0000 
     37 H           5.5820   13.5798    9.3436 H         1 ADP501      0.0000 
     38 H          12.5846    9.1849    9.5313 H         1 ADP501      0.0000 
     39 H           9.9345    9.9979    7.5015 H         1 ADP501      0.0000 
@<TRIPOS>BOND
     1    2    1 ar   
     2    3    1 ar   
     3    4    1 ar   
     4    8    1 1    
     5    6    5 ar   
     6    7    5 ar   
     7    8    5 1    
     8    9    5 1    
     9   10    9 1    
    10   11   10 1    
    11   28   10 1    
    12   29   10 1    
    13   12   11 1    
    14   13   11 1    
    15   30   11 1    
    16   17   12 1    
    17   14   13 1    
    18   15   13 1    
    19   31   13 1    
    20   38   14 1    
    21   16   15 1    
    22   17   15 1    
    23   32   15 1    
    24   39   16 1    
    25   18   17 1    
    26   33   17 1    
    27   19   18 1    
    28   27   18 1    
    29   20   19 2    
    30   34   19 1    
    31   21   20 1    
    32   22   21 ar   
    33   27   21 ar   
    34   23   22 1    
    35   24   22 ar   
    36   35   23 1    
    37   36   23 1    
    38   25   24 ar   
    39   26   25 ar   
    40   37   25 1    
    41   27   26 ar   
@<TRIPOS>SUBSTRUCTURE
     1 ADP501      1 GROUP   
@<TRIPOS>SET

