#    Name: 2RCW_1_CAVITY_N1_6.mol2
#    Modification time : Mon Mar 10 12:57:26 2014

@<TRIPOS>MOLECULE
2RCW_1_CAVITY_N1_6.mol2
  185     0     7     0     0
SMALL
NO_CHARGES


@<TRIPOS>ATOM
      1 N         -27.0735   61.8494   31.3551 N.2       2 ALA2        0.0000 
      2 OD1       -30.6010   64.9726   30.8048 O.3       3 ASP3        0.0000 
      3 CA        -29.7125   63.7802   30.6080 C.3       6 GLY6        0.0000 
      4 CA        -28.8239   62.5878   30.4113 C.3       6 GLY6        0.0000 
      5 CA        -27.9354   61.3954   30.2145 C.3       6 GLY6        0.0000 
      6 OD1       -31.4629   64.5186   29.6642 O.3       3 ASP3        0.0000 
      7 NZ        -30.5744   63.3261   29.4675 N.2       4 LYS4        0.0000 
      8 CA        -29.6859   62.1337   29.2707 C.3       6 GLY6        0.0000 
      9 OD1       -32.3249   64.0645   28.5237 O.3       3 ASP3        0.0000 
     10 CA        -22.7786   64.4543   34.9631 C.3       6 GLY6        0.0000 
     11 N         -23.6405   64.0003   33.8226 N.2       2 ALA2        0.0000 
     12 CA        -22.7520   62.8079   33.6258 C.3       6 GLY6        0.0000 
     13 N         -24.5025   63.5462   32.6820 N.2       2 ALA2        0.0000 
     14 DU        -26.2529   64.2846   31.7382 H         7 CUB7        0.0000 
     15 N         -25.3644   63.0922   31.5414 N.2       2 ALA2        0.0000 
     16 OG        -27.1149   63.8305   30.5977 O.2       1 SER1        0.0000 
     17 N         -26.2264   62.6381   30.4009 N.2       2 ALA2        0.0000 
     18 OG        -28.8653   64.5689   29.6539 O.2       1 SER1        0.0000 
     19 OG        -27.9768   63.3764   29.4571 O.2       1 SER1        0.0000 
     20 NZ        -27.0883   62.1840   29.2603 N.2       4 LYS4        0.0000 
     21 O         -26.1998   60.9916   29.0636 O.2       2 ALA2        0.0000 
     22 OD1       -29.7273   64.1148   28.5133 O.3       3 ASP3        0.0000 
     23 NZ        -28.8388   62.9224   28.3166 N.2       4 LYS4        0.0000 
     24 NZ        -30.5892   63.6607   27.3728 N.2       4 LYS4        0.0000 
     25 NZ        -21.9049   63.5965   32.6716 N.2       4 LYS4        0.0000 
     26 CA        -21.0164   62.4041   32.4749 C.3       6 GLY6        0.0000 
     27 N         -20.1279   61.2117   32.2781 N.2       2 ALA2        0.0000 
     28 NZ        -24.5439   65.5273   31.9246 N.2       4 LYS4        0.0000 
     29 NZ        -23.6554   64.3349   31.7278 N.2       4 LYS4        0.0000 
     30 N         -22.7669   63.1425   31.5311 N.2       2 ALA2        0.0000 
     31 CA        -21.8784   61.9501   31.3343 C.3       6 GLY6        0.0000 
     32 CZ        -20.9899   60.7576   31.1376 C.ar      5 PHE5        0.0000 
     33 OG        -25.4058   65.0732   30.7840 O.2       1 SER1        0.0000 
     34 N         -24.5173   63.8808   30.5873 N.2       2 ALA2        0.0000 
     35 N         -23.6288   62.6884   30.3905 N.2       2 ALA2        0.0000 
     36 N         -22.7403   61.4960   30.1938 N.2       2 ALA2        0.0000 
     37 OG        -26.2678   64.6192   29.6435 O.2       1 SER1        0.0000 
     38 OG        -25.3793   63.4268   29.4467 O.2       1 SER1        0.0000 
     39 N         -24.4908   62.2343   29.2500 N.2       2 ALA2        0.0000 
     40 CA        -23.6023   61.0419   29.0532 C.3       6 GLY6        0.0000 
     41 OG        -26.2412   62.9727   28.3062 O.2       1 SER1        0.0000 
     42 CZ        -25.3527   61.7803   28.1094 C.ar      5 PHE5        0.0000 
     43 CZ        -24.4642   60.5879   27.9127 C.ar      5 PHE5        0.0000 
     44 OG        -27.9917   63.7110   27.3624 O.2       1 SER1        0.0000 
     45 NZ        -27.1032   62.5186   27.1656 N.2       4 LYS4        0.0000 
     46 CA        -29.7421   64.4494   26.4186 C.3       6 GLY6        0.0000 
     47 CA        -20.1693   63.1928   31.5207 C.3       6 GLY6        0.0000 
     48 CA        -19.2808   62.0004   31.3239 C.3       6 GLY6        0.0000 
     49 CZ        -18.3923   60.8079   31.1272 C.ar      5 PHE5        0.0000 
     50 NZ        -22.8082   65.1235   30.7737 N.2       4 LYS4        0.0000 
     51 NZ        -21.9197   63.9311   30.5769 N.2       4 LYS4        0.0000 
     52 CA        -21.0312   62.7387   30.3802 C.3       6 GLY6        0.0000 
     53 CZ        -20.1427   61.5463   30.1834 C.ar      5 PHE5        0.0000 
     54 CZ        -24.5587   65.8619   29.8299 C.ar      5 PHE5        0.0000 
     55 CZ        -23.6702   64.6695   29.6331 C.ar      5 PHE5        0.0000 
     56 DU        -22.7817   63.4771   29.4364 H         7 CUB7        0.0000 
     57 CZ        -21.8932   62.2846   29.2396 C.ar      5 PHE5        0.0000 
     58 CZ        -24.5322   64.2154   28.4926 C.ar      5 PHE5        0.0000 
     59 DU        -23.6437   63.0230   28.2958 H         7 CUB7        0.0000 
     60 CZ        -22.7552   61.8306   28.0990 C.ar      5 PHE5        0.0000 
     61 OG        -25.3941   63.7613   27.3520 O.2       1 SER1        0.0000 
     62 CZ        -24.5056   62.5689   27.1553 C.ar      5 PHE5        0.0000 
     63 CZ        -23.6171   61.3765   26.9585 C.ar      5 PHE5        0.0000 
     64 OG        -27.1446   64.4997   26.4082 O.2       1 SER1        0.0000 
     65 CZ        -26.2561   63.3073   26.2115 C.ar      5 PHE5        0.0000 
     66 CZ        -25.3676   62.1149   26.0147 C.ar      5 PHE5        0.0000 
     67 CA        -28.8950   65.2380   25.4644 C.3       6 GLY6        0.0000 
     68 CA        -28.0065   64.0456   25.2677 C.3       6 GLY6        0.0000 
     69 N         -29.7570   64.7840   24.3239 N.2       2 ALA2        0.0000 
     70 N         -28.8685   63.5916   24.1271 N.2       2 ALA2        0.0000 
     71 CA        -19.3222   63.9814   30.5665 C.3       6 GLY6        0.0000 
     72 NZ        -18.4337   62.7890   30.3698 N.2       4 LYS4        0.0000 
     73 NZ        -22.8496   67.1046   30.0163 N.2       4 LYS4        0.0000 
     74 NZ        -21.9611   65.9122   29.8195 N.2       4 LYS4        0.0000 
     75 NZ        -21.0726   64.7198   29.6228 N.2       4 LYS4        0.0000 
     76 CA        -20.1841   63.5274   29.4260 C.3       6 GLY6        0.0000 
     77 OG        -19.2956   62.3350   29.2292 O.2       1 SER1        0.0000 
     78 CZ        -22.8231   65.4581   28.6790 C.ar      5 PHE5        0.0000 
     79 DU        -21.9346   64.2657   28.4822 H         7 CUB7        0.0000 
     80 CZ        -21.0461   63.0733   28.2854 C.ar      5 PHE5        0.0000 
     81 CZ        -20.1576   61.8809   28.0887 C.ar      5 PHE5        0.0000 
     82 CZ        -23.6850   65.0041   27.5384 C.ar      5 PHE5        0.0000 
     83 DU        -22.7965   63.8117   27.3416 H         7 CUB7        0.0000 
     84 CZ        -21.9080   62.6192   27.1449 C.ar      5 PHE5        0.0000 
     85 CZ        -25.4355   65.7424   26.5946 C.ar      5 PHE5        0.0000 
     86 CZ        -24.5470   64.5500   26.3979 C.ar      5 PHE5        0.0000 
     87 DU        -23.6585   63.3576   26.2011 H         7 CUB7        0.0000 
     88 CZ        -22.7700   62.1652   26.0043 C.ar      5 PHE5        0.0000 
     89 CZ        -21.8815   60.9728   25.8076 C.ar      5 PHE5        0.0000 
     90 CZ        -26.2975   65.2883   25.4541 C.ar      5 PHE5        0.0000 
     91 CA        -25.4090   64.0959   25.2573 C.3       6 GLY6        0.0000 
     92 CA        -24.5205   62.9035   25.0605 C.3       6 GLY6        0.0000 
     93 CZ        -28.0479   66.0267   24.5103 C.ar      5 PHE5        0.0000 
     94 CA        -27.1594   64.8343   24.3135 C.3       6 GLY6        0.0000 
     95 N         -28.9099   65.5726   23.3697 N.2       2 ALA2        0.0000 
     96 N         -28.0214   64.3802   23.1730 N.2       2 ALA2        0.0000 
     97 NZ        -20.2786   68.8014   31.3432 N.2       4 LYS4        0.0000 
     98 NZ        -21.1406   68.3473   30.2027 N.2       4 LYS4        0.0000 
     99 NZ        -20.2521   67.1549   30.0059 N.2       4 LYS4        0.0000 
    100 CA        -19.3636   65.9625   29.8091 C.3       6 GLY6        0.0000 
    101 CA        -18.4751   64.7701   29.6124 C.3       6 GLY6        0.0000 
    102 CZ        -22.8910   69.0857   29.2589 C.ar      5 PHE5        0.0000 
    103 CZ        -22.0025   67.8933   29.0621 C.ar      5 PHE5        0.0000 
    104 NZ        -21.1140   66.7008   28.8654 N.2       4 LYS4        0.0000 
    105 DU        -20.2255   65.5084   28.6686 H         7 CUB7        0.0000 
    106 NZ        -19.3370   64.3160   28.4718 N.2       4 LYS4        0.0000 
    107 CZ        -21.9760   66.2468   27.7248 C.ar      5 PHE5        0.0000 
    108 DU        -20.1990   63.8620   27.3313 H         7 CUB7        0.0000 
    109 NZ        -19.3105   62.6695   27.1345 N.2       4 LYS4        0.0000 
    110 CZ        -22.8379   65.7927   26.5842 C.ar      5 PHE5        0.0000 
    111 DU        -21.0609   63.4079   26.1907 H         7 CUB7        0.0000 
    112 CZ        -20.1724   62.2155   25.9940 C.ar      5 PHE5        0.0000 
    113 CZ        -19.2839   61.0231   25.7972 C.ar      5 PHE5        0.0000 
    114 CZ        -24.5884   66.5311   25.6405 C.ar      5 PHE5        0.0000 
    115 DU        -23.6999   65.3387   25.4437 H         7 CUB7        0.0000 
    116 DU        -22.8114   64.1462   25.2469 H         7 CUB7        0.0000 
    117 DU        -21.9229   62.9538   25.0502 H         7 CUB7        0.0000 
    118 N         -21.0344   61.7614   24.8534 N.2       2 ALA2        0.0000 
    119 N         -20.1459   60.5690   24.6566 N.2       2 ALA2        0.0000 
    120 CZ        -25.4503   66.0770   24.4999 C.ar      5 PHE5        0.0000 
    121 CA        -24.5618   64.8846   24.3031 C.3       6 GLY6        0.0000 
    122 CA        -23.6733   63.6922   24.1064 C.3       6 GLY6        0.0000 
    123 CZ        -22.7848   62.4998   23.9096 C.ar      5 PHE5        0.0000 
    124 CZ        -27.2008   66.8154   23.5561 C.ar      5 PHE5        0.0000 
    125 N         -26.3123   65.6229   23.3594 N.2       2 ALA2        0.0000 
    126 CA        -25.4238   64.4305   23.1626 C.3       6 GLY6        0.0000 
    127 N         -28.0628   66.3613   22.4156 N.2       2 ALA2        0.0000 
    128 N         -27.1743   65.1689   22.2188 N.2       2 ALA2        0.0000 
    129 N         -19.4315   69.5900   30.3891 N.2       2 ALA2        0.0000 
    130 O         -18.5430   68.3976   30.1923 O.2       2 ALA2        0.0000 
    131 N         -20.2935   69.1360   29.2485 N.2       2 ALA2        0.0000 
    132 N         -19.4050   67.9436   29.0517 N.2       2 ALA2        0.0000 
    133 N         -18.5165   66.7512   28.8550 N.2       2 ALA2        0.0000 
    134 N         -21.1554   68.6819   28.1080 N.2       2 ALA2        0.0000 
    135 DU        -20.2669   67.4895   27.9112 H         7 CUB7        0.0000 
    136 DU        -19.3784   66.2971   27.7144 H         7 CUB7        0.0000 
    137 NZ        -18.4899   65.1047   27.5177 N.2       4 LYS4        0.0000 
    138 CZ        -22.0174   68.2279   26.9674 C.ar      5 PHE5        0.0000 
    139 DU        -21.1289   67.0354   26.7706 H         7 CUB7        0.0000 
    140 DU        -20.2404   65.8430   26.5739 H         7 CUB7        0.0000 
    141 NZ        -19.3519   64.6506   26.3771 N.2       4 LYS4        0.0000 
    142 CZ        -22.8793   67.7738   25.8268 C.ar      5 PHE5        0.0000 
    143 DU        -21.9908   66.5814   25.6301 H         7 CUB7        0.0000 
    144 DU        -20.2138   64.1965   25.2366 H         7 CUB7        0.0000 
    145 NZ        -19.3253   63.0041   25.0398 N.2       4 LYS4        0.0000 
    146 NZ        -18.4368   61.8117   24.8430 N.2       4 LYS4        0.0000 
    147 O         -17.5483   60.6193   24.6463 O.2       2 ALA2        0.0000 
    148 N         -23.7413   67.3197   24.6863 N.2       2 ALA2        0.0000 
    149 N         -22.8528   66.1273   24.4895 N.2       2 ALA2        0.0000 
    150 DU        -21.9643   64.9349   24.2928 H         7 CUB7        0.0000 
    151 DU        -21.0758   63.7425   24.0960 H         7 CUB7        0.0000 
    152 DU        -20.1873   62.5501   23.8992 H         7 CUB7        0.0000 
    153 N         -19.2988   61.3577   23.7025 N.2       2 ALA2        0.0000 
    154 N         -24.6032   66.8657   23.5457 N.2       2 ALA2        0.0000 
    155 O         -23.7147   65.6732   23.3490 O.2       2 ALA2        0.0000 
    156 O         -22.8262   64.4808   23.1522 O.2       2 ALA2        0.0000 
    157 O         -21.9377   63.2884   22.9555 O.2       2 ALA2        0.0000 
    158 N         -21.0492   62.0960   22.7587 N.2       2 ALA2        0.0000 
    159 O         -25.4652   66.4116   22.4052 O.2       2 ALA2        0.0000 
    160 CA        -19.4463   69.9246   28.2943 C.3       6 GLY6        0.0000 
    161 N         -18.5578   68.7322   28.0976 N.2       2 ALA2        0.0000 
    162 N         -17.6693   67.5398   27.9008 N.2       2 ALA2        0.0000 
    163 N         -20.3083   69.4706   27.1538 N.2       2 ALA2        0.0000 
    164 N         -19.4198   68.2782   26.9570 N.2       2 ALA2        0.0000 
    165 N         -18.5313   67.0857   26.7603 N.2       2 ALA2        0.0000 
    166 CA        -17.6428   65.8933   26.5635 C.3       6 GLY6        0.0000 
    167 N         -21.1703   69.0165   26.0132 N.2       2 ALA2        0.0000 
    168 OG        -20.2818   67.8241   25.8165 O.2       1 SER1        0.0000 
    169 DU        -19.3933   66.6317   25.6197 H         7 CUB7        0.0000 
    170 NZ        -18.5048   65.4393   25.4230 N.2       4 LYS4        0.0000 
    171 NZ        -17.6162   64.2469   25.2262 N.2       4 LYS4        0.0000 
    172 N         -21.1437   67.3700   24.6759 N.2       2 ALA2        0.0000 
    173 DU        -20.2552   66.1776   24.4792 H         7 CUB7        0.0000 
    174 DU        -19.3667   64.9852   24.2824 H         7 CUB7        0.0000 
    175 NZ        -18.4782   63.7928   24.0856 N.2       4 LYS4        0.0000 
    176 N         -22.0057   66.9160   23.5354 N.2       2 ALA2        0.0000 
    177 N         -21.1172   65.7236   23.3386 N.2       2 ALA2        0.0000 
    178 DU        -20.2287   64.5311   23.1418 H         7 CUB7        0.0000 
    179 DU        -19.3402   63.3387   22.9451 H         7 CUB7        0.0000 
    180 N         -21.0906   64.0771   22.0013 N.2       2 ALA2        0.0000 
    181 OG        -19.4081   66.9663   23.5250 O.2       1 SER1        0.0000 
    182 N         -20.2701   66.5122   22.3844 N.2       2 ALA2        0.0000 
    183 N         -19.3815   65.3198   22.1877 N.2       2 ALA2        0.0000 
    184 N         -20.2435   64.8657   21.0471 N.2       2 ALA2        0.0000 
    185 CA        -19.4229   67.3009   21.4303 C.3       6 GLY6        0.0000 
@<TRIPOS>BOND
@<TRIPOS>SUBSTRUCTURE
     1 SER1       16 GROUP   
     2 ALA2        1 GROUP   
     3 ASP3        2 GROUP   
     4 LYS4        7 GROUP   
     5 PHE5       32 GROUP   
     6 GLY6        3 GROUP   
     7 CUB7       14 GROUP   
@<TRIPOS>SET

