#    Name: 2rcw_AAI_1_INTS_M
#    Modification time : Mon Mar 24 23:39:42 2014

@<TRIPOS>MOLECULE
2rcw_AAI_1_INTS_M
   42     0     9     0     0
SMALL
NO_CHARGES


@<TRIPOS>ATOM
      1 CA        -28.3310   64.9870   21.6495 C.3       3 GLC5        0.0000 
      2 CA        -28.2260   65.9160   23.6140 C.3       9 GLL5        0.0000 
      3 CA        -28.4360   64.0580   19.6850 C.3       6 GLP5        0.0000 
      4 O         -23.9400   68.3060   23.0370 O.2       1 ALC1        0.0000 
      5 O         -24.7680   67.1630   23.1620 O.2       7 ALL1        0.0000 
      6 O         -23.1120   69.4490   22.9120 O.2       4 ALP1        0.0000 
      7 N         -25.8295   68.8115   21.5125 N.am      2 SEC2        0.0000 
      8 N         -26.6380   67.7780   22.1380 N.am      8 SEL2        0.0000 
      9 N         -25.0210   69.8450   20.8870 N.am      5 SEP2        0.0000 
     10 N         -27.8125   68.5525   21.6290 N.am      2 SEC2        0.0000 
     11 N         -28.9870   69.3270   21.1200 N.am      5 SEP2        0.0000 
     12 CA        -24.3650   66.3950   28.0975 C.3       3 GLC5        0.0000 
     13 CA        -23.1630   65.0110   27.9420 C.3       9 GLL5        0.0000 
     14 CA        -25.5670   67.7790   28.2530 C.3       6 GLP5        0.0000 
     15 CA        -17.5020   61.8570   32.2265 C.3       3 GLC5        0.0000 
     16 CA        -18.5410   62.2900   30.5470 C.3       9 GLL5        0.0000 
     17 CA        -16.4630   61.4240   33.9060 C.3       6 GLP5        0.0000 
     18 CA        -17.7260   63.9315   31.3265 C.3       3 GLC5        0.0000 
     19 CA        -16.9110   65.5730   32.1060 C.3       6 GLP5        0.0000 
     20 CA        -26.4017   63.4015   24.1365 C.3       3 GLC5        0.0000 
     21 CA        -26.9610   64.3500   25.6060 C.3       9 GLL5        0.0000 
     22 CA        -26.2290   61.9840   23.0600 C.3       6 GLP5        0.0000 
     23 CA        -26.8755   63.9895   23.3895 C.3       3 GLC5        0.0000 
     24 CA        -26.8180   66.0740   23.8240 C.3       9 GLL5        0.0000 
     25 CA        -30.1260   66.0700   22.6043 C.3       3 GLC5        0.0000 
     26 CA        -31.6500   66.6860   21.2070 C.3       6 GLP5        0.0000 
     27 CA        -27.4417   63.2930   23.9737 C.3       3 GLC5        0.0000 
     28 CA        -28.9780   64.9920   24.3890 C.3       9 GLL5        0.0000 
     29 CA        -29.7093   62.9550   24.8478 C.3       3 GLC5        0.0000 
     30 CA        -28.3310   64.2120   25.3860 C.3       9 GLL5        0.0000 
     31 CA        -30.7640   61.3080   24.8080 C.3       6 GLP5        0.0000 
     32 CA        -29.7562   65.7310   25.7679 C.3       3 GLC5        0.0000 
     33 CA        -31.0460   66.6290   26.8420 C.3       6 GLP5        0.0000 
     34 CA        -22.3993   60.5765   28.0392 C.3       3 GLC5        0.0000 
     35 CA        -23.8530   62.5720   27.8200 C.3       9 GLL5        0.0000 
     36 CA        -21.5520   58.7570   27.8100 C.3       6 GLP5        0.0000 
     37 CA        -19.8795   64.1702   31.3672 C.3       3 GLC5        0.0000 
     38 CA        -21.0040   62.9840   30.4080 C.3       9 GLL5        0.0000 
     39 CA        -19.4000   65.5320   32.7190 C.3       6 GLP5        0.0000 
     40 CA        -19.2197   60.7952   29.3185 C.3       3 GLC5        0.0000 
     41 CA        -19.7140   62.6330   29.6230 C.3       9 GLL5        0.0000 
     42 CA        -19.3120   59.1290   28.5520 C.3       6 GLP5        0.0000 
@<TRIPOS>BOND
@<TRIPOS>SUBSTRUCTURE
     1 ALC1        4 GROUP        1 X    ALC  0     ROOT ALC X 1
     2 SEC2        7 GROUP        1 X    SEC  0     **** SEC X 2
     3 GLC5        1 GROUP        1 X    GLC  0     **** GLC X 6
     4 ALP1        6 GROUP        1 Y    ALP  0     ROOT ALP Y 8
     5 SEP2        9 GROUP        1 Y    SEP  0     **** SEP Y 9
     6 GLP5        3 GROUP        1 Y    GLP  0     **** GLP Y 13
     7 ALL1        5 GROUP        1 Z    ALL  0     ROOT ALL Z 15
     8 SEL2        8 GROUP        1 Z    SEL  0     **** SEL Z 16
     9 GLL5        2 GROUP        1 Z    GLL  0     **** GLL Z 20
@<TRIPOS>SET

