#    Name: 2rcw_AAI_1_ligand
#    Modification time : Mon Mar 24 23:39:42 2014

@<TRIPOS>MOLECULE
2rcw_AAI_1_ligand
   44    46     1     0     0
SMALL
NO_CHARGES


@<TRIPOS>ATOM
      1 C1        -24.8700   64.2680   26.2490 C.2       1 AAI400      0.0000 
      2 N2        -24.8790   65.1870   25.2770 N.pl3     1 AAI400      0.0000 
      3 C3        -26.1880   65.2880   24.8200 C.ar      1 AAI400      0.0000 
      4 C4        -26.9610   64.3500   25.6060 C.ar      1 AAI400      0.0000 
      5 N5        -26.0850   63.7380   26.4860 N.2       1 AAI400      0.0000 
      6 C6        -26.8180   66.0740   23.8240 C.ar      1 AAI400      0.0000 
      7 C7        -28.2260   65.9160   23.6140 C.ar      1 AAI400      0.0000 
      8 C8        -28.9780   64.9920   24.3890 C.ar      1 AAI400      0.0000 
      9 C9        -28.3310   64.2120   25.3860 C.ar      1 AAI400      0.0000 
     10 C10       -26.0900   67.0640   22.9750 C.2       1 AAI400      0.0000 
     11 N11       -24.7680   67.1630   23.1620 N.am      1 AAI400      0.0000 
     12 O12       -26.6380   67.7780   22.1380 O.2       1 AAI400      0.0000 
     13 C13       -23.6070   63.8700   27.0030 C.3       1 AAI400      0.0000 
     14 C14       -23.1630   65.0110   27.9420 C.3       1 AAI400      0.0000 
     15 C15       -21.9360   64.5860   28.7820 C.3       1 AAI400      0.0000 
     16 N16       -22.1970   63.3540   29.5870 N.4       1 AAI400      0.0000 
     17 C17       -22.6400   62.2200   28.7170 C.3       1 AAI400      0.0000 
     18 C18       -23.8530   62.5720   27.8200 C.3       1 AAI400      0.0000 
     19 C19       -21.0040   62.9840   30.4080 C.3       1 AAI400      0.0000 
     20 C20       -19.7140   62.6330   29.6230 C.3       1 AAI400      0.0000 
     21 C21       -18.5410   62.2900   30.5470 C.3       1 AAI400      0.0000 
     22 H         -24.1458   65.6927   24.9398 H         1 AAI400      0.0000 
     23 H         -28.6910   66.4766   22.8972 H         1 AAI400      0.0000 
     24 H         -29.9775   64.8888   24.2307 H         1 AAI400      0.0000 
     25 H         -28.8837   63.5498   25.9382 H         1 AAI400      0.0000 
     26 H         -24.3732   66.5494   23.8458 H         1 AAI400      0.0000 
     27 H         -24.2939   67.8416   22.6011 H         1 AAI400      0.0000 
     28 H         -22.8174   63.6799   26.2971 H         1 AAI400      0.0000 
     29 H         -23.9803   65.2615   28.6103 H         1 AAI400      0.0000 
     30 H         -22.9017   65.8806   27.3480 H         1 AAI400      0.0000 
     31 H         -21.6691   65.4203   29.4426 H         1 AAI400      0.0000 
     32 H         -21.0948   64.4198   28.0975 H         1 AAI400      0.0000 
     33 H         -23.0263   63.5826   30.2863 H         1 AAI400      0.0000 
     34 H         -22.9162   61.3534   29.3373 H         1 AAI400      0.0000 
     35 H         -21.8143   61.9012   28.0623 H         1 AAI400      0.0000 
     36 H         -24.0352   61.7509   27.1306 H         1 AAI400      0.0000 
     37 H         -24.7303   62.7115   28.4474 H         1 AAI400      0.0000 
     38 H         -21.2497   62.1133   31.0579 H         1 AAI400      0.0000 
     39 H         -20.7564   63.8145   31.1078 H         1 AAI400      0.0000 
     40 H         -19.4436   63.4866   28.9962 H         1 AAI400      0.0000 
     41 H         -19.9229   61.7808   28.9714 H         1 AAI400      0.0000 
     42 H         -17.7139   62.0681   30.0305 H         1 AAI400      0.0000 
     43 H         -18.3120   63.0506   31.1545 H         1 AAI400      0.0000 
     44 H         -18.7440   61.5018   31.1280 H         1 AAI400      0.0000 
@<TRIPOS>BOND
     1    2    1 1    
     2    5    1 2    
     3   13    1 1    
     4    3    2 1    
     5   22    2 1    
     6    4    3 ar   
     7    6    3 ar   
     8    5    4 1    
     9    9    4 ar   
    10    7    6 ar   
    11   10    6 1    
    12    8    7 ar   
    13   23    7 1    
    14    9    8 ar   
    15   24    8 1    
    16   25    9 1    
    17   11   10 am   
    18   12   10 2    
    19   26   11 1    
    20   27   11 1    
    21   14   13 1    
    22   18   13 1    
    23   28   13 1    
    24   15   14 1    
    25   29   14 1    
    26   30   14 1    
    27   16   15 1    
    28   31   15 1    
    29   32   15 1    
    30   17   16 1    
    31   19   16 1    
    32   33   16 1    
    33   18   17 1    
    34   34   17 1    
    35   35   17 1    
    36   36   18 1    
    37   37   18 1    
    38   20   19 1    
    39   38   19 1    
    40   39   19 1    
    41   21   20 1    
    42   40   20 1    
    43   41   20 1    
    44   42   21 1    
    45   43   21 1    
    46   44   21 1    
@<TRIPOS>SUBSTRUCTURE
     1 AAI400      1 GROUP   
@<TRIPOS>SET

