#    Name: 3dj5_AK5_1_INTS_M
#    Modification time : Mon Mar 24 23:29:07 2014

@<TRIPOS>MOLECULE
3dj5_AK5_1_INTS_M
  101     0     9     0     0
SMALL
NO_CHARGES


@<TRIPOS>ATOM
      1 CA         59.9690   10.5025   23.9715 C.3       3 GLC5        0.0000 
      2 CA         60.4240   11.9660   22.4590 C.3       9 GLL5        0.0000 
      3 CA         59.5140    9.0390   25.4840 C.3       6 GLP5        0.0000 
      4 CA         61.8145   21.2980   19.0230 C.3       3 GLC5        0.0000 
      5 CA         62.4940   19.4890   18.2730 C.3       9 GLL5        0.0000 
      6 CA         61.1350   23.1070   19.7730 C.3       6 GLP5        0.0000 
      7 CA         60.0790   18.9930   19.8605 C.3       3 GLC5        0.0000 
      8 CA         61.8160   18.4090   18.8550 C.3       9 GLL5        0.0000 
      9 CA         58.3420   19.5770   20.8660 C.3       6 GLP5        0.0000 
     10 CA         60.0230   26.9170   17.3960 C.3       3 GLC5        0.0000 
     11 CA         60.6190   26.3200   15.5930 C.3       9 GLL5        0.0000 
     12 CA         59.4270   27.5140   19.1990 C.3       6 GLP5        0.0000 
     13 CA         62.1085   25.0500   15.7275 C.3       3 GLC5        0.0000 
     14 CA         63.5980   23.7800   15.8620 C.3       6 GLP5        0.0000 
     15 CA         61.3230   28.1165   16.0400 C.3       3 GLC5        0.0000 
     16 CA         62.0270   29.9130   16.4870 C.3       6 GLP5        0.0000 
     17 CA         61.1240   25.3075   14.0210 C.3       3 GLC5        0.0000 
     18 CA         61.6290   24.2950   12.4490 C.3       6 GLP5        0.0000 
     19 CA         60.8410   27.5745   12.9360 C.3       3 GLC5        0.0000 
     20 CA         59.1140   26.8530   13.8730 C.3       9 GLL5        0.0000 
     21 CA         62.5680   28.2960   11.9990 C.3       6 GLP5        0.0000 
     22 CA         57.6775   21.2560   16.1090 C.3       3 GLC5        0.0000 
     23 CA         59.0390   22.4910   16.5760 C.3       9 GLL5        0.0000 
     24 CA         56.3160   20.0210   15.6420 C.3       6 GLP5        0.0000 
     25 CA         57.4980   22.2695   17.7610 C.3       3 GLC5        0.0000 
     26 CA         55.9570   22.0480   18.9460 C.3       6 GLP5        0.0000 
     27 CA         59.1885   20.6365   15.0285 C.3       3 GLC5        0.0000 
     28 CA         60.2240   21.6350   16.0900 C.3       9 GLL5        0.0000 
     29 CA         58.1530   19.6380   13.9670 C.3       6 GLP5        0.0000 
     30 CA         61.9110   22.7075   15.9760 C.3       3 GLC5        0.0000 
     31 CA         61.6840   21.3145   14.4580 C.3       3 GLC5        0.0000 
     32 CA         63.1440   20.9940   12.8260 C.3       6 GLP5        0.0000 
     33 CA         55.7345   25.9410   14.5710 C.3       3 GLC5        0.0000 
     34 CA         56.9960   25.1560   13.0000 C.3       9 GLL5        0.0000 
     35 CA         54.4730   26.7260   16.1420 C.3       6 GLP5        0.0000 
     36 CA         54.9895   24.4760   13.0400 C.3       3 GLC5        0.0000 
     37 CA         52.9830   23.7960   13.0800 C.3       6 GLP5        0.0000 
     38 CA         56.9200   23.1700   12.5280 C.3       3 GLC5        0.0000 
     39 CA         56.8440   21.1840   12.0560 C.3       6 GLP5        0.0000 
     40 CA         58.5265   24.9920   11.7850 C.3       3 GLC5        0.0000 
     41 CA         60.0570   24.8280   10.5700 C.3       6 GLP5        0.0000 
     42 O          59.4505   28.8610   12.3175 O.2       1 ALC1        0.0000 
     43 O          58.6510   27.7070   12.9150 O.2       7 ALL1        0.0000 
     44 O          60.2500   30.0150   11.7200 O.2       4 ALP1        0.0000 
     45 N          61.1145   28.3095   14.3775 N.am      2 SEC2        0.0000 
     46 N          60.1790   27.1740   14.6450 N.am      8 SEL2        0.0000 
     47 N          62.0500   29.4450   14.1100 N.am      5 SEP2        0.0000 
     48 CA         57.5315   21.7415   14.7635 C.3       3 GLC5        0.0000 
     49 CA         58.1420   23.2670   15.2480 C.3       9 GLL5        0.0000 
     50 CA         56.9210   20.2160   14.2790 C.3       6 GLP5        0.0000 
     51 CA         57.3850   23.8645   17.1005 C.3       3 GLC5        0.0000 
     52 CA         56.6280   24.4620   18.9530 C.3       6 GLP5        0.0000 
     53 N          58.9580   18.7610   18.5190 N.am      2 SEC2        0.0000 
     54 N          59.7220   19.9040   17.6650 N.am      8 SEL2        0.0000 
     55 N          58.1940   17.6180   19.3730 N.am      5 SEP2        0.0000 
     56 CA         64.7115   22.4425   17.1125 C.3       3 GLC5        0.0000 
     57 CA         65.8250   21.1050   18.3630 C.3       9 GLL5        0.0000 
     58 CA         66.7860   21.6035   20.1760 C.3       3 GLC5        0.0000 
     59 CA         67.7470   22.1020   21.9890 C.3       6 GLP5        0.0000 
     60 CA         64.6025   21.9430   19.6025 C.3       3 GLC5        0.0000 
     61 CA         63.3800   22.7810   20.8420 C.3       6 GLP5        0.0000 
     62 CA         65.8415   19.6785   17.1475 C.3       3 GLC5        0.0000 
     63 CA         65.8580   18.2520   15.9320 C.3       6 GLP5        0.0000 
     64 N          59.3275   17.0400   19.8945 N.am      2 SEC2        0.0000 
     65 N          60.4610   16.4620   20.4160 N.am      8 SEL2        0.0000 
     66 O          63.7915   14.9875   20.4980 O.2       1 ALC1        0.0000 
     67 O          62.3660   15.3430   20.8470 O.2       7 ALL1        0.0000 
     68 O          65.2170   14.6320   20.1490 O.2       4 ALP1        0.0000 
     69 CA         60.9225   10.8405   19.9135 C.3       3 GLC5        0.0000 
     70 CA         61.5610   11.8110   21.6690 C.3       9 GLL5        0.0000 
     71 CA         60.2840    9.8700   18.1580 C.3       6 GLP5        0.0000 
     72 CA         58.8867   15.0527   23.1808 C.3       3 GLC5        0.0000 
     73 CA         59.9230   13.2330   22.7220 C.3       9 GLL5        0.0000 
     74 CA         57.5290   16.3110   23.9020 C.3       6 GLP5        0.0000 
     75 CA         61.7393   14.0378   23.5453 C.3       3 GLC5        0.0000 
     76 CA         60.5660   14.3560   22.1970 C.3       9 GLL5        0.0000 
     77 CA         63.2340   14.2810   24.6310 C.3       6 GLP5        0.0000 
     78 CA         59.1728   12.4473   24.4558 C.3       3 GLC5        0.0000 
     79 CA         58.1720   12.2950   26.3210 C.3       6 GLP5        0.0000 
     80 CA         62.1133   13.0847   23.3475 C.3       3 GLC5        0.0000 
     81 CA         62.5945   13.9300   22.9507 C.3       3 GLC5        0.0000 
     82 CA         62.2020   12.9390   21.1410 C.3       9 GLL5        0.0000 
     83 CA         61.2615   13.9860   19.4227 C.3       3 GLC5        0.0000 
     84 CA         61.7080   14.2190   21.4000 C.3       9 GLL5        0.0000 
     85 CA         60.5680   14.3930   17.5750 C.3       6 GLP5        0.0000 
     86 CA         64.4373   17.3185   18.4477 C.3       3 GLC5        0.0000 
     87 CA         63.7700   17.8200   20.1350 C.3       9 GLL5        0.0000 
     88 CA         64.7630   16.2780   17.0470 C.3       6 GLP5        0.0000 
     89 CA         63.7565   21.0463   19.9700 C.3       3 GLC5        0.0000 
     90 CA         64.4530   18.8980   19.5620 C.3       9 GLL5        0.0000 
     91 CA         63.4463   17.1345   18.1840 C.3       3 GLC5        0.0000 
     92 CA         61.3487   16.1920   18.4480 C.3       3 GLC5        0.0000 
     93 CA         62.4430   17.5730   19.7870 C.3       9 GLL5        0.0000 
     94 CA         63.9583   17.9425   17.7503 C.3       3 GLC5        0.0000 
     95 CA         62.1756   18.4709   21.3535 C.3       3 GLC5        0.0000 
     96 CA         61.8900   18.8890   23.2990 C.3       6 GLP5        0.0000 
     97 CA         57.5717   27.2015   15.4280 C.3       3 GLC5        0.0000 
     98 CA         58.4790   25.6350   14.0710 C.3       9 GLL5        0.0000 
     99 CA         56.3470   28.1590   16.8840 C.3       6 GLP5        0.0000 
    100 CA         60.2499   24.8998   13.4790 C.3       3 GLC5        0.0000 
    101 CA         60.3833   22.5850   18.0530 C.3       3 GLC5        0.0000 
@<TRIPOS>BOND
@<TRIPOS>SUBSTRUCTURE
     1 ALC1       42 GROUP        1 X    ALC  0     ROOT ALC X 1
     2 SEC2       45 GROUP        1 X    SEC  0     **** SEC X 2
     3 GLC5        1 GROUP        1 X    GLC  0     **** GLC X 6
     4 ALP1       44 GROUP        1 Y    ALP  0     ROOT ALP Y 8
     5 SEP2       47 GROUP        1 Y    SEP  0     **** SEP Y 9
     6 GLP5        3 GROUP        1 Y    GLP  0     **** GLP Y 13
     7 ALL1       43 GROUP        1 Z    ALL  0     ROOT ALL Z 15
     8 SEL2       46 GROUP        1 Z    SEL  0     **** SEL Z 16
     9 GLL5        2 GROUP        1 Z    GLL  0     **** GLL Z 20
@<TRIPOS>SET

