#    Name: 3dj5_AK5_1_ligand
#    Modification time : Mon Mar 24 23:29:07 2014

@<TRIPOS>MOLECULE
3dj5_AK5_1_ligand
   51    53     1     0     0
SMALL
NO_CHARGES


@<TRIPOS>ATOM
      1 C28        60.5660   14.3560   22.1970 C.ar      1 AK51        0.0000 
      2 C27        59.9230   13.2330   22.7220 C.ar      1 AK51        0.0000 
      3 C26        60.4240   11.9660   22.4590 C.ar      1 AK51        0.0000 
      4 C24        62.2020   12.9390   21.1410 C.ar      1 AK51        0.0000 
      5 C23        61.7080   14.2190   21.4000 C.ar      1 AK51        0.0000 
      6 C16        63.7700   17.8200   20.1350 C.ar      1 AK51        0.0000 
      7 C17        64.4530   18.8980   19.5620 C.ar      1 AK51        0.0000 
      8 O19        64.4590   20.7870   18.0550 O.3       1 AK51        0.0000 
      9 C20        61.6870   16.4100   20.3850 C.2       1 AK51        0.0000 
     10 C15        62.4430   17.5730   19.7870 C.ar      1 AK51        0.0000 
     11 C13        62.4940   19.4890   18.2730 C.ar      1 AK51        0.0000 
     12 C14        61.8160   18.4090   18.8550 C.ar      1 AK51        0.0000 
     13 C9         60.6190   26.3200   15.5930 C.ar      1 AK51        0.0000 
     14 C7         59.1140   26.8530   13.8730 C.ar      1 AK51        0.0000 
     15 C5         58.9450   24.7650   15.0460 C.ar      1 AK51        0.0000 
     16 C6         58.4790   25.6350   14.0710 C.ar      1 AK51        0.0000 
     17 C3         60.5940   20.5650   17.1200 C.2       1 AK51        0.0000 
     18 C2         59.0390   22.4910   16.5760 C.3       1 AK51        0.0000 
     19 C1         60.2240   21.6350   16.0900 C.3       1 AK51        0.0000 
     20 BR30       56.9960   25.1560   13.0000 Br        1 AK51        0.0000 
     21 N31        58.6510   27.7070   12.9150 N.pl3     1 AK51        0.0000 
     22 N8         60.1790   27.1740   14.6450 N.ar      1 AK51        0.0000 
     23 N10        60.0200   25.1320   15.7900 N.ar      1 AK51        0.0000 
     24 S4         58.1420   23.2670   15.2480 S.3       1 AK51        0.0000 
     25 O12        59.7220   19.9040   17.6650 O.2       1 AK51        0.0000 
     26 N11        61.9040   20.3880   17.3450 N.am      1 AK51        0.0000 
     27 C18        63.8130   19.7250   18.6340 C.ar      1 AK51        0.0000 
     28 C29        65.8250   21.1050   18.3630 C.3       1 AK51        0.0000 
     29 O21        60.4610   16.4620   20.4160 O.2       1 AK51        0.0000 
     30 N22        62.3660   15.3430   20.8470 N.am      1 AK51        0.0000 
     31 C25        61.5610   11.8110   21.6690 C.ar      1 AK51        0.0000 
     32 H          60.1961   15.2972   22.3982 H         1 AK51        0.0000 
     33 H          59.0829   13.3486   23.3000 H         1 AK51        0.0000 
     34 H          59.9553   11.1354   22.8482 H         1 AK51        0.0000 
     35 H          63.0419   12.8215   20.5589 H         1 AK51        0.0000 
     36 H          64.2473   17.2130   20.8105 H         1 AK51        0.0000 
     37 H          65.4292   19.0825   19.8245 H         1 AK51        0.0000 
     38 H          60.8331   18.2265   18.5903 H         1 AK51        0.0000 
     39 H          61.4430   26.5895   16.1857 H         1 AK51        0.0000 
     40 H          59.3497   23.3224   17.1833 H         1 AK51        0.0000 
     41 H          58.2854   21.9096   17.0767 H         1 AK51        0.0000 
     42 H          59.9518   21.1541   15.1519 H         1 AK51        0.0000 
     43 H          61.0819   22.2831   15.9188 H         1 AK51        0.0000 
     44 H          57.6720   27.6574   12.7173 H         1 AK51        0.0000 
     45 H          59.3314   28.3074   12.4948 H         1 AK51        0.0000 
     46 H          62.6088   20.9766   16.7761 H         1 AK51        0.0000 
     47 H          63.4105   15.3160   20.8091 H         1 AK51        0.0000 
     48 H          61.9303   10.8752   21.4726 H         1 AK51        0.0000 
     49 H          66.4419   20.3511   18.1371 H         1 AK51        0.0000 
     50 H          66.1432   21.9061   17.8560 H         1 AK51        0.0000 
     51 H          65.9498   21.3046   19.3349 H         1 AK51        0.0000 
@<TRIPOS>BOND
     1    2    1 ar   
     2    5    1 ar   
     3   32    1 1    
     4    3    2 ar   
     5   33    2 1    
     6   31    3 ar   
     7   34    3 1    
     8    5    4 ar   
     9   31    4 ar   
    10   35    4 1    
    11   30    5 1    
    12    7    6 ar   
    13   10    6 ar   
    14   36    6 1    
    15   27    7 ar   
    16   37    7 1    
    17   27    8 1    
    18   28    8 1    
    19   10    9 1    
    20   29    9 2    
    21   30    9 am   
    22   12   10 ar   
    23   12   11 ar   
    24   26   11 1    
    25   27   11 ar   
    26   38   12 1    
    27   22   13 ar   
    28   23   13 ar   
    29   39   13 1    
    30   16   14 ar   
    31   21   14 1    
    32   22   14 ar   
    33   16   15 ar   
    34   23   15 ar   
    35   24   15 1    
    36   20   16 1    
    37   19   17 1    
    38   25   17 2    
    39   26   17 am   
    40   19   18 1    
    41   24   18 1    
    42   40   18 1    
    43   41   18 1    
    44   42   19 1    
    45   43   19 1    
    46   44   21 1    
    47   45   21 1    
    48   46   26 1    
    49   49   28 1    
    50   50   28 1    
    51   51   28 1    
    52   47   30 1    
    53   48   31 1    
@<TRIPOS>SUBSTRUCTURE
     1 AK51        1 GROUP   
@<TRIPOS>SET

