#    Name: 4jx7_1N6_1_INTS_M
#    Modification time : Tue Mar 25 06:40:11 2014

@<TRIPOS>MOLECULE
4jx7_1N6_1_INTS_M
   59     0     6     0     0
SMALL
NO_CHARGES


@<TRIPOS>ATOM
      1 CA         20.1170  -43.3075   -4.6215 C.3       2 GLC5        0.0000 
      2 CA         20.4030  -41.4230   -4.7580 C.3       6 GLL5        0.0000 
      3 CA         19.8310  -45.1920   -4.4850 C.3       4 GLP5        0.0000 
      4 CA         18.4030  -41.5530   -4.6490 C.3       2 GLC5        0.0000 
      5 CA         16.4030  -41.6830   -4.5400 C.3       4 GLP5        0.0000 
      6 CA         24.7020  -40.5140    0.4325 C.3       2 GLC5        0.0000 
      7 CA         23.6670  -40.7110   -1.3040 C.3       6 GLL5        0.0000 
      8 CA         25.7370  -40.3170    2.1690 C.3       4 GLP5        0.0000 
      9 O          21.0815  -39.6450    4.9660 O.2       1 ALC1        0.0000 
     10 O          20.5940  -39.0470    3.7470 O.2       5 ALL1        0.0000 
     11 O          21.5690  -40.2430    6.1850 O.2       3 ALP1        0.0000 
     12 CA         18.8455  -38.8105    5.5205 C.3       2 GLC5        0.0000 
     13 CA         19.7540  -38.0380    3.9540 C.3       6 GLL5        0.0000 
     14 CA         17.9370  -39.5830    7.0870 C.3       4 GLP5        0.0000 
     15 CA         20.1210  -37.3660    5.7735 C.3       2 GLC5        0.0000 
     16 CA         20.4880  -36.6940    7.5930 C.3       4 GLP5        0.0000 
     17 CA         19.4250  -36.0200    4.6085 C.3       2 GLC5        0.0000 
     18 CA         19.2560  -37.3000    2.8910 C.3       6 GLL5        0.0000 
     19 CA         19.5940  -34.7400    6.3260 C.3       4 GLP5        0.0000 
     20 CA         17.5975  -37.9495    0.9730 C.3       2 GLC5        0.0000 
     21 CA         19.6320  -37.6160    1.5850 C.3       6 GLL5        0.0000 
     22 CA         15.5630  -38.2830    0.3610 C.3       4 GLP5        0.0000 
     23 CA         21.6815  -37.1045   -0.7290 C.3       2 GLC5        0.0000 
     24 CA         19.4540  -37.1830   -0.7250 C.3       6 GLL5        0.0000 
     25 CA         23.9090  -37.0260   -0.7330 C.3       4 GLP5        0.0000 
     26 CA         20.4840  -35.5825    0.3125 C.3       2 GLC5        0.0000 
     27 CA         21.5140  -33.9820    1.3500 C.3       4 GLP5        0.0000 
     28 CA         17.5085  -37.7330   -0.1820 C.3       2 GLC5        0.0000 
     29 CA         21.3730  -35.6100   -3.3365 C.3       2 GLC5        0.0000 
     30 CA         19.1890  -35.5330   -3.8510 C.3       6 GLL5        0.0000 
     31 CA         23.5570  -35.6870   -2.8220 C.3       4 GLP5        0.0000 
     32 CA         18.1255  -33.6440   -3.4275 C.3       2 GLC5        0.0000 
     33 CA         17.0620  -31.7550   -3.0040 C.3       4 GLP5        0.0000 
     34 CA         22.3225  -42.2015   -2.0718 C.3       2 GLC5        0.0000 
     35 CA         21.6370  -40.4090   -2.5590 C.3       6 GLL5        0.0000 
     36 CA         22.6750  -43.7920   -0.9990 C.3       4 GLP5        0.0000 
     37 CA         24.7270  -39.2665   -2.8645 C.3       2 GLC5        0.0000 
     38 CA         24.3500  -41.1130   -2.4670 C.3       6 GLL5        0.0000 
     39 CA         25.4470  -37.3950   -2.6540 C.3       4 GLP5        0.0000 
     40 CA         23.3410  -42.4650   -2.0370 C.3       2 GLC5        0.0000 
     41 CA         23.3651  -38.7845   -1.1796 C.3       2 GLC5        0.0000 
     42 CA         22.8328  -42.1590   -1.1600 C.3       2 GLC5        0.0000 
     43 CA         22.3140  -40.3410   -1.3380 C.3       6 GLL5        0.0000 
     44 CA         22.2975  -37.9177   -0.0390 C.3       2 GLC5        0.0000 
     45 CA         20.8550  -38.9490   -0.0160 C.3       6 GLL5        0.0000 
     46 CA         21.5932  -37.4855    2.6188 C.3       2 GLC5        0.0000 
     47 CA         20.5170  -38.6700    1.3260 C.3       6 GLL5        0.0000 
     48 CA         23.1120  -36.8280    3.7820 C.3       4 GLP5        0.0000 
     49 CA         21.3085  -37.2485    3.6023 C.3       2 GLC5        0.0000 
     50 CA         18.9100  -39.5500    2.4497 C.3       2 GLC5        0.0000 
     51 CA         18.3150  -41.4310    1.4770 C.3       4 GLP5        0.0000 
     52 CA         17.6735  -38.6180    3.3173 C.3       2 GLC5        0.0000 
     53 CA         15.8420  -39.5670    3.2120 C.3       4 GLP5        0.0000 
     54 CA         20.4790  -35.7200    1.7940 C.3       2 GLC5        0.0000 
     55 CA         19.2370  -39.8219    1.2985 C.3       2 GLC5        0.0000 
     56 CA         20.0415  -34.0523   -4.8710 C.3       2 GLC5        0.0000 
     57 CA         21.2000  -32.6050   -5.1930 C.3       4 GLP5        0.0000 
     58 CA         17.3027  -39.8147   -4.4130 C.3       2 GLC5        0.0000 
     59 CA         18.4610  -37.9400   -3.5590 C.3       6 GLL5        0.0000 
@<TRIPOS>BOND
@<TRIPOS>SUBSTRUCTURE
     1 ALC1        9 GROUP        1 X    ALC  0     ROOT ALC X 1
     2 GLC5        1 GROUP        1 X    GLC  0     **** GLC X 6
     3 ALP1       11 GROUP        1 Y    ALP  0     ROOT ALP Y 8
     4 GLP5        3 GROUP        1 Y    GLP  0     **** GLP Y 13
     5 ALL1       10 GROUP        1 Z    ALL  0     ROOT ALL Z 15
     6 GLL5        2 GROUP        1 Z    GLL  0     **** GLL Z 20
@<TRIPOS>SET

