#    Name: 4jx7_1N6_1_ligand
#    Modification time : Tue Mar 25 06:40:11 2014

@<TRIPOS>MOLECULE
4jx7_1N6_1_ligand
   52    55     1     0     0
SMALL
NO_CHARGES


@<TRIPOS>ATOM
      1 FAC        22.2860  -41.6210   -5.8780 F         1 1N6401      0.0000 
      2 CBD        21.5900  -40.8570   -4.9470 C.3       1 1N6401      0.0000 
      3 FAD        20.4030  -41.4230   -4.7580 F         1 1N6401      0.0000 
      4 FAE        21.3960  -39.5570   -5.4060 F         1 1N6401      0.0000 
      5 CAV        22.3030  -40.8130   -3.7300 C.ar      1 1N6401      0.0000 
      6 CAK        21.6370  -40.4090   -2.5590 C.ar      1 1N6401      0.0000 
      7 CAI        23.6640  -41.1630   -3.6830 C.ar      1 1N6401      0.0000 
      8 CAF        24.3500  -41.1130   -2.4670 C.ar      1 1N6401      0.0000 
      9 CAH        23.6670  -40.7110   -1.3040 C.ar      1 1N6401      0.0000 
     10 CAU        22.3140  -40.3410   -1.3380 C.ar      1 1N6401      0.0000 
     11 NAR        21.7100  -39.9900   -0.1840 N.pl3     1 1N6401      0.0000 
     12 C6         20.8550  -38.9490   -0.0160 C.ar      1 1N6401      0.0000 
     13 N1         20.3180  -38.1920   -1.0210 N.ar      1 1N6401      0.0000 
     14 C5         20.5170  -38.6700    1.3260 C.ar      1 1N6401      0.0000 
     15 CAY        21.0130  -39.4050    2.4310 C.2       1 1N6401      0.0000 
     16 OAB        21.8000  -40.3590    2.2860 O.2       1 1N6401      0.0000 
     17 NAT        20.5940  -39.0470    3.7470 N.am      1 1N6401      0.0000 
     18 CAG        19.7540  -38.0380    3.9540 C.2       1 1N6401      0.0000 
     19 CAJ        19.2560  -37.3000    2.8910 C.2       1 1N6401      0.0000 
     20 C4         19.6320  -37.6160    1.5850 C.ar      1 1N6401      0.0000 
     21 N3         19.1370  -36.9000    0.5620 N.ar      1 1N6401      0.0000 
     22 C2         19.4540  -37.1830   -0.7250 C.ar      1 1N6401      0.0000 
     23 NAS        18.8940  -36.3490   -1.6100 N.pl3     1 1N6401      0.0000 
     24 CBC        18.3950  -36.5190   -2.9820 C.3       1 1N6401      0.0000 
     25 CAN        19.1890  -35.5330   -3.8510 C.3       1 1N6401      0.0000 
     26 CAL        18.5770  -35.4660   -5.2470 C.3       1 1N6401      0.0000 
     27 CBB        18.6310  -36.8560   -5.8910 C.3       1 1N6401      0.0000 
     28 NAA        18.0680  -36.7850   -7.2340 N.4       1 1N6401      0.0000 
     29 CAM        17.9440  -37.9530   -5.0130 C.3       1 1N6401      0.0000 
     30 CAO        18.4610  -37.9400   -3.5590 C.3       1 1N6401      0.0000 
     31 H          20.6383  -40.1610   -2.6056 H         1 1N6401      0.0000 
     32 H          24.1459  -41.4523   -4.5372 H         1 1N6401      0.0000 
     33 H          25.3375  -41.3648   -2.4176 H         1 1N6401      0.0000 
     34 H          24.1761  -40.6884   -0.4038 H         1 1N6401      0.0000 
     35 H          21.9245  -40.5912    0.6897 H         1 1N6401      0.0000 
     36 H          20.9780  -39.6138    4.5333 H         1 1N6401      0.0000 
     37 H          19.4500  -37.7779    4.9192 H         1 1N6401      0.0000 
     38 H          18.6092  -36.5189    3.0611 H         1 1N6401      0.0000 
     39 H          18.7594  -35.2868   -1.2720 H         1 1N6401      0.0000 
     40 H          17.3475  -36.1766   -3.0261 H         1 1N6401      0.0000 
     41 H          20.2168  -35.8694   -3.9217 H         1 1N6401      0.0000 
     42 H          19.1571  -34.5509   -3.3938 H         1 1N6401      0.0000 
     43 H          19.1383  -34.7690   -5.8551 H         1 1N6401      0.0000 
     44 H          17.5460  -35.1459   -5.1752 H         1 1N6401      0.0000 
     45 H          19.6991  -37.1317   -5.9644 H         1 1N6401      0.0000 
     46 H          18.1427  -38.9264   -5.4577 H         1 1N6401      0.0000 
     47 H          16.8701  -37.7755   -5.0155 H         1 1N6401      0.0000 
     48 H          17.8460  -38.6010   -2.9587 H         1 1N6401      0.0000 
     49 H          19.4882  -38.2865   -3.5455 H         1 1N6401      0.0000 
     50 H          18.5736  -36.1476   -7.8155 H         1 1N6401      0.0000 
     51 H          18.0840  -37.6744   -7.6909 H         1 1N6401      0.0000 
     52 H          17.1161  -36.4787   -7.2220 H         1 1N6401      0.0000 
@<TRIPOS>BOND
     1    2    1 1    
     2    3    2 1    
     3    4    2 1    
     4    5    2 1    
     5    6    5 ar   
     6    7    5 ar   
     7   10    6 ar   
     8   31    6 1    
     9    8    7 ar   
    10   32    7 1    
    11    9    8 ar   
    12   33    8 1    
    13   10    9 ar   
    14   34    9 1    
    15   11   10 1    
    16   12   11 1    
    17   35   11 1    
    18   13   12 ar   
    19   14   12 ar   
    20   22   13 ar   
    21   15   14 1    
    22   20   14 ar   
    23   16   15 2    
    24   17   15 am   
    25   18   17 1    
    26   36   17 1    
    27   19   18 2    
    28   37   18 1    
    29   20   19 1    
    30   38   19 1    
    31   21   20 ar   
    32   22   21 ar   
    33   23   22 1    
    34   24   23 1    
    35   39   23 1    
    36   25   24 1    
    37   30   24 1    
    38   40   24 1    
    39   26   25 1    
    40   41   25 1    
    41   42   25 1    
    42   27   26 1    
    43   43   26 1    
    44   44   26 1    
    45   28   27 1    
    46   29   27 1    
    47   45   27 1    
    48   50   28 1    
    49   51   28 1    
    50   52   28 1    
    51   30   29 1    
    52   46   29 1    
    53   47   29 1    
    54   48   30 1    
    55   49   30 1    
@<TRIPOS>SUBSTRUCTURE
     1 1N6401      1 GROUP   
@<TRIPOS>SET

