#    Name: 3l4d_TPF_2_INTS_M
#    Modification time : Mon Mar 24 20:57:55 2014

@<TRIPOS>MOLECULE
3l4d_TPF_2_INTS_M
   26     0     3     0     0
SMALL
NO_CHARGES


@<TRIPOS>ATOM
      1 CA         62.8835  -31.8345  -23.9120 C.3       1 GLC5        0.0000 
      2 CA         62.6030  -32.0170  -21.7570 C.3       3 GLL5        0.0000 
      3 CA         63.1640  -31.6520  -26.0670 C.3       2 GLP5        0.0000 
      4 CA         61.3110  -30.5690  -22.1440 C.3       1 GLC5        0.0000 
      5 CA         60.0190  -29.1210  -22.5310 C.3       2 GLP5        0.0000 
      6 CA         62.2460  -31.6430  -18.4830 C.3       1 GLC5        0.0000 
      7 CA         63.8750  -32.4360  -19.6110 C.3       3 GLL5        0.0000 
      8 CA         60.6170  -30.8500  -17.3550 C.3       2 GLP5        0.0000 
      9 CA         64.8355  -31.2320  -18.2455 C.3       1 GLC5        0.0000 
     10 CA         65.7960  -30.0280  -16.8800 C.3       2 GLP5        0.0000 
     11 CA         63.7670  -26.4950  -21.0970 C.3       1 GLC5        0.0000 
     12 CA         65.8240  -26.7030  -20.8720 C.3       3 GLL5        0.0000 
     13 CA         61.7100  -26.2870  -21.3220 C.3       2 GLP5        0.0000 
     14 CA         62.2570  -29.9980  -17.9130 C.3       1 GLC5        0.0000 
     15 CA         63.2210  -30.1980  -19.0620 C.3       3 GLL5        0.0000 
     16 CA         61.2930  -29.7980  -16.7640 C.3       2 GLP5        0.0000 
     17 CA         64.0888  -34.0665  -20.7440 C.3       1 GLC5        0.0000 
     18 CA         63.9650  -31.9990  -21.0690 C.3       3 GLL5        0.0000 
     19 CA         64.5980  -35.9110  -20.9760 C.3       2 GLP5        0.0000 
     20 CA         64.7650  -26.1593  -19.6191 C.3       1 GLC5        0.0000 
     21 CA         65.3840  -27.9730  -20.9290 C.3       3 GLL5        0.0000 
     22 CA         64.4690  -24.4280  -18.8110 C.3       2 GLP5        0.0000 
     23 CA         61.9361  -29.1075  -20.1754 C.3       1 GLC5        0.0000 
     24 CA         64.0650  -29.7530  -20.0130 C.3       3 GLL5        0.0000 
     25 CA         60.1160  -28.5670  -20.8280 C.3       2 GLP5        0.0000 
     26 CA         64.8017  -29.8903  -18.2657 C.3       1 GLC5        0.0000 
@<TRIPOS>BOND
@<TRIPOS>SUBSTRUCTURE
     1 GLC5        1 GROUP        1 X    GLC  0     ROOT GLC X 6
     2 GLP5        3 GROUP        1 Y    GLP  0     ROOT GLP Y 13
     3 GLL5        2 GROUP        1 Z    GLL  0     ROOT GLL Z 20
@<TRIPOS>SET

