#    Name: 3l4d_TPF_2_ligand
#    Modification time : Mon Mar 24 20:57:55 2014

@<TRIPOS>MOLECULE
3l4d_TPF_2_ligand
   34    36     1     0     0
SMALL
NO_CHARGES


@<TRIPOS>ATOM
      1 O          64.8420  -32.8660  -21.7910 O.3       1 TPF490      0.0000 
      2 C1         63.9650  -31.9990  -21.0690 C.3       1 TPF490      0.0000 
      3 C2         62.6030  -32.0170  -21.7570 C.3       1 TPF490      0.0000 
      4 C5         63.8750  -32.4360  -19.6110 C.3       1 TPF490      0.0000 
      5 C8         64.4740  -30.5900  -21.0420 C.ar      1 TPF490      0.0000 
      6 N1         62.0310  -33.3650  -21.6080 N.pl3     1 TPF490      0.0000 
      7 C3         60.6180  -33.3070  -21.2910 C.2       1 TPF490      0.0000 
      8 N3         62.1490  -34.1180  -22.7950 N.2       1 TPF490      0.0000 
      9 N2         59.9930  -34.0210  -22.2520 N.2       1 TPF490      0.0000 
     10 C4         60.8990  -34.5020  -23.1430 C.2       1 TPF490      0.0000 
     11 N4         64.9660  -33.3250  -19.1630 N.pl3     1 TPF490      0.0000 
     12 C6         66.2890  -33.1290  -19.7560 C.2       1 TPF490      0.0000 
     13 N6         65.1660  -33.2430  -17.7690 N.2       1 TPF490      0.0000 
     14 N5         67.1900  -33.0210  -18.7380 N.2       1 TPF490      0.0000 
     15 C7         66.5020  -33.0790  -17.5650 C.2       1 TPF490      0.0000 
     16 C9         65.3410  -30.1250  -22.0200 C.ar      1 TPF490      0.0000 
     17 C13        64.0650  -29.7530  -20.0130 C.ar      1 TPF490      0.0000 
     18 C10        65.7960  -28.8130  -21.9610 C.ar      1 TPF490      0.0000 
     19 C11        65.3840  -27.9730  -20.9290 C.ar      1 TPF490      0.0000 
     20 F1         65.8240  -26.7030  -20.8720 F         1 TPF490      0.0000 
     21 C12        64.5180  -28.4430  -19.9540 C.ar      1 TPF490      0.0000 
     22 F2         63.2210  -30.1980  -19.0620 F         1 TPF490      0.0000 
     23 H          62.7398  -31.7694  -22.8038 H         1 TPF490      0.0000 
     24 H          61.9675  -31.2741  -21.2879 H         1 TPF490      0.0000 
     25 H          62.8929  -32.9355  -19.4608 H         1 TPF490      0.0000 
     26 H          63.8465  -31.5220  -18.9783 H         1 TPF490      0.0000 
     27 H          60.2697  -32.8523  -20.5572 H         1 TPF490      0.0000 
     28 H          60.6770  -35.0461  -23.9213 H         1 TPF490      0.0000 
     29 H          66.4328  -33.0923  -20.6819 H         1 TPF490      0.0000 
     30 H          66.9194  -33.0107  -16.6773 H         1 TPF490      0.0000 
     31 H          65.6441  -30.7424  -22.7798 H         1 TPF490      0.0000 
     32 H          66.4402  -28.4593  -22.6823 H         1 TPF490      0.0000 
     33 H          64.2132  -27.8255  -19.1922 H         1 TPF490      0.0000 
     34 H          64.2542  -33.4393  -22.3617 H         1 TPF490      0.0000 
@<TRIPOS>BOND
     1    2    1 1    
     2   34    1 1    
     3    3    2 1    
     4    4    2 1    
     5    5    2 1    
     6    6    3 1    
     7   23    3 1    
     8   24    3 1    
     9   11    4 1    
    10   25    4 1    
    11   26    4 1    
    12   16    5 ar   
    13   17    5 ar   
    14    7    6 1    
    15    8    6 1    
    16    9    7 2    
    17   27    7 1    
    18   10    8 2    
    19   10    9 1    
    20   28   10 1    
    21   12   11 1    
    22   13   11 1    
    23   14   12 2    
    24   29   12 1    
    25   15   13 2    
    26   15   14 1    
    27   30   15 1    
    28   18   16 ar   
    29   31   16 1    
    30   21   17 ar   
    31   22   17 1    
    32   19   18 ar   
    33   32   18 1    
    34   20   19 1    
    35   21   19 ar   
    36   33   21 1    
@<TRIPOS>SUBSTRUCTURE
     1 TPF490      1 GROUP   
@<TRIPOS>SET

