#    Name: 4ie6_UN9_1_INTS_M
#    Modification time : Tue Mar 25 03:53:21 2014

@<TRIPOS>MOLECULE
4ie6_UN9_1_INTS_M
   48     0    12     0     0
SMALL
NO_CHARGES


@<TRIPOS>ATOM
      1 N          35.5510   -9.1230  -21.6545 N.am      1 SEC2        0.0000 
      2 N          34.0630   -8.9380  -22.0890 N.am      9 SEL2        0.0000 
      3 N          37.0390   -9.3080  -21.2200 N.am      5 SEP2        0.0000 
      4 N          33.8940   -9.9240  -21.2660 N.am      1 SEC2        0.0000 
      5 N          33.7250  -10.9100  -20.4430 N.am      5 SEP2        0.0000 
      6 NZ         35.6745   -7.7325  -19.9690 N.4       2 LYC4        0.0000 
      7 NZ         34.4600   -7.2550  -20.7290 N.4      10 LYL4        0.0000 
      8 NZ         37.4760   -9.1130  -19.9820 N.4       6 LYP4        0.0000 
      9 N          33.9165   -5.9610  -20.3190 N.am      1 SEC2        0.0000 
     10 N          34.4600   -7.2550  -20.7290 N.am      9 SEL2        0.0000 
     11 N          33.3730   -4.6670  -19.9090 N.am      5 SEP2        0.0000 
     12 N          35.7495   -8.2815  -20.9745 N.am      1 SEC2        0.0000 
     13 N          35.6745   -7.7325  -19.9690 N.am      1 SEC2        0.0000 
     14 N          36.8890   -8.2100  -19.2090 N.am      5 SEP2        0.0000 
     15 CA         34.0940   -6.4130  -23.2185 C.3       4 GLC5        0.0000 
     16 CA         32.5890   -7.0950  -22.2750 C.3      12 GLL5        0.0000 
     17 CA         35.5990   -5.7310  -24.1620 C.3       8 GLP5        0.0000 
     18 CA         31.4925   -8.1270  -21.2630 C.3       4 GLC5        0.0000 
     19 CA         30.3960   -9.1590  -20.2510 C.3       8 GLP5        0.0000 
     20 Zn         30.4055   -5.3110  -24.2895 Zn        3 ZIC7        0.0000 
     21 Zn         31.1180   -5.8770  -23.7740 Zn       11 ZIL7        0.0000 
     22 Zn         29.6930   -4.7450  -24.8050 Zn        7 ZIP7        0.0000 
     23 Zn         29.3930   -5.9070  -25.1070 Zn        3 ZIC7        0.0000 
     24 Zn         29.0930   -7.0690  -25.4090 Zn       11 ZIL7        0.0000 
     25 N          28.3270   -7.4965  -24.3665 N.am      1 SEC2        0.0000 
     26 N          29.0930   -7.0690  -25.4090 N.am      9 SEL2        0.0000 
     27 N          27.5610   -7.9240  -23.3240 N.am      5 SEP2        0.0000 
     28 CA         24.6690   -7.7945  -26.1765 C.3       4 GLC5        0.0000 
     29 CA         26.6610   -6.9010  -26.6770 C.3      12 GLL5        0.0000 
     30 CA         22.6770   -8.6880  -25.6760 C.3       8 GLP5        0.0000 
     31 CA         26.0105   -5.1060  -26.2985 C.3       4 GLC5        0.0000 
     32 CA         25.3600   -3.3110  -25.9200 C.3       8 GLP5        0.0000 
     33 CA         29.2145   -5.6670  -27.6670 C.3       4 GLC5        0.0000 
     34 CA         29.1070   -7.7890  -27.6620 C.3      12 GLL5        0.0000 
     35 CA         29.3220   -3.5450  -27.6720 C.3       8 GLP5        0.0000 
     36 N          32.2320   -9.4770  -26.9125 N.am      1 SEC2        0.0000 
     37 N          32.4290   -8.1580  -26.2700 N.am      9 SEL2        0.0000 
     38 N          32.0350  -10.7960  -27.5550 N.am      5 SEP2        0.0000 
     39 CA         28.4322   -5.3167  -27.1468 C.3       4 GLC5        0.0000 
     40 CA         28.4240   -7.2760  -26.5660 C.3      12 GLL5        0.0000 
     41 CA         32.1448   -7.1000  -27.7020 C.3       4 GLC5        0.0000 
     42 CA         30.4470   -8.0900  -27.5680 C.3      12 GLL5        0.0000 
     43 CA         33.5120   -6.2230  -28.4310 C.3       8 GLP5        0.0000 
     44 CA         32.1645   -7.4662  -28.8395 C.3       4 GLC5        0.0000 
     45 CA         31.1410   -8.5960  -28.6510 C.3      12 GLL5        0.0000 
     46 CA         28.9327   -8.5762  -31.7250 C.3       4 GLC5        0.0000 
     47 CA         30.4930   -8.8230  -29.8450 C.3      12 GLL5        0.0000 
     48 CA         28.0430   -8.4780  -33.5560 C.3       8 GLP5        0.0000 
@<TRIPOS>BOND
@<TRIPOS>SUBSTRUCTURE
     1 SEC2        1 GROUP        1 X    SEC  0     ROOT SEC X 2
     2 LYC4        6 GROUP        1 X    LYC  0     **** LYC X 4
     3 ZIC7       20 GROUP        1 X    ZIC  0     **** ZIC X 5
     4 GLC5       15 GROUP        1 X    GLC  0     **** GLC X 6
     5 SEP2        3 GROUP        1 Y    SEP  0     ROOT SEP Y 9
     6 LYP4        8 GROUP        1 Y    LYP  0     **** LYP Y 11
     7 ZIP7       22 GROUP        1 Y    ZIP  0     **** ZIP Y 12
     8 GLP5       17 GROUP        1 Y    GLP  0     **** GLP Y 13
     9 SEL2        2 GROUP        1 Z    SEL  0     ROOT SEL Z 16
    10 LYL4        7 GROUP        1 Z    LYL  0     **** LYL Z 18
    11 ZIL7       21 GROUP        1 Z    ZIL  0     **** ZIL Z 19
    12 GLL5       16 GROUP        1 Z    GLL  0     **** GLL Z 20
@<TRIPOS>SET

