#    Name: 4ie6_UN9_1_ligand
#    Modification time : Tue Mar 25 03:53:22 2014

@<TRIPOS>MOLECULE
4ie6_UN9_1_ligand
   27    28     1     0     0
SMALL
NO_CHARGES


@<TRIPOS>ATOM
      1 O18        34.0630   -8.9380  -22.0890 O.co2     1 UN9602      0.0000 
      2 C16        33.7560   -7.8190  -21.6960 C.2       1 UN9602      0.0000 
      3 O17        34.4600   -7.2550  -20.7290 O.co2     1 UN9602      0.0000 
      4 C15        32.5890   -7.0950  -22.2750 C.3       1 UN9602      0.0000 
      5 N14        31.8960   -7.8440  -23.3070 N.am      1 UN9602      0.0000 
      6 C12        31.1470   -7.0600  -24.0530 C.2       1 UN9602      0.0000 
      7 O13        31.1180   -5.8770  -23.7740 O.2       1 UN9602      0.0000 
      8 C9         30.4040   -7.3820  -25.3000 C.ar      1 UN9602      0.0000 
      9 N8         29.0930   -7.0690  -25.4090 N.ar      1 UN9602      0.0000 
     10 C7         28.4240   -7.2760  -26.5660 C.ar      1 UN9602      0.0000 
     11 CL1        26.6610   -6.9010  -26.6770 Cl        1 UN9602      0.0000 
     12 C2         29.1070   -7.7890  -27.6620 C.ar      1 UN9602      0.0000 
     13 C10        31.1080   -7.8640  -26.3780 C.ar      1 UN9602      0.0000 
     14 O19        32.4290   -8.1580  -26.2700 O.3       1 UN9602      0.0000 
     15 C3         30.4470   -8.0900  -27.5680 C.ar      1 UN9602      0.0000 
     16 C4         31.1410   -8.5960  -28.6510 C.ar      1 UN9602      0.0000 
     17 C5         30.4930   -8.8230  -29.8450 C.ar      1 UN9602      0.0000 
     18 C6         29.1520   -8.5260  -29.9430 C.ar      1 UN9602      0.0000 
     19 C1         28.4580   -8.0150  -28.8560 C.ar      1 UN9602      0.0000 
     20 H          32.9416   -6.1201  -22.6803 H         1 UN9602      0.0000 
     21 H          31.8864   -6.8378  -21.4509 H         1 UN9602      0.0000 
     22 H          32.0187   -8.8087  -23.3787 H         1 UN9602      0.0000 
     23 H          32.1494   -8.8040  -28.5624 H         1 UN9602      0.0000 
     24 H          31.0015   -9.2073  -30.6485 H         1 UN9602      0.0000 
     25 H          28.6518   -8.6843  -30.8365 H         1 UN9602      0.0000 
     26 H          27.4509   -7.8046  -28.9465 H         1 UN9602      0.0000 
     27 H          32.8954   -7.4530  -26.8043 H         1 UN9602      0.0000 
@<TRIPOS>BOND
     1    2    1 ar   
     2    3    2 ar   
     3    4    2 1    
     4    5    4 1    
     5   20    4 1    
     6   21    4 1    
     7    6    5 am   
     8   22    5 1    
     9    7    6 2    
    10    8    6 1    
    11    9    8 ar   
    12   13    8 ar   
    13   10    9 ar   
    14   11   10 1    
    15   12   10 ar   
    16   15   12 ar   
    17   19   12 ar   
    18   14   13 1    
    19   15   13 ar   
    20   27   14 1    
    21   16   15 ar   
    22   17   16 ar   
    23   23   16 1    
    24   18   17 ar   
    25   24   17 1    
    26   19   18 ar   
    27   25   18 1    
    28   26   19 1    
@<TRIPOS>SUBSTRUCTURE
     1 UN9602      1 GROUP   
@<TRIPOS>SET

