#    Name: 4bl1_ANP_1_INTS_M
#    Modification time : Tue Mar 25 07:51:52 2014

@<TRIPOS>MOLECULE
4bl1_ANP_1_INTS_M
   62     0    15     0     0
SMALL
NO_CHARGES


@<TRIPOS>ATOM
      1 CA         17.1060    8.6395    1.7400 C.3       5 GLC5        0.0000 
      2 CA         15.9090    7.2470    2.6020 C.3      15 GLL5        0.0000 
      3 CA         18.3030   10.0320    0.8780 C.3      10 GLP5        0.0000 
      4 CA         17.9335    7.2660    3.1445 C.3       5 GLC5        0.0000 
      5 CA         19.9580    7.2850    3.6870 C.3      10 GLP5        0.0000 
      6 CA         15.0735    5.4985    2.5190 C.3       5 GLC5        0.0000 
      7 CA         14.2380    3.7500    2.4360 C.3      10 GLP5        0.0000 
      8 CA         14.4080    6.8290    3.8460 C.3       5 GLC5        0.0000 
      9 CA         12.9070    6.4110    5.0900 C.3      10 GLP5        0.0000 
     10 CA         15.4105    5.0785    3.5955 C.3       5 GLC5        0.0000 
     11 CA         16.5830    6.4070    4.7550 C.3      15 GLL5        0.0000 
     12 N          16.4675    5.0710    2.4095 N.am      2 SEC2        0.0000 
     13 N          16.4650    6.2490    3.3370 N.am     12 SEL2        0.0000 
     14 N          16.4700    3.8930    1.4820 N.am      7 SEP2        0.0000 
     15 N          15.5210   16.1140   12.9200 N.am      2 SEC2        0.0000 
     16 N          15.2290   14.9000   12.2620 N.am     12 SEL2        0.0000 
     17 N          15.8130   17.3280   13.5780 N.am      7 SEP2        0.0000 
     18 O          10.8465   11.7075    4.6695 O.2       1 ALC1        0.0000 
     19 O          12.3200   11.4190    4.2060 O.2      11 ALL1        0.0000 
     20 O           9.3730   11.9960    5.1330 O.2       6 ALP1        0.0000 
     21 N          13.0140   16.5365   12.8610 N.am      2 SEC2        0.0000 
     22 N          12.2630   15.4220   13.5340 N.am     12 SEL2        0.0000 
     23 N          13.7650   17.6510   12.1880 N.am      7 SEP2        0.0000 
     24 O          10.4660   11.7965    6.0550 O.2       1 ALC1        0.0000 
     25 O          11.5590   11.5970    6.9770 O.2      11 ALL1        0.0000 
     26 CA         12.8645    9.6930    7.7290 C.3       5 GLC5        0.0000 
     27 CA         12.9390   11.4000    6.6310 C.3      15 GLL5        0.0000 
     28 CA         12.7900    7.9860    8.8270 C.3      10 GLP5        0.0000 
     29 CA         14.5020   13.6300    5.2005 C.3       5 GLC5        0.0000 
     30 CA         13.7740   12.6250    6.6820 C.3      15 GLL5        0.0000 
     31 CA         15.2300   14.6350    3.7190 C.3      10 GLP5        0.0000 
     32 CA         14.1160   14.7845    9.0250 C.3       5 GLC5        0.0000 
     33 CA         14.4350   12.9410    8.0250 C.3      15 GLL5        0.0000 
     34 CA         13.7970   16.6280   10.0250 C.3      10 GLP5        0.0000 
     35 NZ         16.0495   10.0610   11.8255 N.4       4 LYC4        0.0000 
     36 NZ         15.0590   10.2630   10.9640 N.4      14 LYL4        0.0000 
     37 NZ         17.0400    9.8590   12.6870 N.4       9 LYP4        0.0000 
     38 N          16.0495   10.0610   11.8255 N.am      2 SEC2        0.0000 
     39 N          15.0590   10.2630   10.9640 N.am     12 SEL2        0.0000 
     40 N          17.0400    9.8590   12.6870 N.am      7 SEP2        0.0000 
     41 NZ         16.6355   11.2405   13.0275 N.4       4 LYC4        0.0000 
     42 NZ         16.2310   12.6220   13.3680 N.4      14 LYL4        0.0000 
     43 CA         13.0280    8.6265    5.1420 C.3       5 GLC5        0.0000 
     44 CA         13.1490   10.8420    5.1940 C.3      15 GLL5        0.0000 
     45 CA         14.9245   12.8685    4.3175 C.3       5 GLC5        0.0000 
     46 CA         14.6190   11.1020    4.9160 C.3      15 GLL5        0.0000 
     47 CA         16.6400   11.0905    5.0810 C.3       5 GLC5        0.0000 
     48 CA         18.6610   11.0790    5.2460 C.3      10 GLP5        0.0000 
     49 O          17.7050    4.3115    4.9995 O.2       1 ALC1        0.0000 
     50 O          17.0500    5.3640    5.5530 O.2      11 ALL1        0.0000 
     51 O          18.3600    3.2590    4.4460 O.2       6 ALP1        0.0000 
     52 OD1        13.6980   11.3255   13.8315 O.co2     3 ASC3        0.0000 
     53 OD1        13.7290   13.0270   13.2950 O.co2    13 ASL3        0.0000 
     54 OD1        13.6670    9.6240   14.3680 O.co2     8 ASP3        0.0000 
     55 OD1        12.8440   11.8075   13.2845 O.co2     3 ASC3        0.0000 
     56 OD1        11.9590   10.5880   13.2740 O.co2     8 ASP3        0.0000 
     57 CA         17.2808    9.6343    5.1293 C.3       5 GLC5        0.0000 
     58 CA         16.1910    7.6630    5.4470 C.3      15 GLL5        0.0000 
     59 CA         18.1725    7.1600    4.3940 C.3       5 GLC5        0.0000 
     60 CA         14.5744    6.8546    4.9869 C.3       5 GLC5        0.0000 
     61 CA         16.0813   12.6490    7.2812 C.3       5 GLC5        0.0000 
     62 CA         18.0580   12.5150    7.2090 C.3      10 GLP5        0.0000 
@<TRIPOS>BOND
@<TRIPOS>SUBSTRUCTURE
     1 ALC1       18 GROUP        1 X    ALC  0     ROOT ALC X 1
     2 SEC2       12 GROUP        1 X    SEC  0     **** SEC X 2
     3 ASC3       52 GROUP        1 X    ASC  0     **** ASC X 3
     4 LYC4       35 GROUP        1 X    LYC  0     **** LYC X 4
     5 GLC5        1 GROUP        1 X    GLC  0     **** GLC X 6
     6 ALP1       20 GROUP        1 Y    ALP  0     ROOT ALP Y 8
     7 SEP2       14 GROUP        1 Y    SEP  0     **** SEP Y 9
     8 ASP3       54 GROUP        1 Y    ASP  0     **** ASP Y 10
     9 LYP4       37 GROUP        1 Y    LYP  0     **** LYP Y 11
    10 GLP5        3 GROUP        1 Y    GLP  0     **** GLP Y 13
    11 ALL1       19 GROUP        1 Z    ALL  0     ROOT ALL Z 15
    12 SEL2       13 GROUP        1 Z    SEL  0     **** SEL Z 16
    13 ASL3       53 GROUP        1 Z    ASL  0     **** ASL Z 17
    14 LYL4       36 GROUP        1 Z    LYL  0     **** LYL Z 18
    15 GLL5        2 GROUP        1 Z    GLL  0     **** GLL Z 20
@<TRIPOS>SET

