#    Name: 4bl1_ANP_1_ligand
#    Modification time : Tue Mar 25 07:51:52 2014

@<TRIPOS>MOLECULE
4bl1_ANP_1_ligand
   43    45     1     0     0
SMALL
NO_CHARGES


@<TRIPOS>ATOM
      1 C2         15.9090    7.2470    2.6020 C.ar      1 ANP1000     0.0000 
      2 C4         15.6100    8.7160    4.5780 C.ar      1 ANP1000     0.0000 
      3 C5         16.1910    7.6630    5.4470 C.ar      1 ANP1000     0.0000 
      4 C6         16.5830    6.4070    4.7550 C.ar      1 ANP1000     0.0000 
      5 C8         15.6800    9.4380    6.6810 C.2       1 ANP1000     0.0000 
      6 N1         16.4650    6.2490    3.3370 N.ar      1 ANP1000     0.0000 
      7 O1B        15.2290   14.9000   12.2620 O.co2     1 ANP1000     0.0000 
      8 O2'        12.3200   11.4190    4.2060 O.3       1 ANP1000     0.0000 
      9 O1G        12.2630   15.4220   13.5340 O.co2     1 ANP1000     0.0000 
     10 O3'        11.5590   11.5970    6.9770 O.3       1 ANP1000     0.0000 
     11 C3'        12.9390   11.4000    6.6310 C.3       1 ANP1000     0.0000 
     12 C4'        13.7740   12.6250    6.6820 C.3       1 ANP1000     0.0000 
     13 C5'        14.4350   12.9410    8.0250 C.3       1 ANP1000     0.0000 
     14 O5'        14.7970   11.7280    8.6780 O.3       1 ANP1000     0.0000 
     15 PA         14.4050   11.4850   10.2580 P.3       1 ANP1000     0.0000 
     16 O1A        12.8790   11.4930   10.4500 O.co2     1 ANP1000     0.0000 
     17 O3A        14.9830   12.9390   10.7720 O.3       1 ANP1000     0.0000 
     18 O2A        15.0590   10.2630   10.9640 O.co2     1 ANP1000     0.0000 
     19 O2B        16.2310   12.6220   13.3680 O.co2     1 ANP1000     0.0000 
     20 O2G        12.0890   14.0700   11.3760 O.co2     1 ANP1000     0.0000 
     21 O3G        11.3380   12.9170   13.7000 O.co2     1 ANP1000     0.0000 
     22 C2'        13.1490   10.8420    5.1940 C.3       1 ANP1000     0.0000 
     23 C1'        14.6190   11.1020    4.9160 C.3       1 ANP1000     0.0000 
     24 O4'        14.7520   12.2940    5.6940 O.3       1 ANP1000     0.0000 
     25 N9         15.3170    9.8120    5.3690 N.pl3     1 ANP1000     0.0000 
     26 N7         16.2150    8.1420    6.7640 N.2       1 ANP1000     0.0000 
     27 N6         17.0500    5.3640    5.5530 N.pl3     1 ANP1000     0.0000 
     28 N3         15.5420    8.4430    3.2260 N.ar      1 ANP1000     0.0000 
     29 PB         15.1390   13.4090   12.3880 P.3       1 ANP1000     0.0000 
     30 N3B        13.7290   13.0270   13.2950 N.4       1 ANP1000     0.0000 
     31 PG         12.3010   13.9240   12.8670 P.3       1 ANP1000     0.0000 
     32 H          15.7513    7.1407    1.5897 H         1 ANP1000     0.0000 
     33 H          15.5686   10.0256    7.4529 H         1 ANP1000     0.0000 
     34 H          13.4144   10.6545    7.2956 H         1 ANP1000     0.0000 
     35 H          13.1936   13.4588    6.3418 H         1 ANP1000     0.0000 
     36 H          13.7223   13.5270    8.6166 H         1 ANP1000     0.0000 
     37 H          15.3072   13.5741    7.8255 H         1 ANP1000     0.0000 
     38 H          13.0350    9.7618    5.2686 H         1 ANP1000     0.0000 
     39 H          14.7064   11.2542    3.8888 H         1 ANP1000     0.0000 
     40 H          17.1059    5.5513    6.5337 H         1 ANP1000     0.0000 
     41 H          17.2890    4.5181    5.0761 H         1 ANP1000     0.0000 
     42 H          11.4440   11.5753    4.6623 H         1 ANP1000     0.0000 
     43 H          11.0690   11.5814    6.1054 H         1 ANP1000     0.0000 
@<TRIPOS>BOND
     1    6    1 ar   
     2   28    1 ar   
     3   32    1 1    
     4    3    2 ar   
     5   25    2 1    
     6   28    2 ar   
     7    4    3 ar   
     8   26    3 1    
     9    6    4 ar   
    10   27    4 1    
    11   25    5 1    
    12   26    5 2    
    13   33    5 1    
    14   29    7 ar   
    15   22    8 1    
    16   42    8 1    
    17   31    9 ar   
    18   11   10 1    
    19   43   10 1    
    20   12   11 1    
    21   22   11 1    
    22   34   11 1    
    23   13   12 1    
    24   24   12 1    
    25   35   12 1    
    26   14   13 1    
    27   36   13 1    
    28   37   13 1    
    29   15   14 1    
    30   16   15 ar   
    31   17   15 1    
    32   18   15 ar   
    33   29   17 1    
    34   29   19 ar   
    35   31   20 ar   
    36   31   21 ar   
    37   23   22 1    
    38   38   22 1    
    39   24   23 1    
    40   25   23 1    
    41   39   23 1    
    42   40   27 1    
    43   41   27 1    
    44   30   29 1    
    45   31   30 1    
@<TRIPOS>SUBSTRUCTURE
     1 ANP1000     1 GROUP   
@<TRIPOS>SET

