#    Name: 2wev_CK7_1_INTS_M
#    Modification time : Tue Mar 25 04:14:33 2014

@<TRIPOS>MOLECULE
2wev_CK7_1_INTS_M
   52     0     9     0     0
SMALL
NO_CHARGES


@<TRIPOS>ATOM
      1 O           5.3945   44.0630   -1.2145 O.2       1 ALC1        0.0000 
      2 O           4.5480   45.1430   -0.4970 O.2       7 ALL1        0.0000 
      3 O           6.2410   42.9830   -1.9320 O.2       4 ALP1        0.0000 
      4 O           3.2600   44.8015   -1.0210 O.2       1 ALC1        0.0000 
      5 O           1.9720   44.4600   -1.5450 O.2       4 ALP1        0.0000 
      6 CA          5.4805   46.3715    2.7560 C.3       3 GLC5        0.0000 
      7 CA          6.1500   47.6750    1.1760 C.3       9 GLL5        0.0000 
      8 CA          4.8110   45.0680    4.3360 C.3       6 GLP5        0.0000 
      9 CA          8.9800   48.3285    2.2590 C.3       3 GLC5        0.0000 
     10 CA          7.4940   48.2390    1.4810 C.3       9 GLL5        0.0000 
     11 CA         10.4660   48.4180    3.0370 C.3       6 GLP5        0.0000 
     12 CA          4.2685   46.1160    2.6540 C.3       3 GLC5        0.0000 
     13 CA          3.7260   47.1640    0.9720 C.3       9 GLL5        0.0000 
     14 CA          2.5820   48.7525    0.0425 C.3       3 GLC5        0.0000 
     15 CA          1.4380   50.3410   -0.8870 C.3       6 GLP5        0.0000 
     16 CA          4.7830   53.4955    3.9430 C.3       3 GLC5        0.0000 
     17 CA          4.9520   51.7350    2.7040 C.3       9 GLL5        0.0000 
     18 CA          4.6140   55.2560    5.1820 C.3       6 GLP5        0.0000 
     19 CA          4.7330   53.2935    1.3275 C.3       3 GLC5        0.0000 
     20 CA          4.5140   54.8520   -0.0490 C.3       6 GLP5        0.0000 
     21 N           3.2900   53.3785    3.2740 N.am      2 SEC2        0.0000 
     22 N           3.6490   51.8420    3.0460 N.am      8 SEL2        0.0000 
     23 N           2.9310   54.9150    3.5020 N.am      5 SEP2        0.0000 
     24 CA          2.2720   50.1835    4.6980 C.3       3 GLC5        0.0000 
     25 CA          2.8340   50.7740    2.9170 C.3       9 GLL5        0.0000 
     26 CA          1.7100   49.5930    6.4790 C.3       6 GLP5        0.0000 
     27 CA          4.2210   50.9885    4.4395 C.3       3 GLC5        0.0000 
     28 CA          5.6080   51.2030    5.9620 C.3       6 GLP5        0.0000 
     29 CA          2.5685   52.7915    2.0365 C.3       3 GLC5        0.0000 
     30 CA          2.3030   54.8090    1.1560 C.3       6 GLP5        0.0000 
     31 CA          3.2940   51.0515    1.0670 C.3       3 GLC5        0.0000 
     32 CA          3.7540   51.3290   -0.7830 C.3       6 GLP5        0.0000 
     33 CA          4.5250   48.0075    3.6530 C.3       3 GLC5        0.0000 
     34 CA          4.5800   49.4350    2.1340 C.3       9 GLL5        0.0000 
     35 CA          4.2930   47.2460    5.4730 C.3       6 GLP5        0.0000 
     36 CA          4.2555   50.0490    0.5250 C.3       3 GLC5        0.0000 
     37 CA          6.4625   52.0517    1.0830 C.3       3 GLC5        0.0000 
     38 CA          7.7180   52.9790   -0.3150 C.3       6 GLP5        0.0000 
     39 CA          7.1875   51.4982    3.0725 C.3       3 GLC5        0.0000 
     40 CA          5.4620   50.5140    2.2580 C.3       9 GLL5        0.0000 
     41 CA          9.1680   51.8720    3.6640 C.3       6 GLP5        0.0000 
     42 CA          4.4805   51.2267    0.8490 C.3       3 GLC5        0.0000 
     43 CA          5.2973   51.0289    4.2060 C.3       3 GLC5        0.0000 
     44 CA          0.9769   49.6155    4.6466 C.3       3 GLC5        0.0000 
     45 CA          0.5030   50.1390    3.0500 C.3       9 GLL5        0.0000 
     46 CA         -1.6695   48.5757    0.1930 C.3       3 GLC5        0.0000 
     47 CA         -0.5360   48.1520    2.1180 C.3       9 GLL5        0.0000 
     48 CA         -2.1700   48.7460   -1.8820 C.3       6 GLP5        0.0000 
     49 CA          0.7236   49.5871    0.7706 C.3       3 GLC5        0.0000 
     50 CA         -2.4118   50.9885    1.8860 C.3       3 GLC5        0.0000 
     51 CA         -0.7400   50.6330    3.3530 C.3       9 GLL5        0.0000 
     52 CA         -3.2660   52.5150    0.9660 C.3       6 GLP5        0.0000 
@<TRIPOS>BOND
@<TRIPOS>SUBSTRUCTURE
     1 ALC1        1 GROUP        1 X    ALC  0     ROOT ALC X 1
     2 SEC2       21 GROUP        1 X    SEC  0     **** SEC X 2
     3 GLC5        6 GROUP        1 X    GLC  0     **** GLC X 6
     4 ALP1        3 GROUP        1 Y    ALP  0     ROOT ALP Y 8
     5 SEP2       23 GROUP        1 Y    SEP  0     **** SEP Y 9
     6 GLP5        8 GROUP        1 Y    GLP  0     **** GLP Y 13
     7 ALL1        2 GROUP        1 Z    ALL  0     ROOT ALL Z 15
     8 SEL2       22 GROUP        1 Z    SEL  0     **** SEL Z 16
     9 GLL5        7 GROUP        1 Z    GLL  0     **** GLL Z 20
@<TRIPOS>SET

