#    Name: 2wev_CK7_1_ligand
#    Modification time : Tue Mar 25 04:14:33 2014

@<TRIPOS>MOLECULE
2wev_CK7_1_ligand
   35    37     1     0     0
SMALL
NO_CHARGES


@<TRIPOS>ATOM
      1 N7A         4.5480   45.1430   -0.4970 N.pl3     1 CK71297     0.0000 
      2 C3A         4.8380   46.2240    0.2450 C.2       1 CK71297     0.0000 
      3 N2A         6.0790   46.6000    0.4240 N.2       1 CK71297     0.0000 
      4 C1A         6.1500   47.6750    1.1760 C.2       1 CK71297     0.0000 
      5 C6A         7.4940   48.2390    1.4810 C.3       1 CK71297     0.0000 
      6 S4A         3.7260   47.1640    0.9720 S.3       1 CK71297     0.0000 
      7 C5A         4.9340   48.1030    1.5320 C.2       1 CK71297     0.0000 
      8 C4          4.5800   49.4350    2.1340 C.ar      1 CK71297     0.0000 
      9 N3          3.2960   49.5890    2.4880 N.ar      1 CK71297     0.0000 
     10 C5          5.4620   50.5140    2.2580 C.ar      1 CK71297     0.0000 
     11 C6          4.9520   51.7350    2.7040 C.ar      1 CK71297     0.0000 
     12 N1          3.6490   51.8420    3.0460 N.ar      1 CK71297     0.0000 
     13 C2          2.8340   50.7740    2.9170 C.ar      1 CK71297     0.0000 
     14 N7          1.5710   50.8850    3.4000 N.pl3     1 CK71297     0.0000 
     15 C1B         0.5030   50.1390    3.0500 C.ar      1 CK71297     0.0000 
     16 C6B        -0.7400   50.6330    3.3530 C.ar      1 CK71297     0.0000 
     17 C2B         0.6060   48.8900    2.4270 C.ar      1 CK71297     0.0000 
     18 C3B        -0.5360   48.1520    2.1180 C.ar      1 CK71297     0.0000 
     19 N7B        -0.3920   46.8270    1.7920 N.pl3     1 CK71297     0.0000 
     20 O8B        -1.4020   46.1710    1.5860 O.2       1 CK71297     0.0000 
     21 O9B         0.6200   46.2060    2.1280 O.2       1 CK71297     0.0000 
     22 C4B        -1.8020   48.6590    2.4180 C.ar      1 CK71297     0.0000 
     23 C5B        -1.8860   49.8970    3.0350 C.ar      1 CK71297     0.0000 
     24 H           5.3276   44.6652   -0.9020 H         1 CK71297     0.0000 
     25 H           3.5784   44.9123   -0.5783 H         1 CK71297     0.0000 
     26 H           6.4438   50.4110    2.0301 H         1 CK71297     0.0000 
     27 H           5.5896   52.5480    2.7657 H         1 CK71297     0.0000 
     28 H           1.4052   51.6577    4.1480 H         1 CK71297     0.0000 
     29 H          -0.8428   51.5487    3.8167 H         1 CK71297     0.0000 
     30 H           1.5375   48.5134    2.1949 H         1 CK71297     0.0000 
     31 H          -2.6385   48.1292    2.1875 H         1 CK71297     0.0000 
     32 H          -2.8172   50.2915    3.2685 H         1 CK71297     0.0000 
     33 H           8.0711   47.5820    1.9660 H         1 CK71297     0.0000 
     34 H           7.9839   48.5018    0.6497 H         1 CK71297     0.0000 
     35 H           7.4326   49.0552    2.0555 H         1 CK71297     0.0000 
@<TRIPOS>BOND
     1    2    1 1    
     2   24    1 1    
     3   25    1 1    
     4    3    2 2    
     5    6    2 1    
     6    4    3 1    
     7    5    4 1    
     8    7    4 2    
     9   33    5 1    
    10   34    5 1    
    11   35    5 1    
    12    7    6 1    
    13    8    7 1    
    14    9    8 ar   
    15   10    8 ar   
    16   13    9 ar   
    17   11   10 ar   
    18   26   10 1    
    19   12   11 ar   
    20   27   11 1    
    21   13   12 ar   
    22   14   13 1    
    23   15   14 1    
    24   28   14 1    
    25   16   15 ar   
    26   17   15 ar   
    27   23   16 ar   
    28   29   16 1    
    29   18   17 ar   
    30   30   17 1    
    31   19   18 1    
    32   22   18 ar   
    33   20   19 2    
    34   21   19 2    
    35   23   22 ar   
    36   31   22 1    
    37   32   23 1    
@<TRIPOS>SUBSTRUCTURE
     1 CK71297     1 GROUP   
@<TRIPOS>SET

