#    Name: 2ouz_C3D_1_INTS_M
#    Modification time : Mon Mar 24 17:51:27 2014

@<TRIPOS>MOLECULE
2ouz_C3D_1_INTS_M
   87     0    12     0     0
SMALL
NO_CHARGES


@<TRIPOS>ATOM
      1 CA         30.3845    1.9455   25.6740 C.3       4 GLC5        0.0000 
      2 CA         30.3180    1.3640   27.6310 C.3      12 GLL5        0.0000 
      3 CA         30.4510    2.5270   23.7170 C.3       8 GLP5        0.0000 
      4 CA         30.6370    3.3265   27.2525 C.3       4 GLC5        0.0000 
      5 CA         30.9560    5.2890   26.8740 C.3       8 GLP5        0.0000 
      6 CA         28.5410    3.1025   27.2965 C.3       4 GLC5        0.0000 
      7 CA         28.8310    1.2770   27.9850 C.3      12 GLL5        0.0000 
      8 CA         28.2510    4.9280   26.6080 C.3       8 GLP5        0.0000 
      9 CA         28.7065    0.0920   29.7645 C.3       4 GLC5        0.0000 
     10 CA         28.5820   -1.0930   31.5440 C.3       8 GLP5        0.0000 
     11 CA         26.3290   -4.2985   27.9085 C.3       4 GLC5        0.0000 
     12 CA         27.1210   -2.5800   27.0350 C.3      12 GLL5        0.0000 
     13 CA         25.5370   -6.0170   28.7820 C.3       8 GLP5        0.0000 
     14 CA         29.8815   -3.7760   28.2260 C.3       4 GLC5        0.0000 
     15 CA         28.4740   -2.4910   27.2900 C.3      12 GLL5        0.0000 
     16 CA         31.2890   -5.0610   29.1620 C.3       8 GLP5        0.0000 
     17 CA         32.6755   -1.9020   30.1280 C.3       4 GLC5        0.0000 
     18 CA         33.4360   -0.0900   29.1840 C.3      12 GLL5        0.0000 
     19 CA         31.9150   -3.7140   31.0720 C.3       8 GLP5        0.0000 
     20 CA         37.4385    0.8845   27.9435 C.3       4 GLC5        0.0000 
     21 CA         35.4420    0.6200   28.0390 C.3      12 GLL5        0.0000 
     22 CA         39.4350    1.1490   27.8480 C.3       8 GLP5        0.0000 
     23 CA         35.0645    2.8940   26.4440 C.3       4 GLC5        0.0000 
     24 CA         34.6430    1.0410   27.0100 C.3      12 GLL5        0.0000 
     25 CA         35.4860    4.7470   25.8780 C.3       8 GLP5        0.0000 
     26 CA         34.4810   -1.9955   24.7055 C.3       4 GLC5        0.0000 
     27 CA         32.8220   -2.9300   25.1000 C.3      12 GLL5        0.0000 
     28 CA         36.1400   -1.0610   24.3110 C.3       8 GLP5        0.0000 
     29 CA         33.6965   -5.7285   22.8490 C.3       4 GLC5        0.0000 
     30 CA         33.5770   -3.8530   22.3690 C.3      12 GLL5        0.0000 
     31 CA         33.8160   -7.6040   23.3290 C.3       8 GLP5        0.0000 
     32 CA         34.8585   -2.4570   23.3400 C.3       4 GLC5        0.0000 
     33 CA         31.8695   -2.7325   15.8305 C.3       4 GLC5        0.0000 
     34 CA         32.4280   -3.7850   17.5600 C.3      12 GLL5        0.0000 
     35 CA         31.3110   -1.6800   14.1010 C.3       8 GLP5        0.0000 
     36 N          23.8950   -1.6410   27.8300 N.am      2 SEC2        0.0000 
     37 N          24.9990   -1.5350   26.8360 N.am     10 SEL2        0.0000 
     38 N          22.7910   -1.7470   28.8240 N.am      6 SEP2        0.0000 
     39 O          24.7785   -2.4860   26.0805 O.2       1 ALC1        0.0000 
     40 O          24.9990   -1.5350   26.8360 O.2       9 ALL1        0.0000 
     41 O          24.5580   -3.4370   25.3250 O.2       5 ALP1        0.0000 
     42 OD1        31.8600   -5.0680   20.0460 O.co2     3 ASC3        0.0000 
     43 OD1        32.8200   -4.1310   19.9780 O.co2    11 ASL3        0.0000 
     44 OD1        30.9000   -6.0050   20.1140 O.co2     7 ASP3        0.0000 
     45 O          31.8600   -5.0680   20.0460 O.2       1 ALC1        0.0000 
     46 O          32.8200   -4.1310   19.9780 O.2       9 ALL1        0.0000 
     47 O          30.9000   -6.0050   20.1140 O.2       5 ALP1        0.0000 
     48 CA         29.6535   -3.3125   17.3590 C.3       4 GLC5        0.0000 
     49 CA         31.2350   -3.2320   18.3620 C.3      12 GLL5        0.0000 
     50 CA         28.0720   -3.3930   16.3560 C.3       8 GLP5        0.0000 
     51 CA         30.7895   -1.5685   19.4130 C.3       4 GLC5        0.0000 
     52 CA         30.3440    0.0950   20.4640 C.3       8 GLP5        0.0000 
     53 CA         31.8040   -1.2975   19.9670 C.3       4 GLC5        0.0000 
     54 CA         31.9510   -2.9520   19.7090 C.3      12 GLL5        0.0000 
     55 CA         31.6570    0.3570   20.2250 C.3       8 GLP5        0.0000 
     56 CA         29.7203   -0.8087   29.7395 C.3       4 GLC5        0.0000 
     57 CA         30.6130   -1.2140   27.6360 C.3      12 GLL5        0.0000 
     58 CA         26.3702    0.1685   25.5770 C.3       4 GLC5        0.0000 
     59 CA         26.9130   -0.2040   27.4050 C.3      12 GLL5        0.0000 
     60 CA         26.1140    1.1630   23.9000 C.3       8 GLP5        0.0000 
     61 CA         27.1496    0.9018   29.2475 C.3       4 GLC5        0.0000 
     62 CA         26.5670    1.6130   30.8830 C.3       8 GLP5        0.0000 
     63 CA         28.4027   -3.2243   25.4402 C.3       4 GLC5        0.0000 
     64 CA         29.0080   -3.9130   23.7180 C.3       8 GLP5        0.0000 
     65 CA         34.6695    0.3033   30.4744 C.3       4 GLC5        0.0000 
     66 CA         34.5530    0.3050   32.3560 C.3       8 GLP5        0.0000 
     67 CA         35.5525   -1.1522   27.2355 C.3       4 GLC5        0.0000 
     68 CA         36.2170   -2.9940   26.6790 C.3       8 GLP5        0.0000 
     69 CA         35.4090    2.4832   28.6230 C.3       4 GLC5        0.0000 
     70 CA         35.9300    4.2770   29.4540 C.3       8 GLP5        0.0000 
     71 CA         35.1489   -0.1019   25.8019 C.3       4 GLC5        0.0000 
     72 CA         30.0288   -2.6167   24.7060 C.3       4 GLC5        0.0000 
     73 CA         31.2430   -1.6190   26.2880 C.3      12 GLL5        0.0000 
     74 CA         30.7900    0.6560   24.1148 C.3       4 GLC5        0.0000 
     75 CA         30.8560   -1.0220   25.1000 C.3      12 GLL5        0.0000 
     76 CA         29.2905   -0.8900   23.6612 C.3       4 GLC5        0.0000 
     77 CA         27.4520   -0.5650   22.8100 C.3       8 GLP5        0.0000 
     78 CA         30.4570   -2.8942   23.8173 C.3       4 GLC5        0.0000 
     79 CA         31.4020   -1.4080   23.9250 C.3      12 GLL5        0.0000 
     80 CA         33.3600   -0.6807   23.4108 C.3       4 GLC5        0.0000 
     81 CA         34.8140    0.5140   22.9050 C.3       8 GLP5        0.0000 
     82 CA         34.3787   -2.8655   26.1875 C.3       4 GLC5        0.0000 
     83 CA         32.3628   -4.7415   25.3745 C.3       4 GLC5        0.0000 
     84 CA         32.1850   -6.7460   25.0530 C.3       8 GLP5        0.0000 
     85 CA         30.7742   -3.3250   24.7070 C.3       4 GLC5        0.0000 
     86 CA         31.4413   -3.5206   27.8945 C.3       4 GLC5        0.0000 
     87 CA         32.2590   -2.5440   26.2920 C.3      12 GLL5        0.0000 
@<TRIPOS>BOND
@<TRIPOS>SUBSTRUCTURE
     1 ALC1       39 GROUP        1 X    ALC  0     ROOT ALC X 1
     2 SEC2       36 GROUP        1 X    SEC  0     **** SEC X 2
     3 ASC3       42 GROUP        1 X    ASC  0     **** ASC X 3
     4 GLC5        1 GROUP        1 X    GLC  0     **** GLC X 6
     5 ALP1       41 GROUP        1 Y    ALP  0     ROOT ALP Y 8
     6 SEP2       38 GROUP        1 Y    SEP  0     **** SEP Y 9
     7 ASP3       44 GROUP        1 Y    ASP  0     **** ASP Y 10
     8 GLP5        3 GROUP        1 Y    GLP  0     **** GLP Y 13
     9 ALL1       40 GROUP        1 Z    ALL  0     ROOT ALL Z 15
    10 SEL2       37 GROUP        1 Z    SEL  0     **** SEL Z 16
    11 ASL3       43 GROUP        1 Z    ASL  0     **** ASL Z 17
    12 GLL5        2 GROUP        1 Z    GLL  0     **** GLL Z 20
@<TRIPOS>SET

