#    Name: 2ouz_C3D_1_ligand
#    Modification time : Mon Mar 24 17:51:27 2014

@<TRIPOS>MOLECULE
2ouz_C3D_1_ligand
   63    67     1     0     0
SMALL
NO_CHARGES


@<TRIPOS>ATOM
      1 C1         30.6130   -1.2140   27.6360 C.3       1 C3D999      0.0000 
      2 C2         31.1040    0.1650   28.2340 C.3       1 C3D999      0.0000 
      3 C3         30.3180    1.3640   27.6310 C.3       1 C3D999      0.0000 
      4 C4         28.8310    1.2770   27.9850 C.3       1 C3D999      0.0000 
      5 C5         28.2720   -0.1070   27.6530 C.ar      1 C3D999      0.0000 
      6 C6         26.9130   -0.2040   27.4050 C.ar      1 C3D999      0.0000 
      7 C7         26.3400   -1.4480   27.1030 C.ar      1 C3D999      0.0000 
      8 C8         27.1210   -2.5800   27.0350 C.ar      1 C3D999      0.0000 
      9 C9         28.4740   -2.4910   27.2900 C.ar      1 C3D999      0.0000 
     10 C10        29.0710   -1.2620   27.6020 C.ar      1 C3D999      0.0000 
     11 C11        32.6340    0.3000   28.1500 C.ar      1 C3D999      0.0000 
     12 C12        33.4360   -0.0900   29.1840 C.ar      1 C3D999      0.0000 
     13 C13        34.8240    0.0560   29.1090 C.ar      1 C3D999      0.0000 
     14 C14        35.4420    0.6200   28.0390 C.ar      1 C3D999      0.0000 
     15 C15        34.6430    1.0410   27.0100 C.ar      1 C3D999      0.0000 
     16 C16        33.2730    0.8840   27.0610 C.ar      1 C3D999      0.0000 
     17 C17        31.2430   -1.6190   26.2880 C.ar      1 C3D999      0.0000 
     18 C18        30.8560   -1.0220   25.1000 C.ar      1 C3D999      0.0000 
     19 C19        31.4020   -1.4080   23.9250 C.ar      1 C3D999      0.0000 
     20 C20        32.4100   -2.3430   23.9080 C.ar      1 C3D999      0.0000 
     21 C21        32.8220   -2.9300   25.1000 C.ar      1 C3D999      0.0000 
     22 C22        32.2590   -2.5440   26.2920 C.ar      1 C3D999      0.0000 
     23 C24        33.5770   -3.8530   22.3690 C.3       1 C3D999      0.0000 
     24 C25        33.9300   -3.8110   20.8910 C.3       1 C3D999      0.0000 
     25 C27        33.2670   -4.5360   18.6110 C.3       1 C3D999      0.0000 
     26 C28        32.4280   -3.7850   17.5600 C.3       1 C3D999      0.0000 
     27 O7         24.9990   -1.5350   26.8360 O.3       1 C3D999      0.0000 
     28 O23        32.9650   -2.6410   22.6680 O.3       1 C3D999      0.0000 
     29 N26        32.8200   -4.1310   19.9780 N.4       1 C3D999      0.0000 
     30 C29        31.2350   -3.2320   18.3620 C.3       1 C3D999      0.0000 
     31 C30        31.9510   -2.9520   19.7090 C.3       1 C3D999      0.0000 
     32 H          30.9215   -1.9916   28.3901 H         1 C3D999      0.0000 
     33 H          30.8380    0.1223   29.3208 H         1 C3D999      0.0000 
     34 H          30.4372    1.3497   26.5518 H         1 C3D999      0.0000 
     35 H          30.7336    2.2858   28.0268 H         1 C3D999      0.0000 
     36 H          28.2840    2.0302   27.4209 H         1 C3D999      0.0000 
     37 H          28.7043    1.4700   29.0487 H         1 C3D999      0.0000 
     38 H          26.3165    0.6325   27.4404 H         1 C3D999      0.0000 
     39 H          26.6990   -3.4881   26.7954 H         1 C3D999      0.0000 
     40 H          29.0657   -3.3400   27.2527 H         1 C3D999      0.0000 
     41 H          33.0235   -0.5015   30.0422 H         1 C3D999      0.0000 
     42 H          35.3963   -0.2887   29.9193 H         1 C3D999      0.0000 
     43 H          36.4524    0.7271   27.9990 H         1 C3D999      0.0000 
     44 H          35.0718    1.4877   26.1728 H         1 C3D999      0.0000 
     45 H          32.6918    1.2133   26.2570 H         1 C3D999      0.0000 
     46 H          30.1372   -0.2706   25.1272 H         1 C3D999      0.0000 
     47 H          31.0672   -1.0044   23.0294 H         1 C3D999      0.0000 
     48 H          33.5543   -3.6579   25.0805 H         1 C3D999      0.0000 
     49 H          32.5947   -2.9435   27.1791 H         1 C3D999      0.0000 
     50 H          34.5012   -4.0101   22.9244 H         1 C3D999      0.0000 
     51 H          32.9222   -4.7094   22.5274 H         1 C3D999      0.0000 
     52 H          34.7781   -4.5120   20.7183 H         1 C3D999      0.0000 
     53 H          34.3316   -2.7981   20.6604 H         1 C3D999      0.0000 
     54 H          34.3114   -4.2836   18.4639 H         1 C3D999      0.0000 
     55 H          33.1273   -5.6018   18.4673 H         1 C3D999      0.0000 
     56 H          32.0805   -4.4662   16.8285 H         1 C3D999      0.0000 
     57 H          32.9915   -2.9831   17.1610 H         1 C3D999      0.0000 
     58 H          32.1973   -4.9192   20.3746 H         1 C3D999      0.0000 
     59 H          30.5208   -3.9750   18.4952 H         1 C3D999      0.0000 
     60 H          30.9118   -2.3360   17.9466 H         1 C3D999      0.0000 
     61 H          32.5368   -2.0595   19.6031 H         1 C3D999      0.0000 
     62 H          31.2061   -2.8419   20.4731 H         1 C3D999      0.0000 
     63 H          24.9427   -1.9395   25.9232 H         1 C3D999      0.0000 
@<TRIPOS>BOND
     1    2    1 1    
     2   10    1 1    
     3   17    1 1    
     4   32    1 1    
     5    3    2 1    
     6   11    2 1    
     7   33    2 1    
     8    4    3 1    
     9   34    3 1    
    10   35    3 1    
    11    5    4 1    
    12   36    4 1    
    13   37    4 1    
    14    6    5 ar   
    15   10    5 ar   
    16    7    6 ar   
    17   38    6 1    
    18    8    7 ar   
    19   27    7 1    
    20    9    8 ar   
    21   39    8 1    
    22   10    9 ar   
    23   40    9 1    
    24   12   11 ar   
    25   16   11 ar   
    26   13   12 ar   
    27   41   12 1    
    28   14   13 ar   
    29   42   13 1    
    30   15   14 ar   
    31   43   14 1    
    32   16   15 ar   
    33   44   15 1    
    34   45   16 1    
    35   18   17 ar   
    36   22   17 ar   
    37   19   18 ar   
    38   46   18 1    
    39   20   19 ar   
    40   47   19 1    
    41   21   20 ar   
    42   28   20 1    
    43   22   21 ar   
    44   48   21 1    
    45   49   22 1    
    46   24   23 1    
    47   28   23 1    
    48   50   23 1    
    49   51   23 1    
    50   29   24 1    
    51   52   24 1    
    52   53   24 1    
    53   26   25 1    
    54   29   25 1    
    55   54   25 1    
    56   55   25 1    
    57   30   26 1    
    58   56   26 1    
    59   57   26 1    
    60   63   27 1    
    61   31   29 1    
    62   58   29 1    
    63   31   30 1    
    64   59   30 1    
    65   60   30 1    
    66   61   31 1    
    67   62   31 1    
@<TRIPOS>SUBSTRUCTURE
     1 C3D999      1 GROUP   
@<TRIPOS>SET

