#    Name: 4lxj_LAN_1_INTS_M
#    Modification time : Tue Apr  8 00:12:00 2014

@<TRIPOS>MOLECULE
4lxj_LAN_1_INTS_M
   93     0     6     0     0
SMALL
NO_CHARGES


@<TRIPOS>ATOM
      1 CA         19.3090    7.9165   16.8575 C.3       2 GLC5        0.0000 
      2 CA         19.7280   10.0960   16.6840 C.3       6 GLL5        0.0000 
      3 CA         18.8900    5.7370   17.0310 C.3       4 GLP5        0.0000 
      4 CA         20.1375    7.0700   16.2430 C.3       2 GLC5        0.0000 
      5 CA         20.3180    8.7700   16.2400 C.3       6 GLL5        0.0000 
      6 CA         19.9570    5.3700   16.2460 C.3       4 GLP5        0.0000 
      7 CA         20.6110    7.1395   15.0140 C.3       2 GLC5        0.0000 
      8 CA         21.3960    8.8810   15.1640 C.3       6 GLL5        0.0000 
      9 CA         19.8260    5.3980   14.8640 C.3       4 GLP5        0.0000 
     10 CA         21.7330    7.8070   13.7090 C.3       2 GLC5        0.0000 
     11 CA         22.0700    6.7330   12.2540 C.3       4 GLP5        0.0000 
     12 CA         21.5205    9.7620   11.8155 C.3       2 GLC5        0.0000 
     13 CA         23.2210    9.7420   12.8900 C.3       6 GLL5        0.0000 
     14 CA         19.8200    9.7820   10.7410 C.3       4 GLP5        0.0000 
     15 CA         23.0715   10.5780   11.2070 C.3       2 GLC5        0.0000 
     16 CA         22.9220   11.4140    9.5240 C.3       4 GLP5        0.0000 
     17 CA         24.0190    8.6065   11.4990 C.3       2 GLC5        0.0000 
     18 CA         24.8170    7.4710   10.1080 C.3       4 GLP5        0.0000 
     19 CA         23.7115    7.7025   13.9700 C.3       2 GLC5        0.0000 
     20 CA         24.5210    9.5220   14.9720 C.3       6 GLL5        0.0000 
     21 CA         22.9020    5.8830   12.9680 C.3       4 GLP5        0.0000 
     22 O          25.7630   12.8070   12.1065 O.2       1 ALC1        0.0000 
     23 O          24.9220   11.7080   13.0740 O.2       5 ALL1        0.0000 
     24 O          26.6040   13.9060   11.1390 O.2       3 ALP1        0.0000 
     25 CA         20.0495   10.4480   12.2645 C.3       2 GLC5        0.0000 
     26 CA         20.2790   11.1140   13.7880 C.3       6 GLL5        0.0000 
     27 CA         16.1520   10.9640   14.7175 C.3       2 GLC5        0.0000 
     28 CA         16.8630   11.0530   16.4170 C.3       6 GLL5        0.0000 
     29 CA         15.4410   10.8750   13.0180 C.3       4 GLP5        0.0000 
     30 CA         15.3960   10.1740   16.1725 C.3       2 GLC5        0.0000 
     31 CA         13.9290    9.2950   15.9280 C.3       4 GLP5        0.0000 
     32 CA         20.7785   10.8080   19.8900 C.3       2 GLC5        0.0000 
     33 CA         19.4580   10.1860   19.0890 C.3       6 GLL5        0.0000 
     34 CA         22.0990   11.4300   20.6910 C.3       4 GLP5        0.0000 
     35 CA         19.9830    9.0530   20.2250 C.3       2 GLC5        0.0000 
     36 CA         20.5080    7.9200   21.3610 C.3       4 GLP5        0.0000 
     37 CA         19.1650    8.4005   19.6740 C.3       2 GLC5        0.0000 
     38 CA         17.8220    8.8810   17.9870 C.3       6 GLL5        0.0000 
     39 CA         16.4095    7.4710   18.5350 C.3       2 GLC5        0.0000 
     40 CA         14.9970    6.0610   19.0830 C.3       4 GLP5        0.0000 
     41 CA         15.5345    8.2390   19.3215 C.3       2 GLC5        0.0000 
     42 CA         16.7880    9.3750   19.0050 C.3       6 GLL5        0.0000 
     43 CA         14.2810    7.1030   19.6380 C.3       4 GLP5        0.0000 
     44 CA         14.8175   12.4940   17.1805 C.3       2 GLC5        0.0000 
     45 CA         15.3150   11.4410   18.7510 C.3       6 GLL5        0.0000 
     46 CA         14.3200   13.5470   15.6100 C.3       4 GLP5        0.0000 
     47 CA         15.3715   14.5085   18.8580 C.3       2 GLC5        0.0000 
     48 CA         15.1610   12.7870   19.4470 C.3       6 GLL5        0.0000 
     49 CA         15.5820   16.2300   18.2690 C.3       4 GLP5        0.0000 
     50 CA         13.6700   11.9835   22.4735 C.3       2 GLC5        0.0000 
     51 CA         13.4370   11.0550   20.4500 C.3       6 GLL5        0.0000 
     52 CA         13.9030   12.9120   24.4970 C.3       4 GLP5        0.0000 
     53 CA         10.7015    9.9030   21.5110 C.3       2 GLC5        0.0000 
     54 CA         11.9470   11.1280   20.1730 C.3       6 GLL5        0.0000 
     55 CA          9.4560    8.6780   22.8490 C.3       4 GLP5        0.0000 
     56 CA         10.0640   13.0615   18.1500 C.3       2 GLC5        0.0000 
     57 CA          9.8070   12.3800   20.1190 C.3       6 GLL5        0.0000 
     58 CA         10.3210   13.7430   16.1810 C.3       4 GLP5        0.0000 
     59 CA         12.9640   13.2020   22.6720 C.3       2 GLC5        0.0000 
     60 CA         12.0250   13.4920   20.8470 C.3       6 GLL5        0.0000 
     61 CA         10.8925   15.3600   21.3220 C.3       2 GLC5        0.0000 
     62 CA          9.7600   17.2280   21.7970 C.3       4 GLP5        0.0000 
     63 CA         22.6890    8.3740   12.9238 C.3       2 GLC5        0.0000 
     64 CA         23.3950   10.2880   14.2970 C.3       6 GLL5        0.0000 
     65 CA         23.0210   12.4275   11.9820 C.3       2 GLC5        0.0000 
     66 CA         23.9300   11.7020   14.1140 C.3       6 GLL5        0.0000 
     67 CA         22.6790   12.6710   10.0090 C.3       4 GLP5        0.0000 
     68 CA         24.6820   13.4655   14.3065 C.3       2 GLC5        0.0000 
     69 CA         22.7960   12.6660   13.7960 C.3       6 GLL5        0.0000 
     70 CA         26.0010   14.7470   14.6580 C.3       4 GLP5        0.0000 
     71 CA         20.9940   13.4238   13.7993 C.3       2 GLC5        0.0000 
     72 CA         19.6660   14.1830   13.2030 C.3       4 GLP5        0.0000 
     73 CA         20.1833   12.7003   13.8078 C.3       2 GLC5        0.0000 
     74 CA         19.7315   13.0633   14.7897 C.3       2 GLC5        0.0000 
     75 CA         20.1020   11.2770   16.1550 C.3       6 GLL5        0.0000 
     76 CA         19.6517   12.8760   18.8290 C.3       2 GLC5        0.0000 
     77 CA         19.4920   12.6100   16.5980 C.3       6 GLL5        0.0000 
     78 CA         20.3470   13.1810   20.5080 C.3       4 GLP5        0.0000 
     79 CA         17.4517   13.4175   16.2840 C.3       2 GLC5        0.0000 
     80 CA         18.4210   12.5320   17.7020 C.3       6 GLL5        0.0000 
     81 CA         15.9470   14.2640   15.4180 C.3       4 GLP5        0.0000 
     82 CA         19.2683   11.9138   19.1262 C.3       2 GLC5        0.0000 
     83 CA         17.6770   11.2030   17.6950 C.3       6 GLL5        0.0000 
     84 CA         16.6085   12.6960   16.2370 C.3       2 GLC5        0.0000 
     85 CA         15.6170    9.2115   17.2120 C.3       2 GLC5        0.0000 
     86 CA         17.6110    7.7691   17.4449 C.3       2 GLC5        0.0000 
     87 CA         17.6970    6.1080   16.4420 C.3       4 GLP5        0.0000 
     88 CA         14.5276   10.0631   17.4829 C.3       2 GLC5        0.0000 
     89 CA         14.2210   10.4930   19.2570 C.3       6 GLL5        0.0000 
     90 CA         14.0550    8.9385   19.7458 C.3       2 GLC5        0.0000 
     91 CA         11.4575   13.8115   18.7250 C.3       2 GLC5        0.0000 
     92 CA         11.2830   12.2800   20.3730 C.3       6 GLL5        0.0000 
     93 CA         11.2610   14.7370   16.8400 C.3       4 GLP5        0.0000 
@<TRIPOS>BOND
@<TRIPOS>SUBSTRUCTURE
     1 ALC1       22 GROUP        1 X    ALC  0     ROOT ALC X 1
     2 GLC5        1 GROUP        1 X    GLC  0     **** GLC X 6
     3 ALP1       24 GROUP        1 Y    ALP  0     ROOT ALP Y 8
     4 GLP5        3 GROUP        1 Y    GLP  0     **** GLP Y 13
     5 ALL1       23 GROUP        1 Z    ALL  0     ROOT ALL Z 15
     6 GLL5        2 GROUP        1 Z    GLL  0     **** GLL Z 20
@<TRIPOS>SET

