#    Name: 4lxj_LAN_1_ligand
#    Modification time : Tue Apr  8 00:12:01 2014

@<TRIPOS>MOLECULE
4lxj_LAN_1_ligand
   81    84     1     0     0
SMALL
NO_CHARGES


@<TRIPOS>ATOM
      1 C6         19.7280   10.0960   16.6840 C.2       1 LAN602      0.0000 
      2 C5         20.3180    8.7700   16.2400 C.3       1 LAN602      0.0000 
      3 C4         21.3960    8.8810   15.1640 C.3       1 LAN602      0.0000 
      4 C3         22.1500   10.2050   15.2310 C.3       1 LAN602      0.0000 
      5 C25        23.3950   10.2880   14.2970 C.3       1 LAN602      0.0000 
      6 C26        23.2210    9.7420   12.8900 C.3       1 LAN602      0.0000 
      7 C27        24.5210    9.5220   14.9720 C.3       1 LAN602      0.0000 
      8 C28        23.9300   11.7020   14.1140 C.3       1 LAN602      0.0000 
      9 O29        24.9220   11.7080   13.0740 O.3       1 LAN602      0.0000 
     10 C30        22.7960   12.6660   13.7960 C.3       1 LAN602      0.0000 
     11 C31        21.8480   12.6630   14.9950 C.3       1 LAN602      0.0000 
     12 C1         21.1220   11.3210   15.0370 C.3       1 LAN602      0.0000 
     13 C2         20.2790   11.1140   13.7880 C.3       1 LAN602      0.0000 
     14 C24        20.1020   11.2770   16.1550 C.2       1 LAN602      0.0000 
     15 C23        19.4920   12.6100   16.5980 C.3       1 LAN602      0.0000 
     16 C22        18.4210   12.5320   17.7020 C.3       1 LAN602      0.0000 
     17 C10        17.6770   11.2030   17.6950 C.3       1 LAN602      0.0000 
     18 C11        16.8630   11.0530   16.4170 C.3       1 LAN602      0.0000 
     19 C7         18.7020   10.0900   17.7940 C.3       1 LAN602      0.0000 
     20 C8         19.4580   10.1860   19.0890 C.3       1 LAN602      0.0000 
     21 C9         17.8220    8.8810   17.9870 C.3       1 LAN602      0.0000 
     22 C21        16.7880    9.3750   19.0050 C.3       1 LAN602      0.0000 
     23 C12        16.7480   10.8980   18.8860 C.3       1 LAN602      0.0000 
     24 C13        15.3150   11.4410   18.7510 C.3       1 LAN602      0.0000 
     25 C20        15.1610   12.7870   19.4470 C.3       1 LAN602      0.0000 
     26 C14        14.2210   10.4930   19.2570 C.3       1 LAN602      0.0000 
     27 C15        13.4370   11.0550   20.4500 C.3       1 LAN602      0.0000 
     28 C16        11.9470   11.1280   20.1730 C.2       1 LAN602      0.0000 
     29 C17        11.2830   12.2800   20.3730 C.2       1 LAN602      0.0000 
     30 C19         9.8070   12.3800   20.1190 C.3       1 LAN602      0.0000 
     31 C18        12.0250   13.4920   20.8470 C.3       1 LAN602      0.0000 
     32 H          19.5051    8.1214   15.8619 H         1 LAN602      0.0000 
     33 H          20.7467    8.2528   17.1193 H         1 LAN602      0.0000 
     34 H          20.9287    8.7829   14.1776 H         1 LAN602      0.0000 
     35 H          22.1072    8.0558   15.2833 H         1 LAN602      0.0000 
     36 H          22.5174   10.3005   16.2829 H         1 LAN602      0.0000 
     37 H          24.3745   12.0085   15.0616 H         1 LAN602      0.0000 
     38 H          22.2689   12.3304   12.9218 H         1 LAN602      0.0000 
     39 H          23.1901   13.6555   13.6535 H         1 LAN602      0.0000 
     40 H          21.1278   13.4594   14.8854 H         1 LAN602      0.0000 
     41 H          22.4168   12.7939   15.9029 H         1 LAN602      0.0000 
     42 H          19.0474   13.1112   15.7125 H         1 LAN602      0.0000 
     43 H          20.3077   13.2777   16.9469 H         1 LAN602      0.0000 
     44 H          17.7072   13.3492   17.5578 H         1 LAN602      0.0000 
     45 H          18.9062   12.6721   18.6731 H         1 LAN602      0.0000 
     46 H          18.3761    8.0834   18.4068 H         1 LAN602      0.0000 
     47 H          17.3337    8.6307   17.0824 H         1 LAN602      0.0000 
     48 H          17.0976    9.0981   19.9922 H         1 LAN602      0.0000 
     49 H          15.8267    8.9688   18.7642 H         1 LAN602      0.0000 
     50 H          17.2162   11.3019   19.7771 H         1 LAN602      0.0000 
     51 H          15.1217   11.6176   17.6748 H         1 LAN602      0.0000 
     52 H          14.6816    9.5405   19.5501 H         1 LAN602      0.0000 
     53 H          13.5214   10.2851   18.4368 H         1 LAN602      0.0000 
     54 H          13.8149   12.0566   20.6804 H         1 LAN602      0.0000 
     55 H          13.6154   10.4168   21.3217 H         1 LAN602      0.0000 
     56 H          11.5215   10.2665   19.8390 H         1 LAN602      0.0000 
     57 H          24.0594    9.8282   12.3518 H         1 LAN602      0.0000 
     58 H          22.9747    8.7728   12.8955 H         1 LAN602      0.0000 
     59 H          22.5013   10.2245   12.3907 H         1 LAN602      0.0000 
     60 H          25.3575    9.5319   14.4241 H         1 LAN602      0.0000 
     61 H          24.7508    9.9095   15.8648 H         1 LAN602      0.0000 
     62 H          24.2801    8.5631   15.1219 H         1 LAN602      0.0000 
     63 H          20.8404   11.0903   12.9608 H         1 LAN602      0.0000 
     64 H          19.7702   10.2538   13.8217 H         1 LAN602      0.0000 
     65 H          19.6089   11.8463   13.6666 H         1 LAN602      0.0000 
     66 H          17.4424   11.0793   15.6024 H         1 LAN602      0.0000 
     67 H          16.3641   10.1866   16.3940 H         1 LAN602      0.0000 
     68 H          16.1868   11.7833   16.3195 H         1 LAN602      0.0000 
     69 H          20.0846    9.4163   19.2112 H         1 LAN602      0.0000 
     70 H          20.0062   11.0209   19.1380 H         1 LAN602      0.0000 
     71 H          18.8437   10.1920   19.8781 H         1 LAN602      0.0000 
     72 H          15.3609   12.7245   20.4248 H         1 LAN602      0.0000 
     73 H          15.7778   13.4753   19.0651 H         1 LAN602      0.0000 
     74 H          14.2316   13.1458   19.3602 H         1 LAN602      0.0000 
     75 H           9.4587   13.2977   20.3098 H         1 LAN602      0.0000 
     76 H           9.5789   12.1717   19.1679 H         1 LAN602      0.0000 
     77 H           9.2879   11.7447   20.6908 H         1 LAN602      0.0000 
     78 H          12.4627   13.3367   21.7326 H         1 LAN602      0.0000 
     79 H          12.7452   13.7604   20.2072 H         1 LAN602      0.0000 
     80 H          11.4190   14.2803   20.9537 H         1 LAN602      0.0000 
     81 H          25.0425   12.6720   12.8370 H         1 LAN602      0.0000 
@<TRIPOS>BOND
     1    2    1 1    
     2   14    1 2    
     3   19    1 1    
     4    3    2 1    
     5   32    2 1    
     6   33    2 1    
     7    4    3 1    
     8   34    3 1    
     9   35    3 1    
    10    5    4 1    
    11   12    4 1    
    12   36    4 1    
    13    6    5 1    
    14    7    5 1    
    15    8    5 1    
    16   57    6 1    
    17   58    6 1    
    18   59    6 1    
    19   60    7 1    
    20   61    7 1    
    21   62    7 1    
    22    9    8 1    
    23   10    8 1    
    24   37    8 1    
    25   81    9 1    
    26   11   10 1    
    27   38   10 1    
    28   39   10 1    
    29   12   11 1    
    30   40   11 1    
    31   41   11 1    
    32   13   12 1    
    33   14   12 1    
    34   63   13 1    
    35   64   13 1    
    36   65   13 1    
    37   15   14 1    
    38   16   15 1    
    39   42   15 1    
    40   43   15 1    
    41   17   16 1    
    42   44   16 1    
    43   45   16 1    
    44   18   17 1    
    45   19   17 1    
    46   23   17 1    
    47   66   18 1    
    48   67   18 1    
    49   68   18 1    
    50   20   19 1    
    51   21   19 1    
    52   69   20 1    
    53   70   20 1    
    54   71   20 1    
    55   22   21 1    
    56   46   21 1    
    57   47   21 1    
    58   23   22 1    
    59   48   22 1    
    60   49   22 1    
    61   24   23 1    
    62   50   23 1    
    63   25   24 1    
    64   26   24 1    
    65   51   24 1    
    66   72   25 1    
    67   73   25 1    
    68   74   25 1    
    69   27   26 1    
    70   52   26 1    
    71   53   26 1    
    72   28   27 1    
    73   54   27 1    
    74   55   27 1    
    75   29   28 2    
    76   56   28 1    
    77   30   29 1    
    78   31   29 1    
    79   75   30 1    
    80   76   30 1    
    81   77   30 1    
    82   78   31 1    
    83   79   31 1    
    84   80   31 1    
@<TRIPOS>SUBSTRUCTURE
     1 LAN602      1 GROUP   
@<TRIPOS>SET

