#    Name: 3f9w_SAH_1_INTS_M
#    Modification time : Tue Mar 25 03:27:50 2014

@<TRIPOS>MOLECULE
3f9w_SAH_1_INTS_M
   59     0    12     0     0
SMALL
NO_CHARGES


@<TRIPOS>ATOM
      1 O          -3.3205    3.9060  -20.9270 O.2       1 ALC1        0.0000 
      2 O          -2.0610    4.2330  -20.5230 O.2       9 ALL1        0.0000 
      3 O          -4.5800    3.5790  -21.3310 O.2       5 ALP1        0.0000 
      4 O          -1.6195    3.4685  -21.6010 O.2       1 ALC1        0.0000 
      5 O          -1.1780    2.7040  -22.6790 O.2       5 ALP1        0.0000 
      6 O          -1.9550    2.8815  -19.9640 O.2       1 ALC1        0.0000 
      7 O          -1.8490    1.5300  -19.4050 O.2       5 ALP1        0.0000 
      8 CA          1.1210    6.5830  -17.2535 C.3       4 GLC5        0.0000 
      9 CA          0.1330    5.2300  -16.8580 C.3      12 GLL5        0.0000 
     10 CA          2.1090    7.9360  -17.6490 C.3       8 GLP5        0.0000 
     11 NZ          0.6925    8.1670  -21.4715 N.4       3 LYC4        0.0000 
     12 NZ         -0.1500    7.3170  -20.7290 N.4      11 LYL4        0.0000 
     13 NZ          1.7190    8.5330  -23.4340 N.4       7 LYP4        0.0000 
     14 N           0.3860    7.4415  -22.3225 N.am      2 SEC2        0.0000 
     15 N          -0.1500    7.3170  -20.7290 N.am     10 SEL2        0.0000 
     16 N           0.9220    7.5660  -23.9160 N.am      6 SEP2        0.0000 
     17 N           0.6925    8.1670  -21.4715 N.am      2 SEC2        0.0000 
     18 N           1.5350    9.0170  -22.2140 N.am      6 SEP2        0.0000 
     19 N           0.1935    8.2445  -19.8505 N.am      2 SEC2        0.0000 
     20 N           0.5370    9.1720  -18.9720 N.am      6 SEP2        0.0000 
     21 N          -1.8450    5.4180  -23.1905 N.am      2 SEC2        0.0000 
     22 N          -1.3270    6.2360  -22.1640 N.am     10 SEL2        0.0000 
     23 N          -2.3630    4.6000  -24.2170 N.am      6 SEP2        0.0000 
     24 N          -0.2025    6.9010  -23.0400 N.am      2 SEC2        0.0000 
     25 CA         -1.4625    3.2735  -14.8210 C.3       4 GLC5        0.0000 
     26 CA         -1.4030    4.8580  -15.9320 C.3      12 GLL5        0.0000 
     27 CA         -1.5220    1.6890  -13.7100 C.3       8 GLP5        0.0000 
     28 CA         -2.7020    3.3070  -14.7195 C.3       4 GLC5        0.0000 
     29 CA         -3.8820    4.9250  -15.7290 C.3      12 GLL5        0.0000 
     30 N          -3.0120   -0.7050  -16.5785 N.am      2 SEC2        0.0000 
     31 N          -4.0190    0.3670  -16.8360 N.am     10 SEL2        0.0000 
     32 N          -2.0050   -1.7770  -16.3210 N.am      6 SEP2        0.0000 
     33 CA         -3.5665   -0.2190  -18.1865 C.3       4 GLC5        0.0000 
     34 CA         -5.2980    0.3930  -17.2360 C.3      12 GLL5        0.0000 
     35 CA         -1.8350   -0.8310  -19.1370 C.3       8 GLP5        0.0000 
     36 CA         -4.1905   -0.6740  -15.6850 C.3       4 GLC5        0.0000 
     37 CA         -3.0830   -1.7410  -14.1340 C.3       8 GLP5        0.0000 
     38 CA         -7.8760   -0.6250  -16.2745 C.3       4 GLC5        0.0000 
     39 CA         -6.2990   -0.5690  -17.3680 C.3      12 GLL5        0.0000 
     40 CA         -9.4530   -0.6810  -15.1810 C.3       8 GLP5        0.0000 
     41 O          -5.0645   -2.8275  -16.5790 O.2       1 ALC1        0.0000 
     42 O          -6.1010   -1.8460  -17.0520 O.2       9 ALL1        0.0000 
     43 O          -4.0280   -3.8090  -16.1060 O.2       5 ALP1        0.0000 
     44 CA         -7.0045    0.3315  -19.7390 C.3       4 GLC5        0.0000 
     45 CA         -7.7310    1.1000  -18.1550 C.3      12 GLL5        0.0000 
     46 CA         -6.2780   -0.4370  -21.3230 C.3       8 GLP5        0.0000 
     47 CA         -8.5920    0.2095  -16.6680 C.3       4 GLC5        0.0000 
     48 CA         -5.5470    1.2590  -19.6055 C.3       4 GLC5        0.0000 
     49 CA         -5.5900    1.6990  -17.5920 C.3      12 GLL5        0.0000 
     50 CA         -5.5040    0.8190  -21.6190 C.3       8 GLP5        0.0000 
     51 CA          1.1498    6.1025  -18.2602 C.3       4 GLC5        0.0000 
     52 CA          0.1590    3.9540  -18.1650 C.3      12 GLL5        0.0000 
     53 CA          1.8552    3.8645  -19.5682 C.3       4 GLC5        0.0000 
     54 CA          0.2220    4.5840  -19.5780 C.3      12 GLL5        0.0000 
     55 CA          3.5200    3.4600  -20.2650 C.3       8 GLP5        0.0000 
     56 CA         -5.4090    3.7354  -15.4360 C.3       4 GLC5        0.0000 
     57 CA         -6.4150    3.1410  -13.9180 C.3       8 GLP5        0.0000 
     58 CA         -5.5758   -0.8255  -19.1495 C.3       4 GLC5        0.0000 
     59 CA         -5.3530   -1.5630  -20.9970 C.3       8 GLP5        0.0000 
@<TRIPOS>BOND
@<TRIPOS>SUBSTRUCTURE
     1 ALC1        1 GROUP        1 X    ALC  0     ROOT ALC X 1
     2 SEC2       14 GROUP        1 X    SEC  0     **** SEC X 2
     3 LYC4       11 GROUP        1 X    LYC  0     **** LYC X 4
     4 GLC5        8 GROUP        1 X    GLC  0     **** GLC X 6
     5 ALP1        3 GROUP        1 Y    ALP  0     ROOT ALP Y 8
     6 SEP2       16 GROUP        1 Y    SEP  0     **** SEP Y 9
     7 LYP4       13 GROUP        1 Y    LYP  0     **** LYP Y 11
     8 GLP5       10 GROUP        1 Y    GLP  0     **** GLP Y 13
     9 ALL1        2 GROUP        1 Z    ALL  0     ROOT ALL Z 15
    10 SEL2       15 GROUP        1 Z    SEL  0     **** SEL Z 16
    11 LYL4       12 GROUP        1 Z    LYL  0     **** LYL Z 18
    12 GLL5        9 GROUP        1 Z    GLL  0     **** GLL Z 20
@<TRIPOS>SET

