#    Name: 3f9w_SAH_1_ligand
#    Modification time : Tue Mar 25 03:27:50 2014

@<TRIPOS>MOLECULE
3f9w_SAH_1_ligand
   46    48     1     0     0
SMALL
NO_CHARGES


@<TRIPOS>ATOM
      1 N          -2.0610    4.2330  -20.5230 N.4       1 SAH801      0.0000 
      2 CA         -1.1160    5.2560  -19.9660 C.3       1 SAH801      0.0000 
      3 CB          0.2220    4.5840  -19.5780 C.3       1 SAH801      0.0000 
      4 CG          0.1590    3.9540  -18.1650 C.3       1 SAH801      0.0000 
      5 SD          0.1330    5.2300  -16.8580 S.3       1 SAH801      0.0000 
      6 C          -0.8490    6.3350  -21.0220 C.2       1 SAH801      0.0000 
      7 O          -0.1500    7.3170  -20.7290 O.co2     1 SAH801      0.0000 
      8 OXT        -1.3270    6.2360  -22.1640 O.co2     1 SAH801      0.0000 
      9 C5'        -1.4030    4.8580  -15.9320 C.3       1 SAH801      0.0000 
     10 C4'        -2.7110    5.1550  -16.6780 C.3       1 SAH801      0.0000 
     11 O4'        -2.9330    4.1520  -17.6950 O.3       1 SAH801      0.0000 
     12 C3'        -3.8820    4.9250  -15.7290 C.3       1 SAH801      0.0000 
     13 O3'        -4.1130    6.0550  -14.8940 O.3       1 SAH801      0.0000 
     14 C2'        -5.0300    4.7480  -16.7170 C.3       1 SAH801      0.0000 
     15 O2'        -5.3220    5.9640  -17.4350 O.3       1 SAH801      0.0000 
     16 C1'        -4.3500    3.8230  -17.6850 C.3       1 SAH801      0.0000 
     17 N9         -4.4860    2.4080  -17.3830 N.pl3     1 SAH801      0.0000 
     18 C8         -3.5320    1.5950  -16.9230 C.2       1 SAH801      0.0000 
     19 N7         -4.0190    0.3670  -16.8360 N.2       1 SAH801      0.0000 
     20 C5         -5.2980    0.3930  -17.2360 C.ar      1 SAH801      0.0000 
     21 C6         -6.2990   -0.5690  -17.3680 C.ar      1 SAH801      0.0000 
     22 N6         -6.1010   -1.8460  -17.0520 N.pl3     1 SAH801      0.0000 
     23 N1         -7.5000   -0.1740  -17.8270 N.ar      1 SAH801      0.0000 
     24 C2         -7.7310    1.1000  -18.1550 C.ar      1 SAH801      0.0000 
     25 N3         -6.8100    2.0340  -18.0550 N.ar      1 SAH801      0.0000 
     26 C4         -5.5900    1.6990  -17.5920 C.ar      1 SAH801      0.0000 
     27 H          -1.5339    5.7139  -19.0984 H         1 SAH801      0.0000 
     28 H           1.0134    5.3308  -19.5977 H         1 SAH801      0.0000 
     29 H           0.4518    3.8053  -20.3029 H         1 SAH801      0.0000 
     30 H           1.0268    3.3898  -17.9162 H         1 SAH801      0.0000 
     31 H          -0.7438    3.4206  -17.9815 H         1 SAH801      0.0000 
     32 H          -1.2739    5.4544  -15.0371 H         1 SAH801      0.0000 
     33 H          -1.2722    3.8092  -15.6951 H         1 SAH801      0.0000 
     34 H          -2.7348    6.1160  -17.0442 H         1 SAH801      0.0000 
     35 H          -3.7351    4.0189  -15.2247 H         1 SAH801      0.0000 
     36 H          -5.8163    4.2780  -16.2767 H         1 SAH801      0.0000 
     37 H          -4.7474    4.0271  -18.6862 H         1 SAH801      0.0000 
     38 H          -2.6237    1.8684  -16.6902 H         1 SAH801      0.0000 
     39 H          -6.8870   -2.4540  -17.1640 H         1 SAH801      0.0000 
     40 H          -5.1840   -2.0828  -16.7310 H         1 SAH801      0.0000 
     41 H          -8.7022    1.3614  -18.5108 H         1 SAH801      0.0000 
     42 H          -2.2610    3.5119  -19.8596 H         1 SAH801      0.0000 
     43 H          -2.9357    4.6398  -20.7863 H         1 SAH801      0.0000 
     44 H          -1.6882    3.7873  -21.3369 H         1 SAH801      0.0000 
     45 H          -4.6976    6.6605  -15.4341 H         1 SAH801      0.0000 
     46 H          -4.7070    5.9530  -18.2235 H         1 SAH801      0.0000 
@<TRIPOS>BOND
     1    2    1 1    
     2   42    1 1    
     3   43    1 1    
     4   44    1 1    
     5    3    2 1    
     6    6    2 1    
     7   27    2 1    
     8    4    3 1    
     9   28    3 1    
    10   29    3 1    
    11    5    4 1    
    12   30    4 1    
    13   31    4 1    
    14    9    5 1    
    15    7    6 ar   
    16    8    6 ar   
    17   10    9 1    
    18   32    9 1    
    19   33    9 1    
    20   11   10 1    
    21   12   10 1    
    22   34   10 1    
    23   16   11 1    
    24   13   12 1    
    25   14   12 1    
    26   35   12 1    
    27   45   13 1    
    28   15   14 1    
    29   16   14 1    
    30   36   14 1    
    31   46   15 1    
    32   17   16 1    
    33   37   16 1    
    34   18   17 1    
    35   26   17 1    
    36   19   18 2    
    37   38   18 1    
    38   20   19 1    
    39   21   20 ar   
    40   26   20 ar   
    41   22   21 1    
    42   23   21 ar   
    43   39   22 1    
    44   40   22 1    
    45   24   23 ar   
    46   25   24 ar   
    47   41   24 1    
    48   26   25 ar   
@<TRIPOS>SUBSTRUCTURE
     1 SAH801      1 GROUP   
@<TRIPOS>SET

