#    Name: 2uvn_ECN_1_INTS_M
#    Modification time : Tue Mar 25 00:22:19 2014

@<TRIPOS>MOLECULE
2uvn_ECN_1_INTS_M
   71     0     3     0     0
SMALL
NO_CHARGES


@<TRIPOS>ATOM
      1 CA        -52.0265   52.4555  -33.9115 C.3       1 GLC5        0.0000 
      2 CA        -53.2630   53.7040  -33.0770 C.3       3 GLL5        0.0000 
      3 CA        -50.7900   51.2070  -34.7460 C.3       2 GLP5        0.0000 
      4 CA        -54.2285   52.1620  -34.2645 C.3       1 GLC5        0.0000 
      5 CA        -55.1940   50.6200  -35.4520 C.3       2 GLP5        0.0000 
      6 CA        -57.4965   44.3905  -34.8415 C.3       1 GLC5        0.0000 
      7 CA        -56.5450   45.6400  -33.4630 C.3       3 GLL5        0.0000 
      8 CA        -58.4480   43.1410  -36.2200 C.3       2 GLP5        0.0000 
      9 CA        -55.5890   47.0390  -34.7850 C.3       1 GLC5        0.0000 
     10 CA        -54.6330   48.4380  -36.1070 C.3       2 GLP5        0.0000 
     11 CA        -55.2555   44.2620  -33.4160 C.3       1 GLC5        0.0000 
     12 CA        -53.9660   42.8840  -33.3690 C.3       2 GLP5        0.0000 
     13 CA        -56.9640   56.0570  -29.1025 C.3       1 GLC5        0.0000 
     14 CA        -56.2090   54.0430  -28.4650 C.3       3 GLL5        0.0000 
     15 CA        -57.7190   58.0710  -29.7400 C.3       2 GLP5        0.0000 
     16 CA        -57.8690   54.2150  -27.5000 C.3       1 GLC5        0.0000 
     17 CA        -59.5290   54.3870  -26.5350 C.3       2 GLP5        0.0000 
     18 CA        -56.6395   53.6785  -31.3225 C.3       1 GLC5        0.0000 
     19 CA        -56.1950   52.9820  -29.3040 C.3       3 GLL5        0.0000 
     20 CA        -57.0840   54.3750  -33.3410 C.3       2 GLP5        0.0000 
     21 CA        -54.7580   58.0775  -35.3330 C.3       1 GLC5        0.0000 
     22 CA        -54.2540   57.6540  -33.5740 C.3       3 GLL5        0.0000 
     23 CA        -55.2620   58.5010  -37.0920 C.3       2 GLP5        0.0000 
     24 CA        -53.6310   59.7495  -33.9180 C.3       1 GLC5        0.0000 
     25 CA        -53.0080   61.8450  -34.2620 C.3       2 GLP5        0.0000 
     26 CA        -55.3650   58.9720  -33.5625 C.3       1 GLC5        0.0000 
     27 CA        -56.4760   60.2900  -33.5510 C.3       2 GLP5        0.0000 
     28 CA        -56.7590   49.1080  -34.2985 C.3       1 GLC5        0.0000 
     29 CA        -57.0180   48.2470  -32.6970 C.3       3 GLL5        0.0000 
     30 CA        -56.5000   49.9690  -35.9000 C.3       2 GLP5        0.0000 
     31 CA        -57.1180   50.4030  -33.9885 C.3       1 GLC5        0.0000 
     32 CA        -57.7360   50.8370  -32.0770 C.3       3 GLL5        0.0000 
     33 CA        -58.3090   51.2720  -33.8070 C.3       1 GLC5        0.0000 
     34 CA        -58.8820   51.7070  -35.5370 C.3       2 GLP5        0.0000 
     35 CA        -57.4100   52.6060  -32.7090 C.3       1 GLC5        0.0000 
     36 CA        -58.5760   51.1615  -30.5290 C.3       1 GLC5        0.0000 
     37 CA        -59.4160   51.4860  -28.9810 C.3       2 GLP5        0.0000 
     38 CA        -55.7455   50.3820  -27.4380 C.3       1 GLC5        0.0000 
     39 CA        -54.9210   50.7530  -29.3370 C.3       3 GLL5        0.0000 
     40 CA        -56.5700   50.0110  -25.5390 C.3       2 GLP5        0.0000 
     41 CA        -53.9580   49.8095  -27.7960 C.3       1 GLC5        0.0000 
     42 CA        -52.9950   48.8660  -26.2550 C.3       2 GLP5        0.0000 
     43 CA        -51.5075   50.8035  -30.9485 C.3       1 GLC5        0.0000 
     44 CA        -52.9300   52.3480  -30.8880 C.3       3 GLL5        0.0000 
     45 CA        -50.0850   49.2590  -31.0090 C.3       2 GLP5        0.0000 
     46 CA        -51.9988   55.2497  -34.3212 C.3       1 GLC5        0.0000 
     47 CA        -50.5770   56.1600  -35.2560 C.3       2 GLP5        0.0000 
     48 CA        -56.4375   46.3648  -35.0715 C.3       1 GLC5        0.0000 
     49 CA        -56.1150   47.1310  -32.7130 C.3       3 GLL5        0.0000 
     50 CA        -56.5450   46.3440  -37.0550 C.3       2 GLP5        0.0000 
     51 CA        -57.8090   52.4992  -28.9327 C.3       1 GLC5        0.0000 
     52 CA        -55.4002   54.8885  -32.2805 C.3       1 GLC5        0.0000 
     53 CA        -53.5630   54.7850  -30.9150 C.3       3 GLL5        0.0000 
     54 CA        -52.6475   57.3825  -34.2605 C.3       1 GLC5        0.0000 
     55 CA        -53.8800   56.1280  -32.8900 C.3       3 GLL5        0.0000 
     56 CA        -51.2280   57.8740  -35.2890 C.3       2 GLP5        0.0000 
     57 CA        -55.5755   55.6330  -33.2865 C.3       1 GLC5        0.0000 
     58 CA        -54.5832   45.4750  -31.7142 C.3       1 GLC5        0.0000 
     59 CA        -54.8500   47.2470  -32.1160 C.3       3 GLL5        0.0000 
     60 CA        -53.6840   43.7610  -31.0140 C.3       2 GLP5        0.0000 
     61 CA        -54.8866   49.8227  -33.1819 C.3       1 GLC5        0.0000 
     62 CA        -55.3450   49.5830  -31.4980 C.3       3 GLL5        0.0000 
     63 CA        -54.3420   49.4460  -35.0350 C.3       2 GLP5        0.0000 
     64 CA        -52.8383   47.4318  -31.6625 C.3       1 GLC5        0.0000 
     65 CA        -54.4650   48.4620  -31.5140 C.3       3 GLL5        0.0000 
     66 CA        -51.0190   47.0090  -31.5100 C.3       2 GLP5        0.0000 
     67 CA        -55.2519   54.3476  -33.1873 C.3       1 GLC5        0.0000 
     68 CA        -53.2600   53.6270  -31.6650 C.3       3 GLL5        0.0000 
     69 CA        -54.6579   48.6358  -33.4996 C.3       1 GLC5        0.0000 
     70 CA        -55.6519   47.0922  -30.1976 C.3       1 GLC5        0.0000 
     71 CA        -56.3300   46.3590  -28.4310 C.3       2 GLP5        0.0000 
@<TRIPOS>BOND
@<TRIPOS>SUBSTRUCTURE
     1 GLC5        1 GROUP        1 X    GLC  0     ROOT GLC X 6
     2 GLP5        3 GROUP        1 Y    GLP  0     ROOT GLP Y 13
     3 GLL5        2 GROUP        1 Z    GLL  0     ROOT GLL Z 20
@<TRIPOS>SET

