#    Name: 2uvn_ECN_1_ligand
#    Modification time : Tue Mar 25 00:22:19 2014

@<TRIPOS>MOLECULE
2uvn_ECN_1_ligand
   39    41     1     0     0
SMALL
NO_CHARGES


@<TRIPOS>ATOM
      1 C1        -53.2600   53.6270  -31.6650 C.ar      1 ECN1409     0.0000 
      2 C2        -53.2630   53.7040  -33.0770 C.ar      1 ECN1409     0.0000 
      3 CL8       -56.5450   45.6400  -33.4630 Cl        1 ECN1409     0.0000 
      4 C6        -56.2090   54.0430  -28.4650 C.2       1 ECN1409     0.0000 
      5 C7        -56.1950   52.9820  -29.3040 C.2       1 ECN1409     0.0000 
      6 C9        -53.8700   56.0190  -31.5250 C.ar      1 ECN1409     0.0000 
      7 C10       -53.5630   54.7850  -30.9150 C.ar      1 ECN1409     0.0000 
      8 C11       -53.8800   56.1280  -32.8900 C.ar      1 ECN1409     0.0000 
      9 CL2       -54.2540   57.6540  -33.5740 Cl        1 ECN1409     0.0000 
     10 C16       -56.1150   47.1310  -32.7130 C.ar      1 ECN1409     0.0000 
     11 C15       -57.0180   48.2470  -32.6970 C.ar      1 ECN1409     0.0000 
     12 C14       -56.6340   49.4830  -32.0850 C.ar      1 ECN1409     0.0000 
     13 C5        -55.3450   49.5830  -31.4980 C.ar      1 ECN1409     0.0000 
     14 CL4       -57.7360   50.8370  -32.0770 Cl        1 ECN1409     0.0000 
     15 N19       -55.3570   53.7720  -27.4800 N.2       1 ECN1409     0.0000 
     16 C19       -54.9210   50.7530  -29.3370 C.3       1 ECN1409     0.0000 
     17 C20       -54.8730   50.8660  -30.8660 C.3       1 ECN1409     0.0000 
     18 O20       -53.5150   51.1330  -31.4030 O.3       1 ECN1409     0.0000 
     19 C17       -54.8500   47.2470  -32.1160 C.ar      1 ECN1409     0.0000 
     20 N1        -55.2940   52.0600  -28.7840 N.pl3     1 ECN1409     0.0000 
     21 C3        -54.8120   52.5910  -27.6670 C.2       1 ECN1409     0.0000 
     22 C8        -52.9300   52.3480  -30.8880 C.3       1 ECN1409     0.0000 
     23 C13       -53.5780   54.9750  -33.6960 C.ar      1 ECN1409     0.0000 
     24 C21       -54.4650   48.4620  -31.5140 C.ar      1 ECN1409     0.0000 
     25 H         -53.0543   52.9073  -33.6495 H         1 ECN1409     0.0000 
     26 H         -56.7391   54.8363  -28.5722 H         1 ECN1409     0.0000 
     27 H         -56.6966   52.8675  -30.1016 H         1 ECN1409     0.0000 
     28 H         -54.0846   56.8292  -30.9266 H         1 ECN1409     0.0000 
     29 H         -53.5593   54.7247  -29.8790 H         1 ECN1409     0.0000 
     30 H         -57.9370   48.1572  -33.1241 H         1 ECN1409     0.0000 
     31 H         -53.9406   50.4465  -28.9858 H         1 ECN1409     0.0000 
     32 H         -55.6519   49.9949  -29.0729 H         1 ECN1409     0.0000 
     33 H         -55.5460   51.6565  -31.1792 H         1 ECN1409     0.0000 
     34 H         -54.2064   46.4524  -32.1164 H         1 ECN1409     0.0000 
     35 H         -54.1528   52.1629  -27.0789 H         1 ECN1409     0.0000 
     36 H         -53.2397   52.5168  -29.8255 H         1 ECN1409     0.0000 
     37 H         -51.8144   52.2637  -30.8475 H         1 ECN1409     0.0000 
     38 H         -53.5847   55.0488  -34.7085 H         1 ECN1409     0.0000 
     39 H         -53.5395   48.5474  -31.0793 H         1 ECN1409     0.0000 
@<TRIPOS>BOND
     1    2    1 ar   
     2    7    1 ar   
     3   22    1 1    
     4   23    2 ar   
     5   25    2 1    
     6   10    3 1    
     7    5    4 2    
     8   15    4 1    
     9   26    4 1    
    10   20    5 1    
    11   27    5 1    
    12    7    6 ar   
    13    8    6 ar   
    14   28    6 1    
    15   29    7 1    
    16    9    8 1    
    17   23    8 ar   
    18   11   10 ar   
    19   19   10 ar   
    20   12   11 ar   
    21   30   11 1    
    22   13   12 ar   
    23   14   12 1    
    24   17   13 1    
    25   24   13 ar   
    26   21   15 2    
    27   17   16 1    
    28   20   16 1    
    29   31   16 1    
    30   32   16 1    
    31   18   17 1    
    32   33   17 1    
    33   22   18 1    
    34   24   19 ar   
    35   34   19 1    
    36   21   20 1    
    37   35   21 1    
    38   36   22 1    
    39   37   22 1    
    40   38   23 1    
    41   39   24 1    
@<TRIPOS>SUBSTRUCTURE
     1 ECN1409     1 GROUP   
@<TRIPOS>SET

