#    Name: 4da8_BG2_1_INTS_M
#    Modification time : Mon Apr  7 22:27:09 2014

@<TRIPOS>MOLECULE
4da8_BG2_1_INTS_M
   44     0     9     0     0
SMALL
NO_CHARGES


@<TRIPOS>ATOM
      1 CA        -49.9010   15.7690   24.1330 C.3       3 GLC5        0.0000 
      2 CA        -49.2720   17.6230   24.4760 C.3       9 GLL5        0.0000 
      3 CA        -50.5300   13.9150   23.7900 C.3       6 GLP5        0.0000 
      4 CA        -51.4145   17.2435   24.4485 C.3       3 GLC5        0.0000 
      5 CA        -53.5570   16.8640   24.4210 C.3       6 GLP5        0.0000 
      6 CA        -49.5580   16.7430   26.0745 C.3       3 GLC5        0.0000 
      7 CA        -49.8440   15.8630   27.6730 C.3       6 GLP5        0.0000 
      8 CA        -52.9875   20.7435   22.8695 C.3       3 GLC5        0.0000 
      9 CA        -51.3970   21.0190   24.3130 C.3       9 GLL5        0.0000 
     10 CA        -54.5780   20.4680   21.4260 C.3       6 GLP5        0.0000 
     11 CA        -52.5465   18.7640   25.0435 C.3       3 GLC5        0.0000 
     12 CA        -51.5360   20.6640   25.6660 C.3       9 GLL5        0.0000 
     13 CA        -53.0090   19.5150   26.7155 C.3       3 GLC5        0.0000 
     14 CA        -54.4820   18.3660   27.7650 C.3       6 GLP5        0.0000 
     15 N         -50.8870   18.1590   26.6880 N.am      2 SEC2        0.0000 
     16 N         -50.8850   19.5140   25.9210 N.am      8 SEL2        0.0000 
     17 N         -50.8890   16.8040   27.4550 N.am      5 SEP2        0.0000 
     18 CA        -52.6640   20.5810   21.3575 C.3       3 GLC5        0.0000 
     19 CA        -50.7500   20.6940   21.2890 C.3       9 GLL5        0.0000 
     20 CA        -51.5345   22.3355   20.9105 C.3       3 GLC5        0.0000 
     21 CA        -52.3190   23.9770   20.5320 C.3       6 GLP5        0.0000 
     22 N         -52.5060   20.7405   19.8430 N.am      2 SEC2        0.0000 
     23 N         -51.2630   19.8710   20.2510 N.am      8 SEL2        0.0000 
     24 N         -53.7490   21.6100   19.4350 N.am      5 SEP2        0.0000 
     25 N         -51.3165   19.8935   18.9580 N.am      2 SEC2        0.0000 
     26 N         -51.3700   19.9160   17.6650 N.am      5 SEP2        0.0000 
     27 CA        -48.1655   22.5910   19.4255 C.3       3 GLC5        0.0000 
     28 CA        -49.5960   21.4450   20.7280 C.3       9 GLL5        0.0000 
     29 CA        -46.7350   23.7370   18.1230 C.3       6 GLP5        0.0000 
     30 N         -50.3955   20.3855   18.5685 N.am      2 SEC2        0.0000 
     31 N         -49.4210   20.8550   19.4720 N.am      8 SEL2        0.0000 
     32 O         -49.7125   21.2150   18.3195 O.2       1 ALC1        0.0000 
     33 O         -49.4210   20.8550   19.4720 O.2       7 ALL1        0.0000 
     34 O         -50.0040   21.5750   17.1670 O.2       4 ALP1        0.0000 
     35 CA        -47.0305   21.9595   20.1225 C.3       3 GLC5        0.0000 
     36 CA        -48.3770   21.1180   21.5380 C.3       9 GLL5        0.0000 
     37 CA        -45.6840   22.8010   18.7070 C.3       6 GLP5        0.0000 
     38 CA        -46.4565   22.8535   21.3615 C.3       3 GLC5        0.0000 
     39 CA        -47.9160   22.2480   22.4610 C.3       9 GLL5        0.0000 
     40 CA        -44.9970   23.4590   20.2620 C.3       6 GLP5        0.0000 
     41 CA        -48.5175   22.8985   24.1540 C.3       3 GLC5        0.0000 
     42 CA        -49.1190   23.5490   25.8470 C.3       6 GLP5        0.0000 
     43 CA        -49.6131   23.2689   21.4170 C.3       3 GLC5        0.0000 
     44 CA        -50.7750   24.7730   21.0370 C.3       6 GLP5        0.0000 
@<TRIPOS>BOND
@<TRIPOS>SUBSTRUCTURE
     1 ALC1       32 GROUP        1 X    ALC  0     ROOT ALC X 1
     2 SEC2       15 GROUP        1 X    SEC  0     **** SEC X 2
     3 GLC5        1 GROUP        1 X    GLC  0     **** GLC X 6
     4 ALP1       34 GROUP        1 Y    ALP  0     ROOT ALP Y 8
     5 SEP2       17 GROUP        1 Y    SEP  0     **** SEP Y 9
     6 GLP5        3 GROUP        1 Y    GLP  0     **** GLP Y 13
     7 ALL1       33 GROUP        1 Z    ALL  0     ROOT ALL Z 15
     8 SEL2       16 GROUP        1 Z    SEL  0     **** SEL Z 16
     9 GLL5        2 GROUP        1 Z    GLL  0     **** GLL Z 20
@<TRIPOS>SET

