#    Name: 4da8_BG2_1_ligand
#    Modification time : Mon Apr  7 22:27:09 2014

@<TRIPOS>MOLECULE
4da8_BG2_1_ligand
   33    35     1     0     0
SMALL
NO_CHARGES


@<TRIPOS>ATOM
      1 BR        -49.2720   17.6230   24.4760 Br        1 BG2301      0.0000 
      2 N1        -52.8320   22.5940   26.0520 N.am      1 BG2301      0.0000 
      3 C2        -52.6940   22.9290   24.7510 C.2       1 BG2301      0.0000 
      4 N2        -53.2720   24.0410   24.2900 N.pl3     1 BG2301      0.0000 
      5 N3        -51.9970   22.1630   23.8930 N.2       1 BG2301      0.0000 
      6 C4        -51.3970   21.0190   24.3130 C.2       1 BG2301      0.0000 
      7 C5        -51.5360   20.6640   25.6660 C.2       1 BG2301      0.0000 
      8 C6        -52.2530   21.4550   26.5230 C.2       1 BG2301      0.0000 
      9 O6        -52.3180   21.0340   27.8200 O.2       1 BG2301      0.0000 
     10 N7        -50.8850   19.5140   25.9210 N.2       1 BG2301      0.0000 
     11 C8        -50.3870   19.2270   24.7250 C.2       1 BG2301      0.0000 
     12 N9        -50.6390   20.0630   23.7260 N.pl3     1 BG2301      0.0000 
     13 C1'       -50.1450   19.8190   22.3430 C.3       1 BG2301      0.0000 
     14 C2'       -50.7500   20.6940   21.2890 C.3       1 BG2301      0.0000 
     15 O2'       -51.2630   19.8710   20.2510 O.3       1 BG2301      0.0000 
     16 C3'       -49.5960   21.4450   20.7280 C.3       1 BG2301      0.0000 
     17 O3'       -49.4210   20.8550   19.4720 O.3       1 BG2301      0.0000 
     18 C4'       -48.3770   21.1180   21.5380 C.3       1 BG2301      0.0000 
     19 O4'       -48.7430   20.0010   22.3280 O.3       1 BG2301      0.0000 
     20 C5'       -47.9160   22.2480   22.4610 C.3       1 BG2301      0.0000 
     21 O5'       -47.3300   21.6970   23.6550 O.3       1 BG2301      0.0000 
     22 H         -53.3771   23.1999   26.6956 H         1 BG2301      0.0000 
     23 H         -53.1535   24.2266   23.3145 H         1 BG2301      0.0000 
     24 H         -53.7714   24.5882   24.9616 H         1 BG2301      0.0000 
     25 H         -50.3676   18.7708   22.0799 H         1 BG2301      0.0000 
     26 H         -51.4417   21.3419   21.7033 H         1 BG2301      0.0000 
     27 H         -49.7819   22.4521   20.6983 H         1 BG2301      0.0000 
     28 H         -47.5723   20.8571   20.8729 H         1 BG2301      0.0000 
     29 H         -48.7871   22.8703   22.6914 H         1 BG2301      0.0000 
     30 H         -47.1978   22.8621   21.9077 H         1 BG2301      0.0000 
     31 H         -50.5268   19.2268   20.0440 H         1 BG2301      0.0000 
     32 H         -49.8339   21.4962   18.8252 H         1 BG2301      0.0000 
     33 H         -47.8542   20.8658   23.8407 H         1 BG2301      0.0000 
@<TRIPOS>BOND
     1   11    1 1    
     2    3    2 1    
     3    8    2 am   
     4   22    2 1    
     5    4    3 1    
     6    5    3 2    
     7   23    4 1    
     8   24    4 1    
     9    6    5 1    
    10    7    6 2    
    11   12    6 1    
    12    8    7 1    
    13   10    7 1    
    14    9    8 2    
    15   11   10 2    
    16   12   11 1    
    17   13   12 1    
    18   14   13 1    
    19   19   13 1    
    20   25   13 1    
    21   15   14 1    
    22   16   14 1    
    23   26   14 1    
    24   31   15 1    
    25   17   16 1    
    26   18   16 1    
    27   27   16 1    
    28   32   17 1    
    29   19   18 1    
    30   20   18 1    
    31   28   18 1    
    32   21   20 1    
    33   29   20 1    
    34   30   20 1    
    35   33   21 1    
@<TRIPOS>SUBSTRUCTURE
     1 BG2301      1 GROUP   
@<TRIPOS>SET

