#    Name: 1yhj_R6C_1_INTS_M
#    Modification time : Tue Mar 25 11:03:52 2014

@<TRIPOS>MOLECULE
1yhj_R6C_1_INTS_M
   63     0     9     0     0
SMALL
NO_CHARGES


@<TRIPOS>ATOM
      1 CA         13.0980   61.0145   -2.5220 C.3       3 GLC5        0.0000 
      2 CA         12.9770   61.1000   -0.4640 C.3       9 GLL5        0.0000 
      3 CA         13.2190   60.9290   -4.5800 C.3       6 GLP5        0.0000 
      4 CA         15.6200   62.2115    0.2085 C.3       3 GLC5        0.0000 
      5 CA         13.9360   60.9720    0.7160 C.3       9 GLL5        0.0000 
      6 CA         17.3040   63.4510   -0.2990 C.3       6 GLP5        0.0000 
      7 CA         11.7145   61.6935    3.3925 C.3       3 GLC5        0.0000 
      8 CA         13.0470   60.7770    1.9680 C.3       9 GLL5        0.0000 
      9 CA         10.3820   62.6100    4.8170 C.3       6 GLP5        0.0000 
     10 CA         13.8535   58.1070    3.9800 C.3       3 GLC5        0.0000 
     11 CA         13.0920   59.4310    2.6660 C.3       9 GLL5        0.0000 
     12 CA         14.6150   56.7830    5.2940 C.3       6 GLP5        0.0000 
     13 CA         12.0465   60.0075    4.3295 C.3       3 GLC5        0.0000 
     14 CA         11.0010   60.5840    5.9930 C.3       6 GLP5        0.0000 
     15 O          14.4095   58.4840   -0.3765 O.2       1 ALC1        0.0000 
     16 O          14.7700   59.8320    0.2970 O.2       7 ALL1        0.0000 
     17 O          14.0490   57.1360   -1.0500 O.2       4 ALP1        0.0000 
     18 CA         17.0375   59.6450   -0.8710 C.3       3 GLC5        0.0000 
     19 CA         15.9870   59.4100    0.7800 C.3       9 GLL5        0.0000 
     20 CA         18.0880   59.8800   -2.5220 C.3       6 GLP5        0.0000 
     21 CA         16.6455   61.4305    0.2405 C.3       3 GLC5        0.0000 
     22 CA         19.0660   60.6295    1.6495 C.3       3 GLC5        0.0000 
     23 CA         17.7370   59.6300    2.3820 C.3       9 GLL5        0.0000 
     24 CA         20.3950   61.6290    0.9170 C.3       6 GLP5        0.0000 
     25 CA         17.3795   59.3235    4.6300 C.3       3 GLC5        0.0000 
     26 CA         17.8050   61.3670    4.0200 C.3       9 GLL5        0.0000 
     27 CA         16.9540   57.2800    5.2400 C.3       6 GLP5        0.0000 
     28 CA         17.7645   59.6285    6.3385 C.3       3 GLC5        0.0000 
     29 CA         17.3860   60.9980    5.4350 C.3       9 GLL5        0.0000 
     30 CA         18.1430   58.2590    7.2420 C.3       6 GLP5        0.0000 
     31 CA         16.3620   60.9600    6.9965 C.3       3 GLC5        0.0000 
     32 CA         15.3380   60.9220    8.5580 C.3       6 GLP5        0.0000 
     33 CA         19.5940   64.0090    2.9955 C.3       3 GLC5        0.0000 
     34 CA         18.7670   62.5260    3.8890 C.3       9 GLL5        0.0000 
     35 CA         20.4210   65.4920    2.1020 C.3       6 GLP5        0.0000 
     36 N          20.7440   57.5435    2.8005 N.am      2 SEC2        0.0000 
     37 N          19.5940   58.3620    2.6350 N.am      8 SEL2        0.0000 
     38 N          21.8940   56.7250    2.9660 N.am      5 SEP2        0.0000 
     39 N          16.1780   58.0935   -1.3545 N.am      2 SEC2        0.0000 
     40 N          16.6510   58.3290    0.2810 N.am      8 SEL2        0.0000 
     41 N          15.7050   57.8580   -2.9900 N.am      5 SEP2        0.0000 
     42 N          15.3500   57.7325   -0.3845 N.am      2 SEC2        0.0000 
     43 N          14.0490   57.1360   -1.0500 N.am      5 SEP2        0.0000 
     44 CA         17.9580   58.8705   -0.8625 C.3       3 GLC5        0.0000 
     45 CA         17.8280   57.8610    0.7970 C.3       9 GLL5        0.0000 
     46 CA         20.5900   55.5175    2.0630 C.3       3 GLC5        0.0000 
     47 CA         18.9440   55.6730    1.0630 C.3       9 GLL5        0.0000 
     48 CA         22.2360   55.3620    3.0630 C.3       6 GLP5        0.0000 
     49 CA         18.5500   52.1720    3.2480 C.3       3 GLC5        0.0000 
     50 CA         16.8950   53.3720    3.3640 C.3       9 GLL5        0.0000 
     51 CA         20.2050   50.9720    3.1320 C.3       6 GLP5        0.0000 
     52 CA         19.0335   53.2580    0.9830 C.3       3 GLC5        0.0000 
     53 CA         17.0340   54.0160    0.6000 C.3       9 GLL5        0.0000 
     54 CA         21.0330   52.5000    1.3660 C.3       6 GLP5        0.0000 
     55 CA         15.5930   54.6065   -0.9225 C.3       3 GLC5        0.0000 
     56 CA         14.1520   55.1970   -2.4450 C.3       6 GLP5        0.0000 
     57 CA         19.3405   61.7878    2.4357 C.3       3 GLC5        0.0000 
     58 CA         19.8490   58.8800    0.7265 C.3       3 GLC5        0.0000 
     59 CA         18.4340   58.5550    1.8810 C.3       9 GLL5        0.0000 
     60 CA         21.5670   59.5520    0.1140 C.3       6 GLP5        0.0000 
     61 CA         19.5850   53.6216    1.7358 C.3       3 GLC5        0.0000 
     62 CA         14.9001   52.9336    3.3259 C.3       3 GLC5        0.0000 
     63 CA         13.5320   52.8070    4.6720 C.3       6 GLP5        0.0000 
@<TRIPOS>BOND
@<TRIPOS>SUBSTRUCTURE
     1 ALC1       15 GROUP        1 X    ALC  0     ROOT ALC X 1
     2 SEC2       36 GROUP        1 X    SEC  0     **** SEC X 2
     3 GLC5        1 GROUP        1 X    GLC  0     **** GLC X 6
     4 ALP1       17 GROUP        1 Y    ALP  0     ROOT ALP Y 8
     5 SEP2       38 GROUP        1 Y    SEP  0     **** SEP Y 9
     6 GLP5        3 GROUP        1 Y    GLP  0     **** GLP Y 13
     7 ALL1       16 GROUP        1 Z    ALL  0     ROOT ALL Z 15
     8 SEL2       37 GROUP        1 Z    SEL  0     **** SEL Z 16
     9 GLL5        2 GROUP        1 Z    GLL  0     **** GLL Z 20
@<TRIPOS>SET

