#    Name: 1yhj_R6C_1_ligand
#    Modification time : Tue Mar 25 11:03:52 2014

@<TRIPOS>MOLECULE
1yhj_R6C_1_ligand
   51    53     1     0     0
SMALL
NO_CHARGES


@<TRIPOS>ATOM
      1 OAP        12.9360   62.4520   -0.8200 O.3       1 R6C313      0.0000 
      2 CAQ        12.9770   61.1000   -0.4640 C.3       1 R6C313      0.0000 
      3 CAR        13.9360   60.9720    0.7160 C.3       1 R6C313      0.0000 
      4 CAK        13.0470   60.7770    1.9680 C.3       1 R6C313      0.0000 
      5 CAI        13.0920   59.4310    2.6660 C.3       1 R6C313      0.0000 
      6 NAS        14.7700   59.8320    0.2970 N.pl3     1 R6C313      0.0000 
      7 CAT        15.9870   59.4100    0.7800 C.ar      1 R6C313      0.0000 
      8 NAU        16.5620   60.0860    1.8310 N.ar      1 R6C313      0.0000 
      9 CAV        17.7370   59.6300    2.3820 C.ar      1 R6C313      0.0000 
     10 NAW        18.4250   60.1750    3.3850 N.pl3     1 R6C313      0.0000 
     11 CAZ        17.8050   61.3670    4.0200 C.3       1 R6C313      0.0000 
     12 CAY        17.3860   60.9980    5.4350 C.3       1 R6C313      0.0000 
     13 CBA        18.7670   62.5260    3.8890 C.3       1 R6C313      0.0000 
     14 CAX        19.5500   59.3990    3.5590 C.2       1 R6C313      0.0000 
     15 CAN        18.4340   58.5550    1.8810 C.ar      1 R6C313      0.0000 
     16 NAO        19.5940   58.3620    2.6350 N.2       1 R6C313      0.0000 
     17 NAL        16.6510   58.3290    0.2810 N.ar      1 R6C313      0.0000 
     18 CAM        17.8280   57.8610    0.7970 C.ar      1 R6C313      0.0000 
     19 OAJ        18.4500   56.7750    0.2480 O.3       1 R6C313      0.0000 
     20 CAD        18.9440   55.6730    1.0630 C.3       1 R6C313      0.0000 
     21 CAE        17.9180   54.6520    1.5290 C.ar      1 R6C313      0.0000 
     22 CAG        17.8430   54.3240    2.9150 C.ar      1 R6C313      0.0000 
     23 CAH        16.8950   53.3720    3.3640 C.ar      1 R6C313      0.0000 
     24 CAF        16.0140   52.7410    2.4390 C.ar      1 R6C313      0.0000 
     25 CAC        16.0820   53.0640    1.0580 C.ar      1 R6C313      0.0000 
     26 CAB        17.0340   54.0160    0.6000 C.ar      1 R6C313      0.0000 
     27 H          13.3547   60.4645   -1.2651 H         1 R6C313      0.0000 
     28 H          12.0075   60.7192   -0.1426 H         1 R6C313      0.0000 
     29 H          14.4825   61.8662    0.7765 H         1 R6C313      0.0000 
     30 H          11.9902   60.9998    1.6749 H         1 R6C313      0.0000 
     31 H          13.3123   61.5775    2.7036 H         1 R6C313      0.0000 
     32 H          14.3285   59.2600   -0.5174 H         1 R6C313      0.0000 
     33 H          16.8979   61.6037    3.4451 H         1 R6C313      0.0000 
     34 H          20.2279   59.5515    4.2372 H         1 R6C313      0.0000 
     35 H          19.4639   56.0720    1.9758 H         1 R6C313      0.0000 
     36 H          19.7493   55.1166    0.5110 H         1 R6C313      0.0000 
     37 H          18.4706   54.7749    3.5760 H         1 R6C313      0.0000 
     38 H          16.8399   53.1342    4.3553 H         1 R6C313      0.0000 
     39 H          15.3356   52.0580    2.7707 H         1 R6C313      0.0000 
     40 H          15.4519   52.6162    0.3972 H         1 R6C313      0.0000 
     41 H          17.0901   54.2482   -0.3886 H         1 R6C313      0.0000 
     42 H          14.0109   59.2141    2.9957 H         1 R6C313      0.0000 
     43 H          12.4822   59.4028    3.4580 H         1 R6C313      0.0000 
     44 H          12.8160   58.6874    2.0570 H         1 R6C313      0.0000 
     45 H          18.1661   60.7091    5.9899 H         1 R6C313      0.0000 
     46 H          16.9586   61.7681    5.9085 H         1 R6C313      0.0000 
     47 H          16.7264   60.2465    5.4429 H         1 R6C313      0.0000 
     48 H          19.6417   62.3348    4.3344 H         1 R6C313      0.0000 
     49 H          18.9655   62.7375    2.9320 H         1 R6C313      0.0000 
     50 H          18.4028   63.3597    4.3040 H         1 R6C313      0.0000 
     51 H          13.5134   63.0294   -0.2426 H         1 R6C313      0.0000 
@<TRIPOS>BOND
     1    2    1 1    
     2   51    1 1    
     3    3    2 1    
     4   27    2 1    
     5   28    2 1    
     6    4    3 1    
     7    6    3 1    
     8   29    3 1    
     9    5    4 1    
    10   30    4 1    
    11   31    4 1    
    12   42    5 1    
    13   43    5 1    
    14   44    5 1    
    15    7    6 1    
    16   32    6 1    
    17    8    7 ar   
    18   17    7 ar   
    19    9    8 ar   
    20   10    9 1    
    21   15    9 ar   
    22   11   10 1    
    23   14   10 1    
    24   12   11 1    
    25   13   11 1    
    26   33   11 1    
    27   45   12 1    
    28   46   12 1    
    29   47   12 1    
    30   48   13 1    
    31   49   13 1    
    32   50   13 1    
    33   16   14 2    
    34   34   14 1    
    35   16   15 1    
    36   18   15 ar   
    37   18   17 ar   
    38   19   18 1    
    39   20   19 1    
    40   21   20 1    
    41   35   20 1    
    42   36   20 1    
    43   22   21 ar   
    44   26   21 ar   
    45   23   22 ar   
    46   37   22 1    
    47   24   23 ar   
    48   38   23 1    
    49   25   24 ar   
    50   39   24 1    
    51   26   25 ar   
    52   40   25 1    
    53   41   26 1    
@<TRIPOS>SUBSTRUCTURE
     1 R6C313      1 GROUP   
@<TRIPOS>SET

