#    Name: 1qw4_H4B_1_INTS_M
#    Modification time : Mon Mar 24 23:59:11 2014

@<TRIPOS>MOLECULE
1qw4_H4B_1_INTS_M
   25     0     9     0     0
SMALL
NO_CHARGES


@<TRIPOS>ATOM
      1 O         -48.4475  142.1105   47.4425 O.2       1 ALC1        0.0000 
      2 O         -49.0130  141.8270   46.0580 O.2       7 ALL1        0.0000 
      3 O         -47.8820  142.3940   48.8270 O.2       4 ALP1        0.0000 
      4 N         -48.8850  143.3100   41.5800 N.am      2 SEC2        0.0000 
      5 N         -47.9260  142.0530   41.5560 N.am      8 SEL2        0.0000 
      6 N         -49.8440  144.5670   41.6040 N.am      5 SEP2        0.0000 
      7 CA        -45.8825  142.2900   41.6230 C.3       3 GLC5        0.0000 
      8 CA        -46.6750  143.4020   43.0430 C.3       9 GLL5        0.0000 
      9 CA        -45.0900  141.1780   40.2030 C.3       6 GLP5        0.0000 
     10 CA        -46.0370  142.9900   46.1880 C.3       3 GLC5        0.0000 
     11 CA        -46.4510  143.8080   44.3590 C.3       9 GLL5        0.0000 
     12 CA        -45.6230  142.1720   48.0170 C.3       6 GLP5        0.0000 
     13 O         -45.1700  144.7225   46.0285 O.2       1 ALC1        0.0000 
     14 O         -45.5010  144.7100   44.6810 O.2       7 ALL1        0.0000 
     15 O         -44.8390  144.7350   47.3760 O.2       4 ALP1        0.0000 
     16 CA        -44.7980  142.7925   41.3190 C.3       3 GLC5        0.0000 
     17 CA        -44.5060  144.4070   42.4350 C.3       9 GLL5        0.0000 
     18 O         -40.3425  144.3425   41.7290 O.2       1 ALC1        0.0000 
     19 O         -41.7260  144.4480   42.1130 O.2       7 ALL1        0.0000 
     20 O         -38.9590  144.2370   41.3450 O.2       4 ALP1        0.0000 
     21 CA        -43.3888  144.8762   44.5870 C.3       3 GLC5        0.0000 
     22 CA        -42.2020  144.8950   46.1350 C.3       6 GLP5        0.0000 
     23 CA        -42.4933  143.7360   40.0886 C.3       3 GLC5        0.0000 
     24 CA        -42.4310  145.5340   41.5060 C.3       9 GLL5        0.0000 
     25 CA        -42.5540  141.8040   39.3540 C.3       6 GLP5        0.0000 
@<TRIPOS>BOND
@<TRIPOS>SUBSTRUCTURE
     1 ALC1        1 GROUP        1 X    ALC  0     ROOT ALC X 1
     2 SEC2        4 GROUP        1 X    SEC  0     **** SEC X 2
     3 GLC5        7 GROUP        1 X    GLC  0     **** GLC X 6
     4 ALP1        3 GROUP        1 Y    ALP  0     ROOT ALP Y 8
     5 SEP2        6 GROUP        1 Y    SEP  0     **** SEP Y 9
     6 GLP5        9 GROUP        1 Y    GLP  0     **** GLP Y 13
     7 ALL1        2 GROUP        1 Z    ALL  0     ROOT ALL Z 15
     8 SEL2        5 GROUP        1 Z    SEL  0     **** SEL Z 16
     9 GLL5        8 GROUP        1 Z    GLL  0     **** GLL Z 20
@<TRIPOS>SET

