#    Name: 1qw4_H4B_1_ligand
#    Modification time : Mon Mar 24 23:59:11 2014

@<TRIPOS>MOLECULE
1qw4_H4B_1_ligand
   32    33     1     0     0
SMALL
NO_CHARGES


@<TRIPOS>ATOM
      1 N1        -47.2480  143.2690   45.3640 N.2       1 H4B901      0.0000 
      2 C2        -48.2370  142.3490   45.1070 C.2       1 H4B901      0.0000 
      3 N2        -49.0130  141.8270   46.0580 N.pl3     1 H4B901      0.0000 
      4 N3        -48.4200  141.9730   43.7930 N.am      1 H4B901      0.0000 
      5 C4        -47.6630  142.4640   42.6940 C.2       1 H4B901      0.0000 
      6 O4        -47.9260  142.0530   41.5560 O.2       1 H4B901      0.0000 
      7 C4A       -46.6750  143.4020   43.0430 C.2       1 H4B901      0.0000 
      8 C8A       -46.4510  143.8080   44.3590 C.2       1 H4B901      0.0000 
      9 N5        -45.8680  143.9490   41.9620 N.pl3     1 H4B901      0.0000 
     10 N8        -45.5010  144.7100   44.6810 N.pl3     1 H4B901      0.0000 
     11 C6        -44.5060  144.4070   42.4350 C.3       1 H4B901      0.0000 
     12 C7        -44.6450  145.3080   43.6430 C.3       1 H4B901      0.0000 
     13 C9        -43.8230  144.9800   41.1870 C.3       1 H4B901      0.0000 
     14 O9        -44.5730  146.0030   40.5750 O.3       1 H4B901      0.0000 
     15 C10       -42.4310  145.5340   41.5060 C.3       1 H4B901      0.0000 
     16 C11       -41.7380  146.0790   40.3000 C.3       1 H4B901      0.0000 
     17 O10       -41.7260  144.4480   42.1130 O.3       1 H4B901      0.0000 
     18 H         -48.8319  142.1350   46.9920 H         1 H4B901      0.0000 
     19 H         -49.7061  141.1746   45.7515 H         1 H4B901      0.0000 
     20 H         -49.1771  141.2662   43.5678 H         1 H4B901      0.0000 
     21 H         -46.1361  144.0221   41.0624 H         1 H4B901      0.0000 
     22 H         -45.3304  145.0189   45.6477 H         1 H4B901      0.0000 
     23 H         -43.9605  143.4948   42.7184 H         1 H4B901      0.0000 
     24 H         -43.6406  145.5102   44.0476 H         1 H4B901      0.0000 
     25 H         -45.0622  146.2732   43.3149 H         1 H4B901      0.0000 
     26 H         -43.6695  144.1458   40.4837 H         1 H4B901      0.0000 
     27 H         -42.5760  146.3311   42.2377 H         1 H4B901      0.0000 
     28 H         -40.8327  146.4402   40.5234 H         1 H4B901      0.0000 
     29 H         -41.6091  145.3789   39.5976 H         1 H4B901      0.0000 
     30 H         -42.2554  146.8243   39.8795 H         1 H4B901      0.0000 
     31 H         -43.9229  146.7489   40.4299 H         1 H4B901      0.0000 
     32 H         -40.7848  144.7719   42.2088 H         1 H4B901      0.0000 
@<TRIPOS>BOND
     1    2    1 2    
     2    8    1 1    
     3    3    2 1    
     4    4    2 1    
     5   18    3 1    
     6   19    3 1    
     7    5    4 am   
     8   20    4 1    
     9    6    5 2    
    10    7    5 1    
    11    8    7 2    
    12    9    7 1    
    13   10    8 1    
    14   11    9 1    
    15   21    9 1    
    16   12   10 1    
    17   22   10 1    
    18   12   11 1    
    19   13   11 1    
    20   23   11 1    
    21   24   12 1    
    22   25   12 1    
    23   14   13 1    
    24   15   13 1    
    25   26   13 1    
    26   31   14 1    
    27   16   15 1    
    28   17   15 1    
    29   27   15 1    
    30   28   16 1    
    31   29   16 1    
    32   30   16 1    
    33   32   17 1    
@<TRIPOS>SUBSTRUCTURE
     1 H4B901      1 GROUP   
@<TRIPOS>SET

