#    Name: 3nca_TR2_1_INTS_M
#    Modification time : Tue Mar 25 01:15:33 2014

@<TRIPOS>MOLECULE
3nca_TR2_1_INTS_M
   28     0     3     0     0
SMALL
NO_CHARGES


@<TRIPOS>ATOM
      1 CA         -3.8255    1.6020   14.7740 C.3       1 GLC5        0.0000 
      2 CA         -3.3340    1.0630   16.8280 C.3       3 GLL5        0.0000 
      3 CA         -4.3170    2.1410   12.7200 C.3       2 GLP5        0.0000 
      4 CA         -3.0570    2.1905   19.3820 C.3       1 GLC5        0.0000 
      5 CA         -4.0950    1.7030   17.8380 C.3       3 GLL5        0.0000 
      6 CA         -2.0190    2.6780   20.9260 C.3       2 GLP5        0.0000 
      7 CA         -3.2600    3.6865   17.7180 C.3       1 GLC5        0.0000 
      8 CA         -2.4250    5.6700   17.5980 C.3       2 GLP5        0.0000 
      9 CA         -3.0900    1.2115   20.0145 C.3       1 GLC5        0.0000 
     10 CA         -4.1610   -0.2550   19.1030 C.3       3 GLL5        0.0000 
     11 CA         -4.8620   -0.3740   22.3340 C.3       1 GLC5        0.0000 
     12 CA         -4.5440   -1.0520   20.2650 C.3       3 GLL5        0.0000 
     13 CA         -5.1800    0.3040   24.4030 C.3       2 GLP5        0.0000 
     14 CA         -5.0040   -1.9520   17.6715 C.3       1 GLC5        0.0000 
     15 CA         -3.1840   -2.6410   18.7440 C.3       3 GLL5        0.0000 
     16 CA         -6.8240   -1.2630   16.5990 C.3       2 GLP5        0.0000 
     17 CA         -3.0925   -4.2900   17.3020 C.3       1 GLC5        0.0000 
     18 CA         -3.0010   -5.9390   15.8600 C.3       2 GLP5        0.0000 
     19 CA         -5.0092   -0.9557   17.0880 C.3       1 GLC5        0.0000 
     20 CA         -3.3910   -1.0090   18.1530 C.3       3 GLL5        0.0000 
     21 CA         -1.1335    0.4968   17.3897 C.3       1 GLC5        0.0000 
     22 CA         -2.9980   -0.2880   17.0010 C.3       3 GLL5        0.0000 
     23 CA          0.8990    0.6060   17.8650 C.3       2 GLP5        0.0000 
     24 CA         -5.2692    0.0600   16.9660 C.3       1 GLC5        0.0000 
     25 CA         -5.5882   -0.9582   18.1415 C.3       1 GLC5        0.0000 
     26 CA         -2.8910   -1.1305   21.0011 C.3       1 GLC5        0.0000 
     27 CA         -4.0870   -2.3280   20.1930 C.3       3 GLL5        0.0000 
     28 CA         -1.7880   -0.6920   22.4260 C.3       2 GLP5        0.0000 
@<TRIPOS>BOND
@<TRIPOS>SUBSTRUCTURE
     1 GLC5        1 GROUP        1 X    GLC  0     ROOT GLC X 6
     2 GLP5        3 GROUP        1 Y    GLP  0     ROOT GLP Y 13
     3 GLL5        2 GROUP        1 Z    GLL  0     ROOT GLL Z 20
@<TRIPOS>SET

