#    Name: 3nca_TR2_1_ligand
#    Modification time : Tue Mar 25 01:15:33 2014

@<TRIPOS>MOLECULE
3nca_TR2_1_ligand
   15    16     1     0     0
SMALL
NO_CHARGES


@<TRIPOS>ATOM
      1 C10        -3.3910   -1.0090   18.1530 C.ar      1 TR2300      0.0000 
      2 O01        -2.3380   -0.8750   15.9280 O.3       1 TR2300      0.0000 
      3 C02        -2.9980   -0.2880   17.0010 C.ar      1 TR2300      0.0000 
      4 C03        -3.3340    1.0630   16.8280 C.ar      1 TR2300      0.0000 
      5 C04        -4.0950    1.7030   17.8380 C.ar      1 TR2300      0.0000 
      6 N05        -4.5130    1.0790   18.9630 N.ar      1 TR2300      0.0000 
      7 C06        -4.1610   -0.2550   19.1030 C.ar      1 TR2300      0.0000 
      8 C07        -4.5440   -1.0520   20.2650 C.2       1 TR2300      0.0000 
      9 C08        -4.0870   -2.3280   20.1930 C.2       1 TR2300      0.0000 
     10 S09        -3.1840   -2.6410   18.7440 S.3       1 TR2300      0.0000 
     11 H          -3.0437    1.5733   16.0056 H         1 TR2300      0.0000 
     12 H          -4.3339    2.7176   17.6795 H         1 TR2300      0.0000 
     13 H          -5.0691   -0.6619   20.9828 H         1 TR2300      0.0000 
     14 H          -4.1465   -3.0822   20.7470 H         1 TR2300      0.0000 
     15 H          -1.9304   -1.7090   16.2999 H         1 TR2300      0.0000 
@<TRIPOS>BOND
     1    3    1 ar   
     2    7    1 ar   
     3   10    1 1    
     4    3    2 1    
     5   15    2 1    
     6    4    3 ar   
     7    5    4 ar   
     8   11    4 1    
     9    6    5 ar   
    10   12    5 1    
    11    7    6 ar   
    12    8    7 1    
    13    9    8 2    
    14   13    8 1    
    15   10    9 1    
    16   14    9 1    
@<TRIPOS>SUBSTRUCTURE
     1 TR2300      1 GROUP   
@<TRIPOS>SET

