#    Name: 4n9d_2HJ_1_INTS_M
#    Modification time : Tue Mar 25 12:47:54 2014

@<TRIPOS>MOLECULE
4n9d_2HJ_1_INTS_M
   57     0     6     0     0
SMALL
NO_CHARGES


@<TRIPOS>ATOM
      1 CA         18.8355   -1.8100   -4.0330 C.3       2 GLC5        0.0000 
      2 CA         18.8220   -0.2950   -5.1470 C.3       6 GLL5        0.0000 
      3 CA         18.8490   -3.3250   -2.9190 C.3       4 GLP5        0.0000 
      4 CA         19.3630    3.7430   -6.6900 C.3       2 GLC5        0.0000 
      5 CA         19.6650    1.9830   -5.7720 C.3       6 GLL5        0.0000 
      6 CA         19.0610    5.5030   -7.6080 C.3       4 GLP5        0.0000 
      7 CA         21.2770    0.3485   -2.1080 C.3       2 GLC5        0.0000 
      8 CA         20.3150    0.9840   -3.6130 C.3       6 GLL5        0.0000 
      9 CA         22.2390   -0.2870   -0.6030 C.3       4 GLP5        0.0000 
     10 CA         15.2180    4.9680   -4.5630 C.3       2 GLC5        0.0000 
     11 CA         16.0120    3.1380   -4.0150 C.3       6 GLL5        0.0000 
     12 CA         14.4240    6.7980   -5.1110 C.3       4 GLP5        0.0000 
     13 O          15.3930    3.4080    0.6000 O.2       1 ALC1        0.0000 
     14 O          14.8740    4.3680   -0.6460 O.2       5 ALL1        0.0000 
     15 O          15.9120    2.4480    1.8460 O.2       3 ALP1        0.0000 
     16 CA         17.9095    8.9030    3.0150 C.3       2 GLC5        0.0000 
     17 CA         16.5530    7.3380    2.3090 C.3       6 GLL5        0.0000 
     18 CA         19.2660   10.4680    3.7210 C.3       4 GLP5        0.0000 
     19 O          17.0700    7.9935    4.9325 O.2       1 ALC1        0.0000 
     20 O          15.5440    8.5070    4.7050 O.2       5 ALL1        0.0000 
     21 O          18.5960    7.4800    5.1600 O.2       3 ALP1        0.0000 
     22 CA         17.2830    6.9680    6.8185 C.3       2 GLC5        0.0000 
     23 CA         16.0010    8.3670    7.0680 C.3       6 GLL5        0.0000 
     24 CA         18.5650    5.5690    6.5690 C.3       4 GLP5        0.0000 
     25 CA         13.6545    7.6070    8.4430 C.3       2 GLC5        0.0000 
     26 CA         14.4750    9.4460    8.5770 C.3       6 GLL5        0.0000 
     27 CA         12.8340    5.7680    8.3090 C.3       4 GLP5        0.0000 
     28 CA         19.1160   -0.6898   -3.0293 C.3       2 GLC5        0.0000 
     29 CA         18.4870   -2.4230   -1.9420 C.3       4 GLP5        0.0000 
     30 CA         19.7952    3.1818   -3.9892 C.3       2 GLC5        0.0000 
     31 CA         19.1750    1.1030   -4.6200 C.3       6 GLL5        0.0000 
     32 CA         19.7230    5.1000   -3.5740 C.3       4 GLP5        0.0000 
     33 CA         18.7587    3.3142   -3.4383 C.3       2 GLC5        0.0000 
     34 CA         17.9490    1.7050   -3.9560 C.3       6 GLL5        0.0000 
     35 CA         15.9388   -0.1758   -2.5207 C.3       2 GLC5        0.0000 
     36 CA         17.6400    1.3520   -2.6490 C.3       6 GLL5        0.0000 
     37 CA         14.7980   -1.9710   -2.6980 C.3       4 GLP5        0.0000 
     38 CA         18.1468    3.9835   -3.9497 C.3       2 GLC5        0.0000 
     39 CA         15.8350    9.1672    0.7933 C.3       2 GLC5        0.0000 
     40 CA         14.5510    7.1560    0.3580 C.3       6 GLL5        0.0000 
     41 CA         17.1990   10.7570    0.6920 C.3       4 GLP5        0.0000 
     42 CA         12.9145    6.4143    0.8223 C.3       2 GLC5        0.0000 
     43 CA         14.3910    7.9990    1.4310 C.3       6 GLL5        0.0000 
     44 CA         11.3580    5.2510    0.7500 C.3       4 GLP5        0.0000 
     45 CA         14.5846    8.7288   -0.4180 C.3       2 GLC5        0.0000 
     46 CA         14.4100   10.0660   -1.7050 C.3       4 GLP5        0.0000 
     47 CA         16.2838    5.1472    2.7965 C.3       2 GLC5        0.0000 
     48 CA         15.9400    3.3790    3.8280 C.3       4 GLP5        0.0000 
     49 CA         17.3109    6.6130   -1.0814 C.3       2 GLC5        0.0000 
     50 CA         16.7020    6.4930    1.2210 C.3       6 GLL5        0.0000 
     51 CA         18.3910    7.0070   -2.6070 C.3       4 GLP5        0.0000 
     52 CA         16.7691    8.9352    1.2379 C.3       2 GLC5        0.0000 
     53 CA         14.9480    6.7525    8.2220 C.3       2 GLC5        0.0000 
     54 CA         14.0930    4.9820    8.7260 C.3       4 GLP5        0.0000 
     55 CA         17.6920    8.8165    8.4125 C.3       2 GLC5        0.0000 
     56 CA         15.6050    8.6790    8.3680 C.3       6 GLL5        0.0000 
     57 CA         19.5810    9.1100    9.1070 C.3       4 GLP5        0.0000 
@<TRIPOS>BOND
@<TRIPOS>SUBSTRUCTURE
     1 ALC1       13 GROUP        1 X    ALC  0     ROOT ALC X 1
     2 GLC5        1 GROUP        1 X    GLC  0     **** GLC X 6
     3 ALP1       15 GROUP        1 Y    ALP  0     ROOT ALP Y 8
     4 GLP5        3 GROUP        1 Y    GLP  0     **** GLP Y 13
     5 ALL1       14 GROUP        1 Z    ALL  0     ROOT ALL Z 15
     6 GLL5        2 GROUP        1 Z    GLL  0     **** GLL Z 20
@<TRIPOS>SET

