#    Name: 4n9d_2HJ_1_ligand
#    Modification time : Tue Mar 25 12:47:54 2014

@<TRIPOS>MOLECULE
4n9d_2HJ_1_ligand
   55    57     1     0     0
SMALL
NO_CHARGES


@<TRIPOS>ATOM
      1 C1         18.8220   -0.2950   -5.1470 C.3       1 2HJ601      0.0000 
      2 C2         19.1750    1.1030   -4.6200 C.3       1 2HJ601      0.0000 
      3 C3         19.6650    1.9830   -5.7720 C.3       1 2HJ601      0.0000 
      4 C4         20.3150    0.9840   -3.6130 C.3       1 2HJ601      0.0000 
      5 C5         17.9490    1.7050   -3.9560 C.ar      1 2HJ601      0.0000 
      6 C6         17.6400    1.3520   -2.6490 C.ar      1 2HJ601      0.0000 
      7 C7         16.5190    1.8870   -2.0380 C.ar      1 2HJ601      0.0000 
      8 C8         15.6990    2.7780   -2.7120 C.ar      1 2HJ601      0.0000 
      9 C9         16.0120    3.1380   -4.0150 C.ar      1 2HJ601      0.0000 
     10 C10        17.1290    2.5960   -4.6360 C.ar      1 2HJ601      0.0000 
     11 S11        14.2750    3.4500   -1.9030 S.o2      1 2HJ601      0.0000 
     12 O12        13.5770    2.3390   -1.3460 O.2       1 2HJ601      0.0000 
     13 O13        13.6390    4.3460   -2.8280 O.2       1 2HJ601      0.0000 
     14 N14        14.8740    4.3680   -0.6460 N.pl3     1 2HJ601      0.0000 
     15 C15        15.8150    5.4780   -0.9210 C.3       1 2HJ601      0.0000 
     16 C16        15.7040    6.4120    0.2560 C.ar      1 2HJ601      0.0000 
     17 C17        14.5510    7.1560    0.3580 C.ar      1 2HJ601      0.0000 
     18 C18        14.3910    7.9990    1.4310 C.ar      1 2HJ601      0.0000 
     19 C19        15.4000    8.1300    2.3840 C.ar      1 2HJ601      0.0000 
     20 C20        16.5530    7.3380    2.3090 C.ar      1 2HJ601      0.0000 
     21 C21        16.7020    6.4930    1.2210 C.ar      1 2HJ601      0.0000 
     22 C22        15.0650    8.9780    3.5350 C.2       1 2HJ601      0.0000 
     23 O23        14.3010    9.9170    3.4500 O.2       1 2HJ601      0.0000 
     24 N24        15.5440    8.5070    4.7050 N.am      1 2HJ601      0.0000 
     25 C25        15.2580    8.8920    6.0160 C.ar      1 2HJ601      0.0000 
     26 C26        16.0010    8.3670    7.0680 C.ar      1 2HJ601      0.0000 
     27 C27        15.6050    8.6790    8.3680 C.ar      1 2HJ601      0.0000 
     28 C28        14.4750    9.4460    8.5770 C.ar      1 2HJ601      0.0000 
     29 N29        13.7600    9.8970    7.5550 N.ar      1 2HJ601      0.0000 
     30 C30        14.1020    9.6160    6.3100 C.ar      1 2HJ601      0.0000 
     31 H          18.2437    0.6946   -2.1380 H         1 2HJ601      0.0000 
     32 H          16.2894    1.6182   -1.0640 H         1 2HJ601      0.0000 
     33 H          15.4160    3.8071   -4.5215 H         1 2HJ601      0.0000 
     34 H          17.3517    2.8568   -5.6094 H         1 2HJ601      0.0000 
     35 H          14.5581    4.1119    0.2355 H         1 2HJ601      0.0000 
     36 H          15.5327    5.9981   -1.8196 H         1 2HJ601      0.0000 
     37 H          16.8232    5.1090   -0.9924 H         1 2HJ601      0.0000 
     38 H          13.8194    7.0814   -0.3598 H         1 2HJ601      0.0000 
     39 H          13.5193    8.5440    1.5405 H         1 2HJ601      0.0000 
     40 H          17.2588    7.3871    3.0383 H         1 2HJ601      0.0000 
     41 H          17.5544    5.9218    1.1246 H         1 2HJ601      0.0000 
     42 H          16.2814    7.6851    4.6310 H         1 2HJ601      0.0000 
     43 H          16.8059    7.7756    6.8966 H         1 2HJ601      0.0000 
     44 H          16.1563    8.3365    9.1652 H         1 2HJ601      0.0000 
     45 H          14.1999    9.6606    9.5639 H         1 2HJ601      0.0000 
     46 H          13.5114    9.9305    5.5005 H         1 2HJ601      0.0000 
     47 H          19.6119   -0.7455   -5.5631 H         1 2HJ601      0.0000 
     48 H          18.4931   -0.8948   -4.4175 H         1 2HJ601      0.0000 
     49 H          18.1047   -0.2594   -5.8429 H         1 2HJ601      0.0000 
     50 H          19.9067    2.9020   -5.4605 H         1 2HJ601      0.0000 
     51 H          20.4768    1.5999   -6.2126 H         1 2HJ601      0.0000 
     52 H          18.9683    2.0878   -6.4816 H         1 2HJ601      0.0000 
     53 H          21.1338    0.5837   -4.0245 H         1 2HJ601      0.0000 
     54 H          20.5784    1.8750   -3.2432 H         1 2HJ601      0.0000 
     55 H          20.0653    0.4064   -2.8359 H         1 2HJ601      0.0000 
@<TRIPOS>BOND
     1    2    1 1    
     2   47    1 1    
     3   48    1 1    
     4   49    1 1    
     5    3    2 1    
     6    4    2 1    
     7    5    2 1    
     8   50    3 1    
     9   51    3 1    
    10   52    3 1    
    11   53    4 1    
    12   54    4 1    
    13   55    4 1    
    14    6    5 ar   
    15   10    5 ar   
    16    7    6 ar   
    17   31    6 1    
    18    8    7 ar   
    19   32    7 1    
    20    9    8 ar   
    21   11    8 1    
    22   10    9 ar   
    23   33    9 1    
    24   34   10 1    
    25   12   11 2    
    26   13   11 2    
    27   14   11 1    
    28   15   14 1    
    29   35   14 1    
    30   16   15 1    
    31   36   15 1    
    32   37   15 1    
    33   17   16 ar   
    34   21   16 ar   
    35   18   17 ar   
    36   38   17 1    
    37   19   18 ar   
    38   39   18 1    
    39   20   19 ar   
    40   22   19 1    
    41   21   20 ar   
    42   40   20 1    
    43   41   21 1    
    44   23   22 2    
    45   24   22 am   
    46   25   24 1    
    47   42   24 1    
    48   26   25 ar   
    49   30   25 ar   
    50   27   26 ar   
    51   43   26 1    
    52   28   27 ar   
    53   44   27 1    
    54   29   28 ar   
    55   45   28 1    
    56   30   29 ar   
    57   46   30 1    
@<TRIPOS>SUBSTRUCTURE
     1 2HJ601      1 GROUP   
@<TRIPOS>SET

