#    Name: 3dzd_ADP_1_INTS_M
#    Modification time : Tue Mar 25 00:47:12 2014

@<TRIPOS>MOLECULE
3dzd_ADP_1_INTS_M
   55     0     9     0     0
SMALL
NO_CHARGES


@<TRIPOS>ATOM
      1 N         -30.0020  -19.8425   25.3540 N.am      2 SEC2        0.0000 
      2 N         -31.3120  -19.1660   24.6060 N.am      8 SEL2        0.0000 
      3 N         -28.6920  -20.5190   26.1020 N.am      5 SEP2        0.0000 
      4 N         -34.8705  -19.4660   23.4485 N.am      2 SEC2        0.0000 
      5 N         -33.3850  -18.9800   23.1370 N.am      8 SEL2        0.0000 
      6 N         -36.3560  -19.9520   23.7600 N.am      5 SEP2        0.0000 
      7 N         -34.4515  -21.2385   25.3580 N.am      2 SEC2        0.0000 
      8 N         -33.1690  -20.8840   24.7280 N.am      8 SEL2        0.0000 
      9 N         -35.7340  -21.5930   25.9880 N.am      5 SEP2        0.0000 
     10 N         -33.3325  -21.1810   26.1805 N.am      2 SEC2        0.0000 
     11 N         -33.4960  -21.4780   27.6330 N.am      5 SEP2        0.0000 
     12 N         -32.0990  -21.4730   25.6375 N.am      2 SEC2        0.0000 
     13 N         -31.0290  -22.0620   26.5470 N.am      5 SEP2        0.0000 
     14 N         -33.5360  -20.0735   26.6265 N.am      2 SEC2        0.0000 
     15 N         -33.5760  -18.6690   25.6200 N.am      8 SEL2        0.0000 
     16 CA        -35.5320  -14.1090   30.4980 C.3       3 GLC5        0.0000 
     17 CA        -34.6850  -15.6610   29.2600 C.3       9 GLL5        0.0000 
     18 CA        -36.3790  -12.5570   31.7360 C.3       6 GLP5        0.0000 
     19 N         -34.2015  -12.4435   29.9585 N.am      2 SEC2        0.0000 
     20 N         -33.3150  -13.7570   29.7380 N.am      8 SEL2        0.0000 
     21 N         -35.0880  -11.1300   30.1790 N.am      5 SEP2        0.0000 
     22 CA        -35.2380  -16.0230   32.7575 C.3       3 GLC5        0.0000 
     23 CA        -33.7900  -16.2750   31.3420 C.3       9 GLL5        0.0000 
     24 CA        -36.6860  -15.7710   34.1730 C.3       6 GLP5        0.0000 
     25 CA        -35.5090  -17.4215   31.3700 C.3       3 GLC5        0.0000 
     26 CA        -37.2280  -18.5680   31.3980 C.3       6 GLP5        0.0000 
     27 CA        -31.7810  -20.9965   35.1710 C.3       3 GLC5        0.0000 
     28 CA        -33.4580  -20.4920   33.9750 C.3       9 GLL5        0.0000 
     29 CA        -30.1040  -21.5010   36.3670 C.3       6 GLP5        0.0000 
     30 CA        -33.4220  -21.2915   36.0490 C.3       3 GLC5        0.0000 
     31 CA        -33.3860  -22.0910   38.1230 C.3       6 GLP5        0.0000 
     32 O         -34.0655  -22.5905   35.1905 O.2       1 ALC1        0.0000 
     33 O         -33.5230  -21.8490   33.9120 O.2       7 ALL1        0.0000 
     34 O         -34.6080  -23.3320   36.4690 O.2       4 ALP1        0.0000 
     35 N         -32.7985  -20.7590   36.1535 N.am      2 SEC2        0.0000 
     36 N         -33.2300  -19.8470   35.1340 N.am      8 SEL2        0.0000 
     37 N         -32.3670  -21.6710   37.1730 N.am      5 SEP2        0.0000 
     38 CA        -31.6390  -20.0020   35.7790 C.3       3 GLC5        0.0000 
     39 CA        -33.1740  -18.5030   35.1910 C.3       9 GLL5        0.0000 
     40 CA        -33.3545  -19.1620   37.1645 C.3       3 GLC5        0.0000 
     41 CA        -33.5350  -19.8210   39.1380 C.3       6 GLP5        0.0000 
     42 CA        -31.8300  -18.6565   33.7170 C.3       3 GLC5        0.0000 
     43 CA        -30.4860  -18.8100   32.2430 C.3       6 GLP5        0.0000 
     44 CA        -34.9740  -19.2690   35.5070 C.3       3 GLC5        0.0000 
     45 CA        -36.7740  -20.0350   35.8230 C.3       6 GLP5        0.0000 
     46 CA        -35.9678  -17.4370   30.1303 C.3       3 GLC5        0.0000 
     47 CA        -34.7300  -16.9510   28.4650 C.3       9 GLL5        0.0000 
     48 CA        -36.7193  -16.1820   28.1807 C.3       3 GLC5        0.0000 
     49 CA        -38.7310  -16.0580   27.4990 C.3       6 GLP5        0.0000 
     50 CA        -31.8450  -17.4440   31.5740 C.3       3 GLC5        0.0000 
     51 CA        -35.1643  -20.0577   34.5958 C.3       3 GLC5        0.0000 
     52 CA        -33.6510  -19.6690   32.7620 C.3       9 GLL5        0.0000 
     53 CA        -35.4188  -18.7540   32.1172 C.3       3 GLC5        0.0000 
     54 CA        -32.0236  -18.9779   32.6914 C.3       3 GLC5        0.0000 
     55 CA        -33.5680  -18.2110   32.9110 C.3       9 GLL5        0.0000 
@<TRIPOS>BOND
@<TRIPOS>SUBSTRUCTURE
     1 ALC1       32 GROUP        1 X    ALC  0     ROOT ALC X 1
     2 SEC2        1 GROUP        1 X    SEC  0     **** SEC X 2
     3 GLC5       16 GROUP        1 X    GLC  0     **** GLC X 6
     4 ALP1       34 GROUP        1 Y    ALP  0     ROOT ALP Y 8
     5 SEP2        3 GROUP        1 Y    SEP  0     **** SEP Y 9
     6 GLP5       18 GROUP        1 Y    GLP  0     **** GLP Y 13
     7 ALL1       33 GROUP        1 Z    ALL  0     ROOT ALL Z 15
     8 SEL2        2 GROUP        1 Z    SEL  0     **** SEL Z 16
     9 GLL5       17 GROUP        1 Z    GLL  0     **** GLL Z 20
@<TRIPOS>SET

