#    Name: 3dzd_ADP_1_ligand
#    Modification time : Tue Mar 25 00:47:12 2014

@<TRIPOS>MOLECULE
3dzd_ADP_1_ligand
   39    41     1     0     0
SMALL
NO_CHARGES


@<TRIPOS>ATOM
      1 PB        -32.7890  -19.4630   24.4410 P.3       1 ADP370      0.0000 
      2 O1B       -31.3120  -19.1660   24.6060 O.co2     1 ADP370      0.0000 
      3 O2B       -33.3850  -18.9800   23.1370 O.co2     1 ADP370      0.0000 
      4 O3B       -33.1690  -20.8840   24.7280 O.co2     1 ADP370      0.0000 
      5 PA        -32.9660  -17.5220   26.5910 P.3       1 ADP370      0.0000 
      6 O1A       -32.2860  -18.1840   27.7570 O.co2     1 ADP370      0.0000 
      7 O2A       -32.1620  -16.5170   25.7920 O.co2     1 ADP370      0.0000 
      8 O3A       -33.5760  -18.6690   25.6200 O.3       1 ADP370      0.0000 
      9 O5'       -34.2850  -16.7720   27.1270 O.3       1 ADP370      0.0000 
     10 C5'       -34.7300  -16.9510   28.4650 C.3       1 ADP370      0.0000 
     11 C4'       -34.6850  -15.6610   29.2600 C.3       1 ADP370      0.0000 
     12 O4'       -34.9940  -16.0200   30.6010 O.3       1 ADP370      0.0000 
     13 C3'       -33.2690  -15.1300   29.3370 C.3       1 ADP370      0.0000 
     14 O3'       -33.3150  -13.7570   29.7380 O.3       1 ADP370      0.0000 
     15 C2'       -32.6180  -15.8810   30.4680 C.3       1 ADP370      0.0000 
     16 O2'       -31.8160  -14.9340   31.1770 O.3       1 ADP370      0.0000 
     17 C1'       -33.7900  -16.2750   31.3420 C.3       1 ADP370      0.0000 
     18 N9        -33.7560  -17.7100   31.6940 N.pl3     1 ADP370      0.0000 
     19 C8        -33.9530  -18.7300   30.8380 C.2       1 ADP370      0.0000 
     20 N7        -33.8920  -19.9210   31.4640 N.2       1 ADP370      0.0000 
     21 C5        -33.6510  -19.6690   32.7620 C.ar      1 ADP370      0.0000 
     22 C6        -33.4580  -20.4920   33.9750 C.ar      1 ADP370      0.0000 
     23 N6        -33.5230  -21.8490   33.9120 N.pl3     1 ADP370      0.0000 
     24 N1        -33.2300  -19.8470   35.1340 N.ar      1 ADP370      0.0000 
     25 C2        -33.1740  -18.5030   35.1910 C.ar      1 ADP370      0.0000 
     26 N3        -33.3310  -17.6910   34.1310 N.ar      1 ADP370      0.0000 
     27 C4        -33.5680  -18.2110   32.9110 C.ar      1 ADP370      0.0000 
     28 H         -34.1116  -17.6982   29.0012 H         1 ADP370      0.0000 
     29 H         -35.7706  -17.3306   28.4986 H         1 ADP370      0.0000 
     30 H         -35.3275  -14.9539   28.8733 H         1 ADP370      0.0000 
     31 H         -32.7645  -15.2963   28.4533 H         1 ADP370      0.0000 
     32 H         -32.1227  -16.7031   30.1219 H         1 ADP370      0.0000 
     33 H         -33.7697  -15.6769   32.2347 H         1 ADP370      0.0000 
     34 H         -34.1213  -18.6194   29.8716 H         1 ADP370      0.0000 
     35 H         -33.8785  -22.3107   34.7247 H         1 ADP370      0.0000 
     36 H         -33.2097  -22.2654   33.0586 H         1 ADP370      0.0000 
     37 H         -32.9918  -18.0502   36.1470 H         1 ADP370      0.0000 
     38 H         -32.8062  -13.2642   29.0321 H         1 ADP370      0.0000 
     39 H         -32.0983  -14.0414   30.8255 H         1 ADP370      0.0000 
@<TRIPOS>BOND
     1    2    1 ar   
     2    3    1 ar   
     3    4    1 ar   
     4    8    1 1    
     5    6    5 ar   
     6    7    5 ar   
     7    8    5 1    
     8    9    5 1    
     9   10    9 1    
    10   11   10 1    
    11   28   10 1    
    12   29   10 1    
    13   12   11 1    
    14   13   11 1    
    15   30   11 1    
    16   17   12 1    
    17   14   13 1    
    18   15   13 1    
    19   31   13 1    
    20   38   14 1    
    21   16   15 1    
    22   17   15 1    
    23   32   15 1    
    24   39   16 1    
    25   18   17 1    
    26   33   17 1    
    27   19   18 1    
    28   27   18 1    
    29   20   19 2    
    30   34   19 1    
    31   21   20 1    
    32   22   21 ar   
    33   27   21 ar   
    34   23   22 1    
    35   24   22 ar   
    36   35   23 1    
    37   36   23 1    
    38   25   24 ar   
    39   26   25 ar   
    40   37   25 1    
    41   27   26 ar   
@<TRIPOS>SUBSTRUCTURE
     1 ADP370      1 GROUP   
@<TRIPOS>SET

