#    Name: 3o1e_H97_1_INTS_M
#    Modification time : Tue Mar 25 03:08:42 2014

@<TRIPOS>MOLECULE
3o1e_H97_1_INTS_M
  145     0     9     0     0
SMALL
NO_CHARGES


@<TRIPOS>ATOM
      1 CA          4.0410   40.0640   39.9150 C.3       3 GLC5        0.0000 
      2 CA          2.5920   39.8270   38.6990 C.3       9 GLL5        0.0000 
      3 CA          5.4900   40.3010   41.1310 C.3       6 GLP5        0.0000 
      4 CA          2.0875   39.4545   40.5080 C.3       3 GLC5        0.0000 
      5 CA          1.5830   39.0820   42.3170 C.3       6 GLP5        0.0000 
      6 CA          3.1465   25.6875   31.3685 C.3       3 GLC5        0.0000 
      7 CA          3.7340   27.2720   32.1910 C.3       9 GLL5        0.0000 
      8 CA          2.5590   24.1030   30.5460 C.3       6 GLP5        0.0000 
      9 N           4.7670   41.0825   38.3825 N.am      2 SEC2        0.0000 
     10 N           3.9740   39.8970   38.3160 N.am      8 SEL2        0.0000 
     11 N           5.5600   42.2680   38.4490 N.am      5 SEP2        0.0000 
     12 O           4.3315   39.6245   36.9445 O.2       1 ALC1        0.0000 
     13 O           3.9740   39.8970   38.3160 O.2       7 ALL1        0.0000 
     14 O           4.6890   39.3520   35.5730 O.2       4 ALP1        0.0000 
     15 CA          2.3540   42.5285   39.5400 C.3       3 GLC5        0.0000 
     16 CA          1.8760   41.0540   38.1540 C.3       9 GLL5        0.0000 
     17 CA          2.8320   44.0030   40.9260 C.3       6 GLP5        0.0000 
     18 CA          0.4005   28.0865   32.7600 C.3       3 GLC5        0.0000 
     19 CA          2.3940   28.2910   33.5460 C.3       9 GLL5        0.0000 
     20 CA         -1.5930   27.8820   31.9740 C.3       6 GLP5        0.0000 
     21 CA          1.4645   27.1265   34.5300 C.3       3 GLC5        0.0000 
     22 CA          0.5350   25.9620   35.5140 C.3       6 GLP5        0.0000 
     23 N           0.4070   42.3785   40.5510 N.am      2 SEC2        0.0000 
     24 N           0.2910   41.0900   39.9420 N.am      8 SEL2        0.0000 
     25 N           0.5230   43.6670   41.1600 N.am      5 SEP2        0.0000 
     26 O          -1.0085   40.7345   40.4455 O.2       1 ALC1        0.0000 
     27 O           0.2910   41.0900   39.9420 O.2       7 ALL1        0.0000 
     28 O          -2.3080   40.3790   40.9490 O.2       4 ALP1        0.0000 
     29 CA          0.9935   42.7805   39.7690 C.3       3 GLC5        0.0000 
     30 CA          0.4040   41.0280   38.5230 C.3       9 GLL5        0.0000 
     31 CA          1.5830   44.5330   41.0150 C.3       6 GLP5        0.0000 
     32 CA         -0.3605   42.9200   38.4690 C.3       3 GLC5        0.0000 
     33 CA         -1.1250   44.8120   38.4150 C.3       6 GLP5        0.0000 
     34 CA          0.9935   40.0550   40.4200 C.3       3 GLC5        0.0000 
     35 CA          3.3045   31.1670   30.6835 C.3       3 GLC5        0.0000 
     36 CA          3.3090   29.4460   31.9610 C.3       9 GLL5        0.0000 
     37 CA          3.3000   32.8880   29.4060 C.3       6 GLP5        0.0000 
     38 O           6.0685   27.7540   35.1050 O.2       1 ALC1        0.0000 
     39 O           5.2020   27.3660   33.9220 O.2       7 ALL1        0.0000 
     40 O           6.9350   28.1420   36.2880 O.2       4 ALP1        0.0000 
     41 CA          0.2085   39.4085   36.0650 C.3       3 GLC5        0.0000 
     42 CA         -0.3060   39.7710   37.9870 C.3       9 GLL5        0.0000 
     43 CA          0.7230   39.0460   34.1430 C.3       6 GLP5        0.0000 
     44 CA          5.7300   28.6090   29.8910 C.3       3 GLC5        0.0000 
     45 CA          5.8020   28.7780   31.6680 C.3       9 GLL5        0.0000 
     46 CA          5.6580   28.4400   28.1140 C.3       6 GLP5        0.0000 
     47 CA          6.6805   31.6050   33.7325 C.3       3 GLC5        0.0000 
     48 CA          6.8010   29.4680   33.4720 C.3       9 GLL5        0.0000 
     49 CA          6.5600   33.7420   33.9930 C.3       6 GLP5        0.0000 
     50 CA          6.5410   28.5200   35.4115 C.3       3 GLC5        0.0000 
     51 CA          6.2810   27.5720   37.3510 C.3       6 GLP5        0.0000 
     52 CA          4.2380   31.7545   30.9450 C.3       3 GLC5        0.0000 
     53 CA          5.1760   30.6210   32.4840 C.3       9 GLL5        0.0000 
     54 CA          4.6355   32.1190   33.2760 C.3       3 GLC5        0.0000 
     55 CA          4.0950   33.6170   34.0680 C.3       6 GLP5        0.0000 
     56 CA         -1.1455   34.9550   40.5505 C.3       3 GLC5        0.0000 
     57 CA         -0.0860   34.9550   38.8690 C.3       9 GLL5        0.0000 
     58 CA         -2.2050   34.9550   42.2320 C.3       6 GLP5        0.0000 
     59 CA         -2.4020   35.0950   39.9015 C.3       3 GLC5        0.0000 
     60 CA         -1.5260   34.8760   38.4020 C.3       9 GLL5        0.0000 
     61 CA         -3.2780   35.3140   41.4010 C.3       6 GLP5        0.0000 
     62 CA         -2.8930   36.0055   37.3455 C.3       3 GLC5        0.0000 
     63 CA         -4.2600   37.1350   36.2890 C.3       6 GLP5        0.0000 
     64 CA          1.3540   38.7990   36.1360 C.3       3 GLC5        0.0000 
     65 CA          1.9850   38.5520   38.1290 C.3       9 GLL5        0.0000 
     66 CA          3.7350   37.3740   38.3955 C.3       3 GLC5        0.0000 
     67 CA          5.4850   36.1960   38.6620 C.3       6 GLP5        0.0000 
     68 CA         -1.8615   33.8065   35.1610 C.3       3 GLC5        0.0000 
     69 CA         -1.6090   33.9140   37.2110 C.3       9 GLL5        0.0000 
     70 CA         -2.1140   33.6990   33.1110 C.3       6 GLP5        0.0000 
     71 CA         -2.8625   34.1120   39.0655 C.3       3 GLC5        0.0000 
     72 CA         -4.1160   34.3100   40.9200 C.3       6 GLP5        0.0000 
     73 CA         -3.5780   34.4910   37.0760 C.3       3 GLC5        0.0000 
     74 CA         -5.5470   35.0680   36.9410 C.3       6 GLP5        0.0000 
     75 CA         -1.5135   31.8945   35.3805 C.3       3 GLC5        0.0000 
     76 CA         -0.8640   32.5900   37.4150 C.3       9 GLL5        0.0000 
     77 CA         -2.1630   31.1990   33.3460 C.3       6 GLP5        0.0000 
     78 CA         -0.7075   33.6290   40.8780 C.3       3 GLC5        0.0000 
     79 CA          0.5420   33.6170   39.1540 C.3       9 GLL5        0.0000 
     80 CA         -1.9570   33.6410   42.6020 C.3       6 GLP5        0.0000 
     81 CA          0.2735   31.9880   40.6615 C.3       3 GLC5        0.0000 
     82 CA          0.0050   30.3590   42.1690 C.3       6 GLP5        0.0000 
     83 CA          0.6815   35.1910   35.8030 C.3       3 GLC5        0.0000 
     84 CA          1.3450   33.6400   36.8240 C.3       9 GLL5        0.0000 
     85 CA          0.0180   36.7420   34.7820 C.3       6 GLP5        0.0000 
     86 CA          2.7200   33.6285   35.4460 C.3       3 GLC5        0.0000 
     87 CA         -0.6950   28.8690   37.2155 C.3       3 GLC5        0.0000 
     88 CA          1.4380   29.2230   37.3590 C.3       9 GLL5        0.0000 
     89 CA         -2.8280   28.5150   37.0720 C.3       6 GLP5        0.0000 
     90 CA          4.3205   27.9885   37.8215 C.3       3 GLC5        0.0000 
     91 CA          2.3600   28.4050   38.2920 C.3       9 GLL5        0.0000 
     92 CA          0.8690   29.1795   40.9020 C.3       3 GLC5        0.0000 
     93 CA          1.7330   28.0000   39.6350 C.3       9 GLL5        0.0000 
     94 CA          1.0455   27.7840   42.9710 C.3       3 GLC5        0.0000 
     95 CA          1.7690   26.5640   41.7130 C.3       9 GLL5        0.0000 
     96 CA          0.3220   29.0040   44.2290 C.3       6 GLP5        0.0000 
     97 CA          5.4925   26.8945   40.1330 C.3       3 GLC5        0.0000 
     98 CA          3.8940   27.1470   40.6270 C.3       9 GLL5        0.0000 
     99 CA          7.0910   26.6420   39.6390 C.3       6 GLP5        0.0000 
    100 CA         -1.3630   41.0558   39.6945 C.3       3 GLC5        0.0000 
    101 CA         -2.7750   41.7120   41.1340 C.3       6 GLP5        0.0000 
    102 CA         -1.6350   40.8642   37.8640 C.3       3 GLC5        0.0000 
    103 CA         -3.3190   41.3290   37.4730 C.3       6 GLP5        0.0000 
    104 CA          2.5769   28.2921   30.6574 C.3       3 GLC5        0.0000 
    105 CA          1.6990   27.9390   29.0890 C.3       6 GLP5        0.0000 
    106 CA          0.0495   41.2455   36.3549 C.3       3 GLC5        0.0000 
    107 CA         -0.3180   42.0850   34.5470 C.3       6 GLP5        0.0000 
    108 CA          0.0920   37.3480   36.6260 C.3       3 GLC5        0.0000 
    109 CA         -0.1540   37.3880   38.6530 C.3       9 GLL5        0.0000 
    110 CA          7.4039   27.8667   32.6496 C.3       3 GLC5        0.0000 
    111 CA          5.6550   29.4320   32.8010 C.3       9 GLL5        0.0000 
    112 CA          8.5430   26.4470   32.4460 C.3       6 GLP5        0.0000 
    113 CA          7.7780   30.2860   33.7048 C.3       3 GLC5        0.0000 
    114 CA          9.3280   31.1220   34.2730 C.3       6 GLP5        0.0000 
    115 CA         -0.9822   36.9657   40.3790 C.3       3 GLC5        0.0000 
    116 CA          0.5510   36.1350   38.9610 C.3       9 GLL5        0.0000 
    117 CA         -2.1630   37.1700   41.9510 C.3       6 GLP5        0.0000 
    118 CA          7.3642   30.2759   31.4978 C.3       3 GLC5        0.0000 
    119 CA          9.0080   30.5980   30.3270 C.3       6 GLP5        0.0000 
    120 CA          0.1253   36.1435   36.8485 C.3       3 GLC5        0.0000 
    121 CA          0.8327   36.6215   40.2995 C.3       3 GLC5        0.0000 
    122 CA          1.4330   37.6980   41.6840 C.3       6 GLP5        0.0000 
    123 CA         -0.7748   35.5685   36.2942 C.3       3 GLC5        0.0000 
    124 CA          1.2543   37.9755   39.9917 C.3       3 GLC5        0.0000 
    125 CA         -2.7998   31.8770   37.2705 C.3       3 GLC5        0.0000 
    126 CA         -4.3630   30.5020   37.2280 C.3       6 GLP5        0.0000 
    127 CA          3.6813   32.6717   41.0280 C.3       3 GLC5        0.0000 
    128 CA          1.9810   33.5490   39.6460 C.3       9 GLL5        0.0000 
    129 CA          5.1310   32.4730   42.6680 C.3       6 GLP5        0.0000 
    130 CA          0.9640   31.1268   40.4335 C.3       3 GLC5        0.0000 
    131 CA          2.4820   32.1920   39.1300 C.3       9 GLL5        0.0000 
    132 CA          5.3018   30.8043   37.4670 C.3       3 GLC5        0.0000 
    133 CA          3.8330   30.0260   35.7760 C.3       9 GLL5        0.0000 
    134 CA          7.0010   31.2070   38.5700 C.3       6 GLP5        0.0000 
    135 CA          4.9417   28.9868   36.8575 C.3       3 GLC5        0.0000 
    136 CA          3.3720   30.7770   36.9520 C.3       9 GLL5        0.0000 
    137 CA          3.9999   31.7641   34.8317 C.3       3 GLC5        0.0000 
    138 CA          4.2070   29.4210   34.8270 C.3       9 GLL5        0.0000 
    139 CA          5.3592   28.3070   35.7938 C.3       3 GLC5        0.0000 
    140 CA          1.2170   27.3880   36.6698 C.3       3 GLC5        0.0000 
    141 CA          0.0985   27.1325   40.6260 C.3       3 GLC5        0.0000 
    142 CA          2.4290   26.8440   40.3710 C.3       9 GLL5        0.0000 
    143 CA         -1.7280   27.2720   40.3940 C.3       6 GLP5        0.0000 
    144 CA          3.6412   28.4645   41.5708 C.3       3 GLC5        0.0000 
    145 CA          4.3730   29.8590   42.3990 C.3       6 GLP5        0.0000 
@<TRIPOS>BOND
@<TRIPOS>SUBSTRUCTURE
     1 ALC1       12 GROUP        1 X    ALC  0     ROOT ALC X 1
     2 SEC2        9 GROUP        1 X    SEC  0     **** SEC X 2
     3 GLC5        1 GROUP        1 X    GLC  0     **** GLC X 6
     4 ALP1       14 GROUP        1 Y    ALP  0     ROOT ALP Y 8
     5 SEP2       11 GROUP        1 Y    SEP  0     **** SEP Y 9
     6 GLP5        3 GROUP        1 Y    GLP  0     **** GLP Y 13
     7 ALL1       13 GROUP        1 Z    ALL  0     ROOT ALL Z 15
     8 SEL2       10 GROUP        1 Z    SEL  0     **** SEL Z 16
     9 GLL5        2 GROUP        1 Z    GLL  0     **** GLL Z 20
@<TRIPOS>SET

