#    Name: 3o1e_H97_1_ligand
#    Modification time : Tue Mar 25 03:08:42 2014

@<TRIPOS>MOLECULE
3o1e_H97_1_ligand
   85    87     1     0     0
SMALL
NO_CHARGES


@<TRIPOS>ATOM
      1 C1          2.5920   39.8270   38.6990 C.3       1 H971        0.0000 
      2 F1          3.7340   27.2720   32.1910 F         1 H971        0.0000 
      3 O1          3.9740   39.8970   38.3160 O.3       1 H971        0.0000 
      4 C2          1.8760   41.0540   38.1540 C.3       1 H971        0.0000 
      5 F2          2.3940   28.2910   33.5460 F         1 H971        0.0000 
      6 O2          0.2910   41.0900   39.9420 O.3       1 H971        0.0000 
      7 C3          0.4040   41.0280   38.5230 C.3       1 H971        0.0000 
      8 F3          3.3090   29.4460   31.9610 F         1 H971        0.0000 
      9 O3          5.2020   27.3660   33.9220 O.3       1 H971        0.0000 
     10 C4         -0.3060   39.7710   37.9870 C.3       1 H971        0.0000 
     11 F4          5.8020   28.7780   31.6680 F         1 H971        0.0000 
     12 O4          2.3390   25.6380   39.6040 O.3       1 H971        0.0000 
     13 C5          0.4860   38.5200   38.2870 C.2       1 H971        0.0000 
     14 F5          6.8010   29.4680   33.4720 F         1 H971        0.0000 
     15 C6         -0.1540   37.3880   38.6530 C.2       1 H971        0.0000 
     16 F6          5.1760   30.6210   32.4840 F         1 H971        0.0000 
     17 C7          0.5510   36.1350   38.9610 C.2       1 H971        0.0000 
     18 C8         -0.0860   34.9550   38.8690 C.2       1 H971        0.0000 
     19 C9         -1.5260   34.8760   38.4020 C.3       1 H971        0.0000 
     20 C10         1.9850   38.5520   38.1290 C.3       1 H971        0.0000 
     21 C11        -1.6090   33.9140   37.2110 C.3       1 H971        0.0000 
     22 C12        -0.8640   32.5900   37.4150 C.3       1 H971        0.0000 
     23 C13         0.5690   32.8290   37.8580 C.3       1 H971        0.0000 
     24 C14         0.5420   33.6170   39.1540 C.3       1 H971        0.0000 
     25 C15         1.9810   33.5490   39.6460 C.3       1 H971        0.0000 
     26 C16         2.4820   32.1920   39.1300 C.3       1 H971        0.0000 
     27 C17         1.3640   31.5970   38.2660 C.3       1 H971        0.0000 
     28 C18         1.3450   33.6400   36.8240 C.3       1 H971        0.0000 
     29 C20         1.8590   30.6880   37.1290 C.3       1 H971        0.0000 
     30 C21         3.3720   30.7770   36.9520 C.3       1 H971        0.0000 
     31 C22         3.8330   30.0260   35.7760 C.1       1 H971        0.0000 
     32 C23         4.2070   29.4210   34.8270 C.1       1 H971        0.0000 
     33 C24         4.6680   28.6630   33.6460 C.3       1 H971        0.0000 
     34 C25         5.6550   29.4320   32.8010 C.3       1 H971        0.0000 
     35 C26         3.4670   28.4170   32.7900 C.3       1 H971        0.0000 
     36 C27         1.4380   29.2230   37.3590 C.3       1 H971        0.0000 
     37 C28         2.3600   28.4050   38.2920 C.3       1 H971        0.0000 
     38 C29         1.7330   28.0000   39.6350 C.3       1 H971        0.0000 
     39 C30         2.4290   26.8440   40.3710 C.3       1 H971        0.0000 
     40 C31         1.7690   26.5640   41.7130 C.3       1 H971        0.0000 
     41 C32         3.8940   27.1470   40.6270 C.3       1 H971        0.0000 
     42 H           2.4882   39.8127   39.7659 H         1 H971        0.0000 
     43 H           1.9770   41.0766   37.0684 H         1 H971        0.0000 
     44 H           2.3371   41.9521   38.5664 H         1 H971        0.0000 
     45 H          -0.0711   41.8955   38.0677 H         1 H971        0.0000 
     46 H          -0.4357   39.8768   36.9081 H         1 H971        0.0000 
     47 H          -1.2929   39.7038   38.4493 H         1 H971        0.0000 
     48 H          -1.1940   37.3506   38.7351 H         1 H971        0.0000 
     49 H           1.5351   36.2207   39.2431 H         1 H971        0.0000 
     50 H          -1.8649   35.8546   38.0912 H         1 H971        0.0000 
     51 H          -2.1511   34.5040   39.2020 H         1 H971        0.0000 
     52 H           2.4262   37.6882   38.6407 H         1 H971        0.0000 
     53 H           2.2433   38.4794   37.0657 H         1 H971        0.0000 
     54 H          -1.2026   34.4175   36.3178 H         1 H971        0.0000 
     55 H          -2.6700   33.6972   37.0018 H         1 H971        0.0000 
     56 H          -0.8675   32.0332   36.4771 H         1 H971        0.0000 
     57 H          -1.3861   32.0024   38.1712 H         1 H971        0.0000 
     58 H          -0.0847   33.0418   39.8351 H         1 H971        0.0000 
     59 H           2.0039   33.5553   40.7059 H         1 H971        0.0000 
     60 H           2.5524   34.3274   39.2082 H         1 H971        0.0000 
     61 H           2.6775   31.5437   39.9609 H         1 H971        0.0000 
     62 H           3.3590   32.3389   38.5315 H         1 H971        0.0000 
     63 H           0.7273   31.0192   38.9517 H         1 H971        0.0000 
     64 H           1.3891   31.0222   36.1996 H         1 H971        0.0000 
     65 H           3.8491   30.3924   37.8661 H         1 H971        0.0000 
     66 H           3.6466   31.8390   36.8629 H         1 H971        0.0000 
     67 H           1.3850   28.7113   36.3802 H         1 H971        0.0000 
     68 H           0.4142   29.2095   37.7764 H         1 H971        0.0000 
     69 H           3.2732   28.9946   38.4874 H         1 H971        0.0000 
     70 H           2.6797   27.4930   37.7574 H         1 H971        0.0000 
     71 H           0.6741   27.7238   39.4630 H         1 H971        0.0000 
     72 H           1.7177   28.8854   40.3005 H         1 H971        0.0000 
     73 H           2.2900   33.7991   37.1098 H         1 H971        0.0000 
     74 H           1.3807   33.1762   35.9388 H         1 H971        0.0000 
     75 H           0.9309   34.5368   36.6685 H         1 H971        0.0000 
     76 H           2.2252   25.8216   42.2035 H         1 H971        0.0000 
     77 H           1.7882   27.3655   42.3107 H         1 H971        0.0000 
     78 H           0.8103   26.2999   41.6075 H         1 H971        0.0000 
     79 H           4.3425   26.4107   41.1337 H         1 H971        0.0000 
     80 H           4.4026   27.2683   39.7746 H         1 H971        0.0000 
     81 H           4.0123   27.9844   41.1606 H         1 H971        0.0000 
     82 H           3.9830   39.6819   37.3394 H         1 H971        0.0000 
     83 H          -0.6230   40.7384   40.1443 H         1 H971        0.0000 
     84 H           5.7794   27.9434   34.4994 H         1 H971        0.0000 
     85 H           1.8961   24.9780   40.2108 H         1 H971        0.0000 
@<TRIPOS>BOND
     1    3    1 1    
     2    4    1 1    
     3   20    1 1    
     4   42    1 1    
     5   35    2 1    
     6   82    3 1    
     7    7    4 1    
     8   43    4 1    
     9   44    4 1    
    10   35    5 1    
    11    7    6 1    
    12   83    6 1    
    13   10    7 1    
    14   45    7 1    
    15   35    8 1    
    16   33    9 1    
    17   84    9 1    
    18   13   10 1    
    19   46   10 1    
    20   47   10 1    
    21   34   11 1    
    22   39   12 1    
    23   85   12 1    
    24   15   13 2    
    25   20   13 1    
    26   34   14 1    
    27   17   15 1    
    28   48   15 1    
    29   34   16 1    
    30   18   17 2    
    31   49   17 1    
    32   19   18 1    
    33   24   18 1    
    34   21   19 1    
    35   50   19 1    
    36   51   19 1    
    37   52   20 1    
    38   53   20 1    
    39   22   21 1    
    40   54   21 1    
    41   55   21 1    
    42   23   22 1    
    43   56   22 1    
    44   57   22 1    
    45   24   23 1    
    46   27   23 1    
    47   28   23 1    
    48   25   24 1    
    49   58   24 1    
    50   26   25 1    
    51   59   25 1    
    52   60   25 1    
    53   27   26 1    
    54   61   26 1    
    55   62   26 1    
    56   29   27 1    
    57   63   27 1    
    58   73   28 1    
    59   74   28 1    
    60   75   28 1    
    61   30   29 1    
    62   36   29 1    
    63   64   29 1    
    64   31   30 1    
    65   65   30 1    
    66   66   30 1    
    67   32   31 3    
    68   33   32 1    
    69   34   33 1    
    70   35   33 1    
    71   37   36 1    
    72   67   36 1    
    73   68   36 1    
    74   38   37 1    
    75   69   37 1    
    76   70   37 1    
    77   39   38 1    
    78   71   38 1    
    79   72   38 1    
    80   40   39 1    
    81   41   39 1    
    82   76   40 1    
    83   77   40 1    
    84   78   40 1    
    85   79   41 1    
    86   80   41 1    
    87   81   41 1    
@<TRIPOS>SUBSTRUCTURE
     1 H971        1 GROUP   
@<TRIPOS>SET

