#    Name: 1e4n_HBO_1_INTS_M
#    Modification time : Mon Mar 24 22:53:16 2014

@<TRIPOS>MOLECULE
1e4n_HBO_1_INTS_M
   10     0     3     0     0
SMALL
NO_CHARGES


@<TRIPOS>ATOM
      1 CA         29.6445    6.2195   27.7210 C.3       1 GLC5        0.0000 
      2 CA         30.1010    4.9150   28.8690 C.3       3 GLL5        0.0000 
      3 CA         29.1880    7.5240   26.5730 C.3       2 GLP5        0.0000 
      4 CA         30.5770    3.5105   30.3235 C.3       1 GLC5        0.0000 
      5 CA         31.0530    2.1060   31.7780 C.3       2 GLP5        0.0000 
      6 CA         36.4870    2.4915   25.1055 C.3       1 GLC5        0.0000 
      7 CA         35.4860    1.2800   25.6270 C.3       3 GLL5        0.0000 
      8 CA         37.4880    3.7030   24.5840 C.3       2 GLP5        0.0000 
      9 CA         36.0740    0.3200   24.5775 C.3       1 GLC5        0.0000 
     10 CA         36.6620   -0.6400   23.5280 C.3       2 GLP5        0.0000 
@<TRIPOS>BOND
@<TRIPOS>SUBSTRUCTURE
     1 GLC5        1 GROUP        1 X    GLC  0     ROOT GLC X 6
     2 GLP5        3 GROUP        1 Y    GLP  0     ROOT GLP Y 13
     3 GLL5        2 GROUP        1 Z    GLL  0     ROOT GLL Z 20
@<TRIPOS>SET

