#    Name: 1e4n_HBO_1_ligand
#    Modification time : Mon Mar 24 22:53:16 2014

@<TRIPOS>MOLECULE
1e4n_HBO_1_ligand
   24    25     1     0     0
SMALL
NO_CHARGES


@<TRIPOS>ATOM
      1 O1A        28.8260    4.6120   29.4620 O.3       1 HBO514      0.0000 
      2 C3B        31.0800    5.2810   29.8900 C.2       1 HBO514      0.0000 
      3 N3B        32.4910    5.4450   29.5080 N.am      1 HBO514      0.0000 
      4 C4B        32.9000    4.5090   28.4510 C.ar      1 HBO514      0.0000 
      5 C1B        31.9610    3.7170   27.7490 C.ar      1 HBO514      0.0000 
      6 O1B        30.5330    3.7750   28.0690 O.3       1 HBO514      0.0000 
      7 C2B        30.1010    4.9150   28.8690 C.3       1 HBO514      0.0000 
      8 C5B        34.2490    4.3940   28.1260 C.ar      1 HBO514      0.0000 
      9 C6B        34.6440    3.5120   27.1240 C.ar      1 HBO514      0.0000 
     10 C8B        32.3330    2.8470   26.7480 C.ar      1 HBO514      0.0000 
     11 O3B        30.6700    5.6860   30.9910 O.2       1 HBO514      0.0000 
     12 OHB        33.3970    5.3480   30.6930 O.3       1 HBO514      0.0000 
     13 C7B        33.6910    2.7430   26.4280 C.ar      1 HBO514      0.0000 
     14 O7B        34.1310    1.8230   25.3510 O.3       1 HBO514      0.0000 
     15 C9B        35.4860    1.2800   25.6270 C.3       1 HBO514      0.0000 
     16 H          29.9684    5.7780   28.1880 H         1 HBO514      0.0000 
     17 H          34.9482    4.9564   28.6225 H         1 HBO514      0.0000 
     18 H          35.6405    3.4156   26.8840 H         1 HBO514      0.0000 
     19 H          31.6445    2.2890   26.2474 H         1 HBO514      0.0000 
     20 H          36.1693    2.0064   25.7006 H         1 HBO514      0.0000 
     21 H          35.5123    0.7649   26.4837 H         1 HBO514      0.0000 
     22 H          35.7926    0.6614   24.9036 H         1 HBO514      0.0000 
     23 H          28.8970    4.9335   30.4062 H         1 HBO514      0.0000 
     24 H          32.8299    5.6087   31.4743 H         1 HBO514      0.0000 
@<TRIPOS>BOND
     1    7    1 1    
     2   23    1 1    
     3    3    2 am   
     4    7    2 1    
     5   11    2 2    
     6    4    3 1    
     7   12    3 1    
     8    5    4 ar   
     9    8    4 ar   
    10    6    5 1    
    11   10    5 ar   
    12    7    6 1    
    13   16    7 1    
    14    9    8 ar   
    15   17    8 1    
    16   13    9 ar   
    17   18    9 1    
    18   13   10 ar   
    19   19   10 1    
    20   24   12 1    
    21   14   13 1    
    22   15   14 1    
    23   20   15 1    
    24   21   15 1    
    25   22   15 1    
@<TRIPOS>SUBSTRUCTURE
     1 HBO514      1 GROUP   
@<TRIPOS>SET

