#    Name: 2BXU_1_CAVITY_N1_ALL.mol2
#    Modification time : Tue Mar 11 05:21:59 2014

@<TRIPOS>MOLECULE
2BXU_1_CAVITY_N1_ALL.mol2
   71     0     6     0     0
SMALL
NO_CHARGES


@<TRIPOS>ATOM
      1 O          16.7308  -18.3144   13.1907 O.2       2 ALA2        0.0000 
      2 NZ         14.7167  -17.9617   13.7556 N.2       3 LYS4        0.0000 
      3 O          15.5030  -17.8180   12.4863 O.2       2 ALA2        0.0000 
      4 N          14.2753  -17.3216   11.7819 N.2       2 ALA2        0.0000 
      5 CZ          9.4608  -16.7598   14.1809 C.ar      4 PHE5        0.0000 
      6 NZ         17.5248  -17.5463   15.5422 N.2       3 LYS4        0.0000 
      7 CA         18.3111  -17.4027   14.2730 C.3       5 GLY6        0.0000 
      8 O          17.0834  -16.9063   13.5685 O.2       2 ALA2        0.0000 
      9 NZ         15.0693  -16.5535   14.1334 N.2       3 LYS4        0.0000 
     10 O          15.8556  -16.4099   12.8641 O.2       2 ALA2        0.0000 
     11 CZ         12.2689  -16.3444   15.9676 C.ar      4 PHE5        0.0000 
     12 NZ         13.0552  -16.2008   14.6983 N.2       3 LYS4        0.0000 
     13 N          13.8415  -16.0571   13.4290 N.2       2 ALA2        0.0000 
     14 CZ         11.0411  -15.8480   15.2632 C.ar      4 PHE5        0.0000 
     15 N          11.8275  -15.7044   13.9939 N.2       2 ALA2        0.0000 
     16 CZ          9.8134  -15.3516   14.5587 C.ar      4 PHE5        0.0000 
     17 DU         10.5997  -15.2080   13.2895 H         6 CUB7        0.0000 
     18 N          11.3860  -15.0643   12.0202 N.2       2 ALA2        0.0000 
     19 OG          8.5856  -14.8552   13.8543 O.2       1 SER1        0.0000 
     20 DU          9.3720  -14.7116   12.5851 H         6 CUB7        0.0000 
     21 CA         17.4360  -15.4981   13.9464 C.3       5 GLY6        0.0000 
     22 NZ         16.2082  -15.0017   13.2419 N.2       3 LYS4        0.0000 
     23 NZ         14.1941  -14.6489   13.8068 N.2       3 LYS4        0.0000 
     24 CZ         11.3937  -14.4399   15.6410 C.ar      4 PHE5        0.0000 
     25 NZ         12.1801  -14.2962   14.3717 N.2       3 LYS4        0.0000 
     26 N          12.9664  -14.1525   13.1024 N.2       2 ALA2        0.0000 
     27 CZ         10.1660  -13.9435   14.9366 C.ar      4 PHE5        0.0000 
     28 CA         10.9523  -13.7998   13.6673 C.3       5 GLY6        0.0000 
     29 O          11.7386  -13.6561   12.3980 O.2       2 ALA2        0.0000 
     30 CZ          8.1519  -13.5907   15.5014 C.ar      4 PHE5        0.0000 
     31 CA          8.9382  -13.4470   14.2321 C.3       5 GLY6        0.0000 
     32 CA          9.7245  -13.3034   12.9629 C.3       5 GLY6        0.0000 
     33 CA          7.7105  -12.9506   13.5277 C.3       5 GLY6        0.0000 
     34 NZ         15.7745  -13.7372   14.8890 N.2       3 LYS4        0.0000 
     35 NZ         16.5608  -13.5935   13.6198 N.2       3 LYS4        0.0000 
     36 N          17.3471  -13.4499   12.3505 N.2       2 ALA2        0.0000 
     37 NZ         12.1878  -13.6718   17.9925 N.2       3 LYS4        0.0000 
     38 NZ         14.5467  -13.2408   14.1846 N.2       3 LYS4        0.0000 
     39 O          15.3330  -13.0971   12.9154 O.2       2 ALA2        0.0000 
     40 CZ         10.9600  -13.1754   17.2881 C.ar      4 PHE5        0.0000 
     41 NZ         11.7463  -13.0317   16.0188 N.2       3 LYS4        0.0000 
     42 NZ         12.5326  -12.8880   14.7495 N.2       3 LYS4        0.0000 
     43 O          13.3190  -12.7444   13.4802 O.2       2 ALA2        0.0000 
     44 CZ          9.7322  -12.6790   16.5836 C.ar      4 PHE5        0.0000 
     45 CA         10.5186  -12.5353   15.3144 C.3       5 GLY6        0.0000 
     46 CA         11.3049  -12.3916   14.0451 C.3       5 GLY6        0.0000 
     47 CA          9.2908  -12.0389   14.6100 C.3       5 GLY6        0.0000 
     48 CA         10.0771  -11.8952   13.3407 C.3       5 GLY6        0.0000 
     49 O          16.1271  -12.3290   15.2669 O.2       2 ALA2        0.0000 
     50 CA         16.9134  -12.1854   13.9976 C.3       5 GLY6        0.0000 
     51 N          17.6997  -12.0417   12.7283 N.2       2 ALA2        0.0000 
     52 NZ         12.5403  -12.2636   18.3703 N.2       3 LYS4        0.0000 
     53 NZ         13.3267  -12.1199   17.1010 N.2       3 LYS4        0.0000 
     54 NZ         14.1130  -11.9763   15.8317 N.2       3 LYS4        0.0000 
     55 NZ         14.8993  -11.8326   14.5624 N.2       3 LYS4        0.0000 
     56 O          15.6856  -11.6889   13.2932 O.2       2 ALA2        0.0000 
     57 CA         16.4719  -11.5453   12.0239 C.3       5 GLY6        0.0000 
     58 CA         11.3126  -11.7672   17.6659 C.3       5 GLY6        0.0000 
     59 N          12.0989  -11.6235   16.3966 N.2       2 ALA2        0.0000 
     60 N          12.8852  -11.4799   15.1273 N.2       2 ALA2        0.0000 
     61 CA         13.6715  -11.3362   13.8580 C.3       5 GLY6        0.0000 
     62 CA         17.2660  -10.7772   14.3754 C.3       5 GLY6        0.0000 
     63 OG         15.2519  -10.4244   14.9403 O.2       1 SER1        0.0000 
     64 CA         16.0382  -10.2808   13.6710 C.3       5 GLY6        0.0000 
     65 CA         16.8245  -10.1371   12.4017 C.3       5 GLY6        0.0000 
     66 NZ         17.6108   -9.9934   11.1324 N.2       3 LYS4        0.0000 
     67 CA         14.8104   -9.7844   12.9666 C.3       5 GLY6        0.0000 
     68 N          15.5968   -9.6407   11.6973 N.2       2 ALA2        0.0000 
     69 CA         16.3908   -8.8726   14.0488 C.3       5 GLY6        0.0000 
     70 CA         17.1771   -8.7289   12.7795 C.3       5 GLY6        0.0000 
     71 CA         15.9494   -8.2325   12.0751 C.3       5 GLY6        0.0000 
@<TRIPOS>BOND
@<TRIPOS>SUBSTRUCTURE
     1 SER1       19 GROUP   
     2 ALA2        1 GROUP   
     3 LYS4        2 GROUP   
     4 PHE5        5 GROUP   
     5 GLY6        7 GROUP   
     6 CUB7       17 GROUP   
@<TRIPOS>SET

