#    Name: 2bxu_C1D_1_INTS_M
#    Modification time : Mon Mar 24 21:56:40 2014

@<TRIPOS>MOLECULE
2bxu_C1D_1_INTS_M
   75     0    12     0     0
SMALL
NO_CHARGES


@<TRIPOS>ATOM
      1 CA          7.8625  -16.0795    7.9940 C.3       4 GLC5        0.0000 
      2 CA          8.7030  -15.5060    9.8000 C.3      12 GLL5        0.0000 
      3 CA          7.0220  -16.6530    6.1880 C.3       8 GLP5        0.0000 
      4 CA          8.3850  -15.0770    7.4385 C.3       4 GLC5        0.0000 
      5 CA          8.5330  -14.2160    9.2490 C.3      12 GLL5        0.0000 
      6 CA          8.2370  -15.9380    5.6280 C.3       8 GLP5        0.0000 
      7 CA          9.7585  -12.6460   10.0085 C.3       4 GLC5        0.0000 
      8 CA         10.9840  -11.0760   10.7680 C.3       8 GLP5        0.0000 
      9 CA          7.1570  -13.6540    7.4170 C.3       4 GLC5        0.0000 
     10 CA          7.3440  -13.4990    9.5060 C.3      12 GLL5        0.0000 
     11 CA          6.9700  -13.8090    5.3280 C.3       8 GLP5        0.0000 
     12 O          12.5075  -15.3130   11.1360 O.2       1 ALC1        0.0000 
     13 O          11.1960  -15.5770   11.6040 O.2       9 ALL1        0.0000 
     14 O          13.8190  -15.0490   10.6680 O.2       5 ALP1        0.0000 
     15 CA         11.1000  -12.3760   12.0120 C.3       4 GLC5        0.0000 
     16 CA         11.2160  -13.6760   13.2560 C.3      12 GLL5        0.0000 
     17 CA          9.4760  -11.1465   13.7575 C.3       4 GLC5        0.0000 
     18 CA         11.2060  -11.7750   14.9370 C.3      12 GLL5        0.0000 
     19 CA          7.7460  -10.5180   12.5780 C.3       8 GLP5        0.0000 
     20 CA         11.7555  -11.1105   13.0785 C.3       4 GLC5        0.0000 
     21 CA         12.3050  -10.4460   11.2200 C.3       8 GLP5        0.0000 
     22 CA         16.0455  -12.2230   16.7595 C.3       4 GLC5        0.0000 
     23 CA         14.7690  -11.8430   15.2220 C.3      12 GLL5        0.0000 
     24 CA         17.3220  -12.6030   18.2970 C.3       8 GLP5        0.0000 
     25 CA         18.4695  -11.3515   13.6025 C.3       4 GLC5        0.0000 
     26 CA         17.3300  -11.1220   11.7540 C.3      12 GLL5        0.0000 
     27 CA         19.6090  -11.5810   15.4510 C.3       8 GLP5        0.0000 
     28 CA         15.5240  -12.8760   11.5340 C.3       4 GLC5        0.0000 
     29 CA         16.4060  -12.7420   13.3540 C.3      12 GLL5        0.0000 
     30 CA         14.6420  -13.0100    9.7140 C.3       8 GLP5        0.0000 
     31 N          12.9345  -12.7910   11.6320 N.am      2 SEC2        0.0000 
     32 N          12.2550  -13.2530   12.7870 N.am     10 SEL2        0.0000 
     33 N          13.6140  -12.3290   10.4770 N.am      6 SEP2        0.0000 
     34 OD1        19.2235  -10.2410   10.1915 O.co2     3 ASC3        0.0000 
     35 OD1        18.1420  -10.8360   10.6330 O.co2    11 ASL3        0.0000 
     36 OD1        20.3050   -9.6460    9.7500 O.co2     7 ASP3        0.0000 
     37 OD1        19.3065  -11.3340   10.2185 O.co2     3 ASC3        0.0000 
     38 OD1        20.4710  -11.8320    9.8040 O.co2     7 ASP3        0.0000 
     39 O          19.3065  -11.3340   10.2185 O.2       1 ALC1        0.0000 
     40 O          18.1420  -10.8360   10.6330 O.2       9 ALL1        0.0000 
     41 O          20.4710  -11.8320    9.8040 O.2       5 ALP1        0.0000 
     42 CA          9.0260  -11.1470   16.6150 C.3       4 GLC5        0.0000 
     43 CA          8.5210  -12.8130   16.1890 C.3      12 GLL5        0.0000 
     44 CA          9.5310   -9.4810   17.0410 C.3       8 GLP5        0.0000 
     45 CA          7.2080  -13.9220   16.5880 C.3       4 GLC5        0.0000 
     46 CA          5.8950  -15.0310   16.9870 C.3       8 GLP5        0.0000 
     47 CA          9.2245  -13.9115   17.4770 C.3       4 GLC5        0.0000 
     48 CA          9.9280  -15.0100   18.7650 C.3       8 GLP5        0.0000 
     49 CA          5.5845  -12.8925    8.8682 C.3       4 GLC5        0.0000 
     50 CA          6.3160  -14.0430   10.3050 C.3      12 GLL5        0.0000 
     51 CA          4.3390  -12.0140    7.8310 C.3       8 GLP5        0.0000 
     52 CA          6.5595  -12.1275   11.0207 C.3       4 GLC5        0.0000 
     53 CA          6.2890  -10.4840   12.1360 C.3       8 GLP5        0.0000 
     54 CA         10.9290  -14.2613    8.5267 C.3       4 GLC5        0.0000 
     55 CA          9.9860  -16.3030    9.5440 C.3      12 GLL5        0.0000 
     56 CA         11.4260  -12.5880    7.8600 C.3       8 GLP5        0.0000 
     57 CA          9.2978  -16.0745    7.3208 C.3       4 GLC5        0.0000 
     58 CA         10.8780  -15.5660    8.8430 C.3      12 GLL5        0.0000 
     59 CA         11.9164  -16.5337    8.2233 C.3       4 GLC5        0.0000 
     60 CA         13.3890  -16.8010    7.2700 C.3       8 GLP5        0.0000 
     61 CA          8.3418  -11.8505   14.0535 C.3       4 GLC5        0.0000 
     62 CA          9.3540  -13.5530   14.8690 C.3      12 GLL5        0.0000 
     63 CA         10.6863  -10.6913   16.2050 C.3       4 GLC5        0.0000 
     64 CA         17.6842  -11.3092   14.6007 C.3       4 GLC5        0.0000 
     65 CA         15.6930  -11.6910   14.0010 C.3      12 GLL5        0.0000 
     66 CA         16.1597   -8.3035   13.3908 C.3       4 GLC5        0.0000 
     67 CA         16.6330  -10.0880   12.3890 C.3      12 GLL5        0.0000 
     68 CA         16.0900   -6.3710   13.8370 C.3       8 GLP5        0.0000 
     69 CA         14.2673  -10.3410   12.0823 C.3       4 GLC5        0.0000 
     70 CA         15.8117  -11.8075   10.8927 C.3       4 GLC5        0.0000 
     71 CA         17.9932  -12.5228   14.5125 C.3       4 GLC5        0.0000 
     72 CA         18.1797  -14.1397   13.9660 C.3       4 GLC5        0.0000 
     73 CA         19.9820  -14.8150   14.3580 C.3       8 GLP5        0.0000 
     74 CA         18.1344   -9.2360   12.8011 C.3       4 GLC5        0.0000 
     75 CA         19.4890   -7.7930   13.2530 C.3       8 GLP5        0.0000 
@<TRIPOS>BOND
@<TRIPOS>SUBSTRUCTURE
     1 ALC1       12 GROUP        1 X    ALC  0     ROOT ALC X 1
     2 SEC2       31 GROUP        1 X    SEC  0     **** SEC X 2
     3 ASC3       34 GROUP        1 X    ASC  0     **** ASC X 3
     4 GLC5        1 GROUP        1 X    GLC  0     **** GLC X 6
     5 ALP1       14 GROUP        1 Y    ALP  0     ROOT ALP Y 8
     6 SEP2       33 GROUP        1 Y    SEP  0     **** SEP Y 9
     7 ASP3       36 GROUP        1 Y    ASP  0     **** ASP Y 10
     8 GLP5        3 GROUP        1 Y    GLP  0     **** GLP Y 13
     9 ALL1       13 GROUP        1 Z    ALL  0     ROOT ALL Z 15
    10 SEL2       32 GROUP        1 Z    SEL  0     **** SEL Z 16
    11 ASL3       35 GROUP        1 Z    ASL  0     **** ASL Z 17
    12 GLL5        2 GROUP        1 Z    GLL  0     **** GLL Z 20
@<TRIPOS>SET

