#    Name: 2bxu_C1D_1_ligand
#    Modification time : Mon Mar 24 21:56:40 2014

@<TRIPOS>MOLECULE
2bxu_C1D_1_ligand
   55    57     1     0     0
SMALL
NO_CHARGES


@<TRIPOS>ATOM
      1 C1          6.4780  -15.3240   10.8540 C.ar      1 C1D1246     0.0000 
      2 N2          7.6680  -16.0430   10.5970 N.ar      1 C1D1246     0.0000 
      3 C3          8.7030  -15.5060    9.8000 C.ar      1 C1D1246     0.0000 
      4 C4          8.5330  -14.2160    9.2490 C.ar      1 C1D1246     0.0000 
      5 C5          7.3440  -13.4990    9.5060 C.ar      1 C1D1246     0.0000 
      6 C6          6.3160  -14.0430   10.3050 C.ar      1 C1D1246     0.0000 
      7 C11         9.9860  -16.3030    9.5440 C.3       1 C1D1246     0.0000 
      8 C12        10.6690  -16.7460   10.8490 C.3       1 C1D1246     0.0000 
      9 F13         9.6920  -17.4090    8.8240 F         1 C1D1246     0.0000 
     10 F14        10.8780  -15.5660    8.8430 F         1 C1D1246     0.0000 
     11 N15        11.1960  -15.5770   11.6040 N.pl3     1 C1D1246     0.0000 
     12 C18        10.5960  -14.9140   12.6740 C.2       1 C1D1246     0.0000 
     13 C19        11.2160  -13.6760   13.2560 C.3       1 C1D1246     0.0000 
     14 N20        10.5820  -13.0140   14.3540 N.pl3     1 C1D1246     0.0000 
     15 C21         9.3540  -13.5530   14.8690 C.2       1 C1D1246     0.0000 
     16 C22         8.8080  -14.6710   14.3300 C.2       1 C1D1246     0.0000 
     17 N23         9.4720  -15.3660   13.1850 N.2       1 C1D1246     0.0000 
     18 C24        11.2060  -11.7750   14.9370 C.3       1 C1D1246     0.0000 
     19 C25        12.4770  -12.0280   15.8010 C.3       1 C1D1246     0.0000 
     20 N28        13.5890  -12.7190   15.0930 N.3       1 C1D1246     0.0000 
     21 C29        14.7690  -11.8430   15.2220 C.3       1 C1D1246     0.0000 
     22 C30        15.6930  -11.6910   14.0010 C.ar      1 C1D1246     0.0000 
     23 C33        15.8260  -10.3840   13.5000 C.ar      1 C1D1246     0.0000 
     24 C34        16.6330  -10.0880   12.3890 C.ar      1 C1D1246     0.0000 
     25 C2         16.3490  -14.1870   13.7940 C.3       1 C1D1246     0.0000 
     26 C35        17.3300  -11.1220   11.7540 C.ar      1 C1D1246     0.0000 
     27 C37        16.4060  -12.7420   13.3540 C.ar      1 C1D1246     0.0000 
     28 O42        12.2550  -13.2530   12.7870 O.3       1 C1D1246     0.0000 
     29 N6         18.1420  -10.8360   10.6330 N.4       1 C1D1246     0.0000 
     30 CL43        8.5210  -12.8130   16.1890 Cl        1 C1D1246     0.0000 
     31 N29        17.2100  -12.4330   12.2410 N.ar      1 C1D1246     0.0000 
     32 H           5.7488  -15.7360   11.4323 H         1 C1D1246     0.0000 
     33 H           9.2636  -13.8064    8.6703 H         1 C1D1246     0.0000 
     34 H           7.2248  -12.5582    9.1011 H         1 C1D1246     0.0000 
     35 H           5.4673  -13.5088   10.4791 H         1 C1D1246     0.0000 
     36 H          11.4817  -17.4329   10.5961 H         1 C1D1246     0.0000 
     37 H           9.9372  -17.2900   11.4529 H         1 C1D1246     0.0000 
     38 H          12.1466  -15.2308   11.2603 H         1 C1D1246     0.0000 
     39 H          10.4222  -12.8910   12.3368 H         1 C1D1246     0.0000 
     40 H           7.9374  -15.0897   14.6658 H         1 C1D1246     0.0000 
     41 H          10.4690  -11.2455   15.5685 H         1 C1D1246     0.0000 
     42 H          11.4834  -11.0774   14.1254 H         1 C1D1246     0.0000 
     43 H          12.1652  -12.6146   16.6877 H         1 C1D1246     0.0000 
     44 H          12.8193  -11.0465   16.1846 H         1 C1D1246     0.0000 
     45 H          15.4065  -12.1885   16.0827 H         1 C1D1246     0.0000 
     46 H          14.4435  -10.8093   15.5256 H         1 C1D1246     0.0000 
     47 H          15.3106   -9.6127   13.9670 H         1 C1D1246     0.0000 
     48 H          16.7085   -9.1292   12.0507 H         1 C1D1246     0.0000 
     49 H          16.9184  -14.7734   13.2179 H         1 C1D1246     0.0000 
     50 H          16.6681  -14.3016   14.7348 H         1 C1D1246     0.0000 
     51 H          15.4185  -14.5511   13.7537 H         1 C1D1246     0.0000 
     52 H          18.5185   -9.9105   10.6736 H         1 C1D1246     0.0000 
     53 H          18.9166  -11.4649   10.5654 H         1 C1D1246     0.0000 
     54 H          17.6310  -10.9072    9.7764 H         1 C1D1246     0.0000 
     55 H          12.1664  -12.2573   12.8179 H         1 C1D1246     0.0000 
@<TRIPOS>BOND
     1    2    1 ar   
     2    6    1 ar   
     3   32    1 1    
     4    3    2 ar   
     5    4    3 ar   
     6    7    3 1    
     7    5    4 ar   
     8   33    4 1    
     9    6    5 ar   
    10   34    5 1    
    11   35    6 1    
    12    8    7 1    
    13    9    7 1    
    14   10    7 1    
    15   11    8 1    
    16   36    8 1    
    17   37    8 1    
    18   12   11 1    
    19   38   11 1    
    20   13   12 1    
    21   17   12 2    
    22   14   13 1    
    23   28   13 1    
    24   39   13 1    
    25   15   14 1    
    26   18   14 1    
    27   16   15 2    
    28   30   15 1    
    29   17   16 1    
    30   40   16 1    
    31   19   18 1    
    32   41   18 1    
    33   42   18 1    
    34   20   19 1    
    35   43   19 1    
    36   44   19 1    
    37   21   20 1    
    38   22   21 1    
    39   45   21 1    
    40   46   21 1    
    41   23   22 ar   
    42   27   22 ar   
    43   24   23 ar   
    44   47   23 1    
    45   26   24 ar   
    46   48   24 1    
    47   27   25 1    
    48   49   25 1    
    49   50   25 1    
    50   51   25 1    
    51   29   26 1    
    52   31   26 ar   
    53   31   27 ar   
    54   55   28 1    
    55   52   29 1    
    56   53   29 1    
    57   54   29 1    
@<TRIPOS>SUBSTRUCTURE
     1 C1D1246     1 GROUP   
@<TRIPOS>SET

