#    Name: 1l2i_ETC_2_INTS_M
#    Modification time : Tue Mar 25 10:53:28 2014

@<TRIPOS>MOLECULE
1l2i_ETC_2_INTS_M
   81     0     9     0     0
SMALL
NO_CHARGES


@<TRIPOS>ATOM
      1 CA         -7.1060   -9.8305   21.9200 C.3       3 GLC5        0.0000 
      2 CA         -6.0590   -8.4060   23.2330 C.3       9 GLL5        0.0000 
      3 CA         -8.1530  -11.2550   20.6070 C.3       6 GLP5        0.0000 
      4 CA         -7.7645   -8.2815   23.2385 C.3       3 GLC5        0.0000 
      5 CA         -9.4700   -8.1570   23.2440 C.3       6 GLP5        0.0000 
      6 CA         -5.6310   -6.7170   24.4685 C.3       3 GLC5        0.0000 
      7 CA         -5.2030   -5.0280   25.7040 C.3       6 GLP5        0.0000 
      8 CA         -4.4715   -6.2600   24.2595 C.3       3 GLC5        0.0000 
      9 CA         -3.7400   -7.4920   22.8150 C.3       9 GLL5        0.0000 
     10 CA          0.0995   -8.3525   18.9550 C.3       3 GLC5        0.0000 
     11 CA         -1.8600   -9.3160   19.4510 C.3       9 GLL5        0.0000 
     12 CA          2.0590   -7.3890   18.4590 C.3       6 GLP5        0.0000 
     13 CA         -0.1830  -10.3620   18.5620 C.3       3 GLC5        0.0000 
     14 CA          1.4940  -11.4080   17.6730 C.3       6 GLP5        0.0000 
     15 CA         -1.7865  -10.4835   17.0295 C.3       3 GLC5        0.0000 
     16 CA         -2.6310   -9.5330   18.3030 C.3       9 GLL5        0.0000 
     17 CA         -0.9420  -11.4340   15.7560 C.3       6 GLP5        0.0000 
     18 CA         -3.9960  -10.9260   19.0475 C.3       3 GLC5        0.0000 
     19 CA         -3.8880   -8.9220   18.2000 C.3       9 GLL5        0.0000 
     20 CA         -4.1040  -12.9300   19.8950 C.3       6 GLP5        0.0000 
     21 CA         -5.1855   -7.6735   17.3085 C.3       3 GLC5        0.0000 
     22 CA         -6.4830   -6.4250   16.4170 C.3       6 GLP5        0.0000 
     23 N          -4.8220  -10.3695   16.4845 N.am      2 SEC2        0.0000 
     24 N          -4.6510   -9.1480   17.0820 N.am      8 SEL2        0.0000 
     25 N          -4.9930  -11.5910   15.8870 N.am      5 SEP2        0.0000 
     26 O          -3.9970   -8.1440   16.1875 O.2       1 ALC1        0.0000 
     27 O          -4.6510   -9.1480   17.0820 O.2       7 ALL1        0.0000 
     28 O          -3.3430   -7.1400   15.2930 O.2       4 ALP1        0.0000 
     29 CA         -6.1215   -7.5535   18.8125 C.3       3 GLC5        0.0000 
     30 CA         -4.4030   -8.1050   19.2000 C.3       9 GLL5        0.0000 
     31 CA         -7.8400   -7.0020   18.4250 C.3       6 GLP5        0.0000 
     32 CA         -0.0045   -6.0145   21.4865 C.3       3 GLC5        0.0000 
     33 CA          0.6070   -7.6070   22.7490 C.3       9 GLL5        0.0000 
     34 CA         -0.6160   -4.4220   20.2240 C.3       6 GLP5        0.0000 
     35 CA          1.9000   -6.8320   21.6855 C.3       3 GLC5        0.0000 
     36 CA          3.1930   -6.0570   20.6220 C.3       6 GLP5        0.0000 
     37 CA          0.9745   -8.0140   20.1440 C.3       3 GLC5        0.0000 
     38 CA         -0.1100   -8.6390   21.8290 C.3       9 GLL5        0.0000 
     39 CA          1.5425  -10.1390   23.6630 C.3       3 GLC5        0.0000 
     40 CA          0.1150  -10.0490   22.4180 C.3       9 GLL5        0.0000 
     41 CA          2.9700  -10.2290   24.9080 C.3       6 GLP5        0.0000 
     42 CA         -0.2320  -10.6840   23.9855 C.3       3 GLC5        0.0000 
     43 CA         -0.5790  -11.3190   25.5530 C.3       6 GLP5        0.0000 
     44 CA         -0.1585  -11.8455   23.2605 C.3       3 GLC5        0.0000 
     45 CA         -0.2200  -11.1490   21.4210 C.3       9 GLL5        0.0000 
     46 CA         -0.0970  -12.5420   25.1000 C.3       6 GLP5        0.0000 
     47 CA         -1.3670  -12.2940   20.3285 C.3       3 GLC5        0.0000 
     48 CA         -2.5140  -13.4390   19.2360 C.3       6 GLP5        0.0000 
     49 CA          0.6370  -11.2785   19.5470 C.3       3 GLC5        0.0000 
     50 CA         -0.3325  -13.0465   21.6850 C.3       3 GLC5        0.0000 
     51 CA         -0.4450  -14.9440   21.9490 C.3       6 GLP5        0.0000 
     52 N           1.2575   -6.9945   28.5405 N.am      2 SEC2        0.0000 
     53 N           0.5000   -6.5170   27.5110 N.am      8 SEL2        0.0000 
     54 N           2.0150   -7.4720   29.5700 N.am      5 SEP2        0.0000 
     55 N           1.5055   -5.5465   27.7890 N.am      2 SEC2        0.0000 
     56 N           2.5110   -4.5760   28.0670 N.am      5 SEP2        0.0000 
     57 O          -0.4315   -5.9650   28.2435 O.2       1 ALC1        0.0000 
     58 O           0.5000   -6.5170   27.5110 O.2       7 ALL1        0.0000 
     59 O          -1.3630   -5.4130   28.9760 O.2       4 ALP1        0.0000 
     60 O           0.4330   -5.4815   28.7185 O.2       1 ALC1        0.0000 
     61 O           0.3660   -4.4460   29.9260 O.2       4 ALP1        0.0000 
     62 CA         -1.9640   -5.2155   24.7735 C.3       3 GLC5        0.0000 
     63 CA         -2.2420   -7.3880   25.2880 C.3       9 GLL5        0.0000 
     64 CA         -1.6860   -3.0430   24.2590 C.3       6 GLP5        0.0000 
     65 CA         -5.5888   -9.8317   24.3417 C.3       3 GLC5        0.0000 
     66 CA         -4.5620   -8.7350   23.1980 C.3       9 GLL5        0.0000 
     67 CA         -5.8670  -11.0930   25.4680 C.3       6 GLP5        0.0000 
     68 CA         -1.3035   -6.4062   20.6745 C.3       3 GLC5        0.0000 
     69 CA         -1.6200   -8.2930   21.7580 C.3       9 GLL5        0.0000 
     70 CA         -2.3797  -11.4318   19.0565 C.3       3 GLC5        0.0000 
     71 CA         -2.1322   -8.4298   16.7218 C.3       3 GLC5        0.0000 
     72 CA         -1.0050   -7.6320   15.1920 C.3       6 GLP5        0.0000 
     73 CA          0.5078   -5.4592   23.8495 C.3       3 GLC5        0.0000 
     74 CA          0.7800   -3.3990   24.2980 C.3       6 GLP5        0.0000 
     75 CA          1.6371  -10.7312   21.4031 C.3       3 GLC5        0.0000 
     76 CA          3.3830  -11.2160   21.0340 C.3       6 GLP5        0.0000 
     77 CA          0.4868   -5.2000   25.0475 C.3       3 GLC5        0.0000 
     78 CA          0.5540   -7.0940   25.2130 C.3       9 GLL5        0.0000 
     79 CA          1.6824   -8.7679   24.6075 C.3       3 GLC5        0.0000 
     80 CA         -3.5498   -6.1247   25.7848 C.3       3 GLC5        0.0000 
     81 CA         -1.5510   -7.0550   26.4430 C.3       9 GLL5        0.0000 
@<TRIPOS>BOND
@<TRIPOS>SUBSTRUCTURE
     1 ALC1       26 GROUP        1 X    ALC  0     ROOT ALC X 1
     2 SEC2       23 GROUP        1 X    SEC  0     **** SEC X 2
     3 GLC5        1 GROUP        1 X    GLC  0     **** GLC X 6
     4 ALP1       28 GROUP        1 Y    ALP  0     ROOT ALP Y 8
     5 SEP2       25 GROUP        1 Y    SEP  0     **** SEP Y 9
     6 GLP5        3 GROUP        1 Y    GLP  0     **** GLP Y 13
     7 ALL1       27 GROUP        1 Z    ALL  0     ROOT ALL Z 15
     8 SEL2       24 GROUP        1 Z    SEL  0     **** SEL Z 16
     9 GLL5        2 GROUP        1 Z    GLL  0     **** GLL Z 20
@<TRIPOS>SET

