#    Name: 1l2i_ETC_2_ligand
#    Modification time : Tue Mar 25 10:53:28 2014

@<TRIPOS>MOLECULE
1l2i_ETC_2_ligand
   48    51     1     0     0
SMALL
NO_CHARGES


@<TRIPOS>ATOM
      1 C22        -6.0590   -8.4060   23.2330 C.3       1 ETC800      0.0000 
      2 C21        -4.5620   -8.7350   23.1980 C.3       1 ETC800      0.0000 
      3 C11        -3.7400   -7.4920   22.8150 C.3       1 ETC800      0.0000 
      4 C12        -4.1590   -6.9780   21.4320 C.3       1 ETC800      0.0000 
      5 C9         -2.2470   -7.8130   22.8520 C.2       1 ETC800      0.0000 
      6 C8         -1.6200   -8.2930   21.7580 C.2       1 ETC800      0.0000 
      7 C14        -2.3620   -8.4880   20.4920 C.ar      1 ETC800      0.0000 
      8 C15        -1.8600   -9.3160   19.4510 C.ar      1 ETC800      0.0000 
      9 C16        -2.6310   -9.5330   18.3030 C.ar      1 ETC800      0.0000 
     10 C17        -3.8880   -8.9220   18.2000 C.ar      1 ETC800      0.0000 
     11 O25        -4.6510   -9.1480   17.0820 O.3       1 ETC800      0.0000 
     12 C18        -4.4030   -8.1050   19.2000 C.ar      1 ETC800      0.0000 
     13 C13        -3.6400   -7.8850   20.3430 C.ar      1 ETC800      0.0000 
     14 C10        -1.5410   -7.5660   24.0750 C.ar      1 ETC800      0.0000 
     15 C5         -0.1360   -7.4320   24.0530 C.ar      1 ETC800      0.0000 
     16 C6          0.6070   -7.6070   22.7490 C.3       1 ETC800      0.0000 
     17 C7         -0.1100   -8.6390   21.8290 C.3       1 ETC800      0.0000 
     18 C20         0.1150  -10.0490   22.4180 C.3       1 ETC800      0.0000 
     19 C19        -0.2200  -11.1490   21.4210 C.3       1 ETC800      0.0000 
     20 C4          0.5540   -7.0940   25.2130 C.ar      1 ETC800      0.0000 
     21 C3         -0.1670   -6.9080   26.3810 C.ar      1 ETC800      0.0000 
     22 O23         0.5000   -6.5170   27.5110 O.3       1 ETC800      0.0000 
     23 C2         -1.5510   -7.0550   26.4430 C.ar      1 ETC800      0.0000 
     24 C1         -2.2420   -7.3880   25.2880 C.ar      1 ETC800      0.0000 
     25 H          -4.3832   -9.5186   22.4668 H         1 ETC800      0.0000 
     26 H          -4.2470   -9.0812   24.1786 H         1 ETC800      0.0000 
     27 H          -3.9443   -6.7162   23.5451 H         1 ETC800      0.0000 
     28 H          -3.7617   -5.9721   21.2954 H         1 ETC800      0.0000 
     29 H          -5.2473   -6.9336   21.3881 H         1 ETC800      0.0000 
     30 H          -0.9404   -9.7458   19.5496 H         1 ETC800      0.0000 
     31 H          -2.2836  -10.1271   17.5519 H         1 ETC800      0.0000 
     32 H          -5.3215   -7.6751   19.0987 H         1 ETC800      0.0000 
     33 H           1.6178   -7.9641   22.9391 H         1 ETC800      0.0000 
     34 H           0.6615   -6.6576   22.2189 H         1 ETC800      0.0000 
     35 H           0.3166   -8.5839   20.8601 H         1 ETC800      0.0000 
     36 H          -0.5105  -10.1596   23.3081 H         1 ETC800      0.0000 
     37 H           1.1617  -10.1376   22.7220 H         1 ETC800      0.0000 
     38 H           1.5670   -6.9864   25.2006 H         1 ETC800      0.0000 
     39 H          -2.0454   -6.9191   27.3258 H         1 ETC800      0.0000 
     40 H          -3.2596   -7.5073   25.3026 H         1 ETC800      0.0000 
     41 H          -6.2659   -7.6876   23.8971 H         1 ETC800      0.0000 
     42 H          -6.3903   -8.0882   22.3446 H         1 ETC800      0.0000 
     43 H          -6.6087   -9.2032   23.4827 H         1 ETC800      0.0000 
     44 H           0.3416  -11.0861   20.5960 H         1 ETC800      0.0000 
     45 H          -0.0714  -12.0590   21.8081 H         1 ETC800      0.0000 
     46 H          -1.1755  -11.1072   21.1290 H         1 ETC800      0.0000 
     47 H          -4.2776   -8.5350   16.3857 H         1 ETC800      0.0000 
     48 H           0.0008   -5.7163   27.8420 H         1 ETC800      0.0000 
@<TRIPOS>BOND
     1    2    1 1    
     2   41    1 1    
     3   42    1 1    
     4   43    1 1    
     5    3    2 1    
     6   25    2 1    
     7   26    2 1    
     8    4    3 1    
     9    5    3 1    
    10   27    3 1    
    11   13    4 1    
    12   28    4 1    
    13   29    4 1    
    14    6    5 2    
    15   14    5 1    
    16    7    6 1    
    17   17    6 1    
    18    8    7 ar   
    19   13    7 ar   
    20    9    8 ar   
    21   30    8 1    
    22   10    9 ar   
    23   31    9 1    
    24   11   10 1    
    25   12   10 ar   
    26   47   11 1    
    27   13   12 ar   
    28   32   12 1    
    29   15   14 ar   
    30   24   14 ar   
    31   16   15 1    
    32   20   15 ar   
    33   17   16 1    
    34   33   16 1    
    35   34   16 1    
    36   18   17 1    
    37   35   17 1    
    38   19   18 1    
    39   36   18 1    
    40   37   18 1    
    41   44   19 1    
    42   45   19 1    
    43   46   19 1    
    44   21   20 ar   
    45   38   20 1    
    46   22   21 1    
    47   23   21 ar   
    48   48   22 1    
    49   24   23 ar   
    50   39   23 1    
    51   40   24 1    
@<TRIPOS>SUBSTRUCTURE
     1 ETC800      1 GROUP   
@<TRIPOS>SET

