#    Name: 3uvq_FS8_1_INTS_M
#    Modification time : Mon Mar 24 23:37:09 2014

@<TRIPOS>MOLECULE
3uvq_FS8_1_INTS_M
   95     0     9     0     0
SMALL
NO_CHARGES


@<TRIPOS>ATOM
      1 N           0.9245   -2.2205  -15.5240 N.am      2 SEC2        0.0000 
      2 N          -0.5410   -1.8270  -15.4310 N.am      8 SEL2        0.0000 
      3 N           2.3900   -2.6140  -15.6170 N.am      5 SEP2        0.0000 
      4 N          -2.3485    5.6445  -22.7480 N.am      2 SEC2        0.0000 
      5 N          -2.2270    4.3980  -23.0010 N.am      8 SEL2        0.0000 
      6 N          -2.4700    6.8910  -22.4950 N.am      5 SEP2        0.0000 
      7 N          -1.8555    5.5430  -24.0705 N.am      2 SEC2        0.0000 
      8 N          -1.4840    6.6880  -25.1400 N.am      5 SEP2        0.0000 
      9 CA         -6.1070   -2.4505  -14.1290 C.3       3 GLC5        0.0000 
     10 CA         -4.9910   -1.4070  -14.9830 C.3       9 GLL5        0.0000 
     11 CA         -7.2230   -3.4940  -13.2750 C.3       6 GLP5        0.0000 
     12 CA         -1.5585   -5.7025  -10.8315 C.3       3 GLC5        0.0000 
     13 CA          0.0610   -5.3060  -11.9570 C.3       9 GLL5        0.0000 
     14 CA         -3.1780   -6.0990   -9.7060 C.3       6 GLP5        0.0000 
     15 CA          0.6405   -5.5105  -10.1140 C.3       3 GLC5        0.0000 
     16 CA          1.2200   -5.7150   -8.2710 C.3       6 GLP5        0.0000 
     17 CA          0.0865   -3.6775   -9.8470 C.3       3 GLC5        0.0000 
     18 CA          0.2400   -3.9110  -11.8150 C.3       9 GLL5        0.0000 
     19 CA         -0.0670   -3.4440   -7.8790 C.3       6 GLP5        0.0000 
     20 CA         -5.3560    1.3660  -19.4280 C.3       3 GLC5        0.0000 
     21 CA         -4.4160   -0.3360  -18.3180 C.3       9 GLL5        0.0000 
     22 CA         -6.2960    3.0680  -20.5380 C.3       6 GLP5        0.0000 
     23 CA         -1.0475    1.2775  -19.3180 C.3       3 GLC5        0.0000 
     24 CA         -2.8780    1.4230  -20.2900 C.3       9 GLL5        0.0000 
     25 CA          0.7830    1.1320  -18.3460 C.3       6 GLP5        0.0000 
     26 CA          0.1245   -0.9250  -13.3560 C.3       3 GLC5        0.0000 
     27 CA         -0.2180   -3.0280  -12.7860 C.3       9 GLL5        0.0000 
     28 CA          0.4670    1.1780  -13.9260 C.3       6 GLP5        0.0000 
     29 CA         -7.4050    5.0410  -27.5975 C.3       3 GLC5        0.0000 
     30 CA         -5.6090    5.6990  -28.7450 C.3       9 GLL5        0.0000 
     31 CA         -9.2010    4.3830  -26.4500 C.3       6 GLP5        0.0000 
     32 CA         -5.9255    6.4780  -26.9635 C.3       3 GLC5        0.0000 
     33 CA         -6.2420    7.2570  -25.1820 C.3       6 GLP5        0.0000 
     34 CA          1.9000    1.1005  -25.0700 C.3       3 GLC5        0.0000 
     35 CA         -0.0430    1.3510  -24.6910 C.3       9 GLL5        0.0000 
     36 CA          3.8430    0.8500  -25.4490 C.3       6 GLP5        0.0000 
     37 CA         -4.8500    2.2510  -28.1375 C.3       3 GLC5        0.0000 
     38 CA         -3.7700    3.9800  -29.0090 C.3       9 GLL5        0.0000 
     39 CA         -5.9300    0.5220  -27.2660 C.3       6 GLP5        0.0000 
     40 CA         -2.6625    5.4205  -27.7985 C.3       3 GLC5        0.0000 
     41 CA         -1.5550    6.8610  -26.5880 C.3       6 GLP5        0.0000 
     42 O          -3.4870   -3.7570  -14.7985 O.2       1 ALC1        0.0000 
     43 O          -2.6580   -2.6820  -15.2860 O.2       7 ALL1        0.0000 
     44 O          -4.3160   -4.8320  -14.3110 O.2       4 ALP1        0.0000 
     45 CA         -2.5285   -2.6425  -12.9155 C.3       3 GLC5        0.0000 
     46 CA         -0.8950   -3.5040  -13.9190 C.3       9 GLL5        0.0000 
     47 CA         -4.1620   -1.7810  -11.9120 C.3       6 GLP5        0.0000 
     48 CA         -5.3645   -2.9047  -16.5595 C.3       3 GLC5        0.0000 
     49 CA         -4.4270   -1.3000  -16.0610 C.3       9 GLL5        0.0000 
     50 CA         -6.0200   -4.4560  -17.5970 C.3       6 GLP5        0.0000 
     51 CA          1.0747   -4.8175  -13.9270 C.3       3 GLC5        0.0000 
     52 CA         -0.5840   -5.8000  -13.0830 C.3       9 GLL5        0.0000 
     53 CA          2.4110   -4.0820  -15.3340 C.3       6 GLP5        0.0000 
     54 CA         -1.5560   -2.2663  -11.6822 C.3       3 GLC5        0.0000 
     55 CA         -3.1230   -1.0630  -11.0640 C.3       6 GLP5        0.0000 
     56 CA          1.2110   -3.7757  -13.8172 C.3       3 GLC5        0.0000 
     57 CA         -4.7933   -1.6685  -20.0607 C.3       3 GLC5        0.0000 
     58 CA         -3.1770   -0.9460  -18.5390 C.3       9 GLL5        0.0000 
     59 CA         -5.7900   -2.6960  -21.6930 C.3       6 GLP5        0.0000 
     60 CA         -6.2660   -1.6410  -17.9345 C.3       3 GLC5        0.0000 
     61 CA         -7.8070   -2.8540  -18.1750 C.3       6 GLP5        0.0000 
     62 CA         -3.3045    0.4270  -16.7170 C.3       3 GLC5        0.0000 
     63 CA         -5.0340   -0.5200  -17.0700 C.3       9 GLL5        0.0000 
     64 CA         -1.8840    1.2820  -15.7400 C.3       6 GLP5        0.0000 
     65 CA         -4.5397    2.4897  -20.6603 C.3       3 GLC5        0.0000 
     66 CA          0.7238   -4.1408  -14.6638 C.3       3 GLC5        0.0000 
     67 CA         -4.9357    0.8786  -15.6580 C.3       3 GLC5        0.0000 
     68 CA         -5.0000    2.6940  -15.0200 C.3       6 GLP5        0.0000 
     69 CA         -3.5905    1.5045  -26.8017 C.3       3 GLC5        0.0000 
     70 CA         -2.7580    3.6210  -26.8930 C.3       9 GLL5        0.0000 
     71 CA         -4.8770   -0.1770  -26.4060 C.3       6 GLP5        0.0000 
     72 CA         -1.9295    5.0235  -26.8927 C.3       3 GLC5        0.0000 
     73 CA         -1.8500    2.7510  -27.5020 C.3       9 GLL5        0.0000 
     74 CA         -0.3113   -0.1940  -20.6867 C.3       3 GLC5        0.0000 
     75 CA         -1.7380   -0.1400  -21.7580 C.3       9 GLL5        0.0000 
     76 CA          1.4440   -0.3900  -20.2240 C.3       6 GLP5        0.0000 
     77 CA         -4.4527   -3.1400  -17.2503 C.3       3 GLC5        0.0000 
     78 CA         -2.5810   -1.7380  -17.5310 C.3       9 GLL5        0.0000 
     79 CA         -2.3815   -0.0300  -16.8875 C.3       3 GLC5        0.0000 
     80 CA         -1.0480   -0.1050  -18.1905 C.3       3 GLC5        0.0000 
     81 CA         -4.3595    4.3505  -25.1557 C.3       3 GLC5        0.0000 
     82 CA         -2.7780    3.7670  -25.5060 C.3       9 GLL5        0.0000 
     83 CA         -5.9510    5.0070  -24.1120 C.3       6 GLP5        0.0000 
     84 CA         -1.9358    5.1338  -25.8567 C.3       3 GLC5        0.0000 
     85 CA          0.1220    0.0897  -21.7690 C.3       3 GLC5        0.0000 
     86 CA         -0.8610    0.2970  -23.8840 C.3       9 GLL5        0.0000 
     87 CA         -0.3137    3.8095  -27.1266 C.3       3 GLC5        0.0000 
     88 CA          1.4510    4.6200  -27.2480 C.3       6 GLP5        0.0000 
     89 CA         -2.4527   -4.8734  -12.8641 C.3       3 GLC5        0.0000 
     90 CA         -4.0540   -5.3210  -11.9810 C.3       6 GLP5        0.0000 
     91 CA         -4.0557   -1.7064  -13.9055 C.3       3 GLC5        0.0000 
     92 CA         -3.1900   -1.9100  -16.2760 C.3       9 GLL5        0.0000 
     93 CA         -2.9167   -0.1749  -15.8195 C.3       3 GLC5        0.0000 
     94 CA          0.1366    3.5110  -26.0655 C.3       3 GLC5        0.0000 
     95 CA         -1.8550    3.0460  -24.7450 C.3       9 GLL5        0.0000 
@<TRIPOS>BOND
@<TRIPOS>SUBSTRUCTURE
     1 ALC1       42 GROUP        1 X    ALC  0     ROOT ALC X 1
     2 SEC2        1 GROUP        1 X    SEC  0     **** SEC X 2
     3 GLC5        9 GROUP        1 X    GLC  0     **** GLC X 6
     4 ALP1       44 GROUP        1 Y    ALP  0     ROOT ALP Y 8
     5 SEP2        3 GROUP        1 Y    SEP  0     **** SEP Y 9
     6 GLP5       11 GROUP        1 Y    GLP  0     **** GLP Y 13
     7 ALL1       43 GROUP        1 Z    ALL  0     ROOT ALL Z 15
     8 SEL2        2 GROUP        1 Z    SEL  0     **** SEL Z 16
     9 GLL5       10 GROUP        1 Z    GLL  0     **** GLL Z 20
@<TRIPOS>SET

