#    Name: 3uvq_FS8_1_ligand
#    Modification time : Mon Mar 24 23:37:09 2014

@<TRIPOS>MOLECULE
3uvq_FS8_1_ligand
   66    70     1     0     0
SMALL
NO_CHARGES


@<TRIPOS>ATOM
      1 OAA        -0.5410   -1.8270  -15.4310 O.2       1 FS8361      0.0000 
      2 OAB        -2.2270    4.3980  -23.0010 O.2       1 FS8361      0.0000 
      3 OAC        -5.7270    6.8740  -29.5600 O.3       1 FS8361      0.0000 
      4 OAD        -4.9810    4.7820  -30.9480 O.3       1 FS8361      0.0000 
      5 FAE        -4.9910   -1.4070  -14.9830 F         1 FS8361      0.0000 
      6 CAF         0.0610   -5.3060  -11.9570 C.ar      1 FS8361      0.0000 
      7 CAG        -0.5840   -5.8000  -13.0830 C.ar      1 FS8361      0.0000 
      8 CAH         0.2400   -3.9110  -11.8150 C.ar      1 FS8361      0.0000 
      9 CAI        -4.4160   -0.3360  -18.3180 C.ar      1 FS8361      0.0000 
     10 CAJ        -2.8780    1.4230  -20.2900 C.ar      1 FS8361      0.0000 
     11 CAK        -1.0320   -4.8950  -14.0680 C.ar      1 FS8361      0.0000 
     12 CAL        -0.2180   -3.0280  -12.7860 C.ar      1 FS8361      0.0000 
     13 CAM        -5.0340   -0.5200  -17.0700 C.ar      1 FS8361      0.0000 
     14 CAN        -1.8500    2.7510  -27.5020 C.ar      1 FS8361      0.0000 
     15 CAO        -0.9480    2.0030  -26.7330 C.ar      1 FS8361      0.0000 
     16 CAP        -2.6890    2.4000  -21.2750 C.ar      1 FS8361      0.0000 
     17 CAQ        -1.7380   -0.1400  -21.7580 C.ar      1 FS8361      0.0000 
     18 CAR        -2.5810   -1.7380  -17.5310 C.ar      1 FS8361      0.0000 
     19 CAS        -2.7780    3.7670  -25.5060 C.ar      1 FS8361      0.0000 
     20 CAT        -5.6090    5.6990  -28.7450 C.3       1 FS8361      0.0000 
     21 CAU        -0.0430    1.3510  -24.6910 C.3       1 FS8361      0.0000 
     22 CAV        -0.8610    0.2970  -23.8840 C.3       1 FS8361      0.0000 
     23 CAW        -3.7700    3.9800  -29.0090 C.3       1 FS8361      0.0000 
     24 NAX        -2.6580   -2.6820  -15.2860 N.am      1 FS8361      0.0000 
     25 NAY        -2.4950   -0.8820  -19.6980 N.pl3     1 FS8361      0.0000 
     26 OAZ        -3.6470    4.3630  -27.6270 O.3       1 FS8361      0.0000 
     27 CBA        -1.3470   -2.6130  -14.9310 C.2       1 FS8361      0.0000 
     28 CBB        -2.0040    3.2510  -23.3830 C.2       1 FS8361      0.0000 
     29 CBC        -2.3950    0.1440  -20.5410 C.ar      1 FS8361      0.0000 
     30 CBD        -3.1770   -0.9460  -18.5390 C.ar      1 FS8361      0.0000 
     31 CBE        -4.4270   -1.3000  -16.0610 C.ar      1 FS8361      0.0000 
     32 CBF        -2.7580    3.6210  -26.8930 C.ar      1 FS8361      0.0000 
     33 CBG        -0.8950   -3.5040  -13.9190 C.ar      1 FS8361      0.0000 
     34 CBH        -0.9580    2.1650  -25.3510 C.ar      1 FS8361      0.0000 
     35 CBI        -1.5390    0.8420  -22.7440 C.ar      1 FS8361      0.0000 
     36 CBJ        -3.1900   -1.9100  -16.2760 C.ar      1 FS8361      0.0000 
     37 CBK        -2.0270    2.1410  -22.4950 C.ar      1 FS8361      0.0000 
     38 CBL        -1.8550    3.0460  -24.7450 C.ar      1 FS8361      0.0000 
     39 CBM        -5.1140    4.4740  -29.5510 C.3       1 FS8361      0.0000 
     40 H           0.4071   -5.9354  -11.2316 H         1 FS8361      0.0000 
     41 H          -0.7364   -6.7997  -13.2054 H         1 FS8361      0.0000 
     42 H           0.7190   -3.5530  -10.9744 H         1 FS8361      0.0000 
     43 H          -4.8579    0.2236  -19.0363 H         1 FS8361      0.0000 
     44 H          -3.3521    1.6458  -19.4239 H         1 FS8361      0.0000 
     45 H          -1.4754   -5.2692  -14.9271 H         1 FS8361      0.0000 
     46 H          -0.0621   -2.0158  -12.6782 H         1 FS8361      0.0000 
     47 H          -5.9470   -0.0792  -16.8840 H         1 FS8361      0.0000 
     48 H          -1.8419    2.6569  -28.5283 H         1 FS8361      0.0000 
     49 H          -0.3025    1.3575  -27.1795 H         1 FS8361      0.0000 
     50 H          -3.0517    3.3638  -21.1046 H         1 FS8361      0.0000 
     51 H          -1.3929   -1.1026  -21.9271 H         1 FS8361      0.0000 
     52 H          -1.6776   -2.1992  -17.7246 H         1 FS8361      0.0000 
     53 H          -3.4495    4.3846  -25.0578 H         1 FS8361      0.0000 
     54 H          -6.5757    5.4202  -28.2907 H         1 FS8361      0.0000 
     55 H          -4.8984    5.8501  -27.9138 H         1 FS8361      0.0000 
     56 H           0.6046    0.7931  -25.3643 H         1 FS8361      0.0000 
     57 H           0.5715    1.8863  -23.9701 H         1 FS8361      0.0000 
     58 H          -0.1498   -0.5032  -23.5929 H         1 FS8361      0.0000 
     59 H          -1.5709   -0.1695  -24.5976 H         1 FS8361      0.0000 
     60 H          -3.7372    2.8951  -29.1303 H         1 FS8361      0.0000 
     61 H          -2.9791    4.4199  -29.6204 H         1 FS8361      0.0000 
     62 H          -3.2883   -3.3578  -14.7771 H         1 FS8361      0.0000 
     63 H          -1.9517   -1.7988  -19.9805 H         1 FS8361      0.0000 
     64 H          -5.8384    3.6727  -29.4034 H         1 FS8361      0.0000 
     65 H          -4.8207    7.2960  -29.5382 H         1 FS8361      0.0000 
     66 H          -5.2143    5.7515  -31.0225 H         1 FS8361      0.0000 
@<TRIPOS>BOND
     1   27    1 2    
     2   28    2 2    
     3   20    3 1    
     4   65    3 1    
     5   39    4 1    
     6   66    4 1    
     7   31    5 1    
     8    7    6 ar   
     9    8    6 ar   
    10   40    6 1    
    11   11    7 ar   
    12   41    7 1    
    13   12    8 ar   
    14   42    8 1    
    15   13    9 ar   
    16   30    9 ar   
    17   43    9 1    
    18   16   10 ar   
    19   29   10 ar   
    20   44   10 1    
    21   33   11 ar   
    22   45   11 1    
    23   33   12 ar   
    24   46   12 1    
    25   31   13 ar   
    26   47   13 1    
    27   15   14 ar   
    28   32   14 ar   
    29   48   14 1    
    30   34   15 ar   
    31   49   15 1    
    32   37   16 ar   
    33   50   16 1    
    34   29   17 ar   
    35   35   17 ar   
    36   51   17 1    
    37   30   18 ar   
    38   36   18 ar   
    39   52   18 1    
    40   32   19 ar   
    41   38   19 ar   
    42   53   19 1    
    43   39   20 1    
    44   54   20 1    
    45   55   20 1    
    46   22   21 1    
    47   34   21 1    
    48   56   21 1    
    49   57   21 1    
    50   35   22 1    
    51   58   22 1    
    52   59   22 1    
    53   26   23 1    
    54   39   23 1    
    55   60   23 1    
    56   61   23 1    
    57   27   24 am   
    58   36   24 1    
    59   62   24 1    
    60   29   25 1    
    61   30   25 1    
    62   63   25 1    
    63   32   26 1    
    64   33   27 1    
    65   37   28 1    
    66   38   28 1    
    67   36   31 ar   
    68   38   34 ar   
    69   37   35 ar   
    70   64   39 1    
@<TRIPOS>SUBSTRUCTURE
     1 FS8361      1 GROUP   
@<TRIPOS>SET

