#    Name: 4e9u_RWY_1_INTS_M
#    Modification time : Tue Mar 25 10:46:50 2014

@<TRIPOS>MOLECULE
4e9u_RWY_1_INTS_M
   50     0     6     0     0
SMALL
NO_CHARGES


@<TRIPOS>ATOM
      1 N          22.1720   -9.5610    7.2670 N.am      1 SEC2        0.0000 
      2 N          22.4090  -10.1520    8.8920 N.am      5 SEL2        0.0000 
      3 N          21.9350   -8.9700    5.6420 N.am      3 SEP2        0.0000 
      4 CA         20.6315  -10.9080    8.0420 C.3       2 GLC5        0.0000 
      5 CA         22.6250  -10.6120    7.8740 C.3       6 GLL5        0.0000 
      6 CA         18.6380  -11.2040    8.2100 C.3       4 GLP5        0.0000 
      7 CA         23.9220  -21.8985    5.0390 C.3       2 GLC5        0.0000 
      8 CA         23.9840  -20.4130    6.0960 C.3       6 GLL5        0.0000 
      9 CA         23.8600  -23.3840    3.9820 C.3       4 GLP5        0.0000 
     10 CA         22.2105  -20.4620    5.0640 C.3       2 GLC5        0.0000 
     11 CA         20.4370  -20.5110    4.0320 C.3       4 GLP5        0.0000 
     12 CA         21.6600  -19.4910    5.9195 C.3       2 GLC5        0.0000 
     13 CA         23.6230  -19.2080    6.6850 C.3       6 GLL5        0.0000 
     14 CA         19.6970  -19.7740    5.1540 C.3       4 GLP5        0.0000 
     15 CA         25.2980  -14.7940    4.5190 C.3       2 GLC5        0.0000 
     16 CA         24.6860  -15.8860    6.3550 C.3       6 GLL5        0.0000 
     17 CA         25.9100  -13.7020    2.6830 C.3       4 GLP5        0.0000 
     18 CA         25.5330  -13.3345    4.4270 C.3       2 GLC5        0.0000 
     19 CA         25.1560  -12.9670    6.1710 C.3       6 GLL5        0.0000 
     20 CA         24.2462  -22.7165    6.1517 C.3       2 GLC5        0.0000 
     21 CA         23.7840  -21.6090    6.7750 C.3       6 GLL5        0.0000 
     22 CA         24.9910  -23.8270    4.8940 C.3       4 GLP5        0.0000 
     23 CA         21.5177  -21.1460    6.8848 C.3       2 GLC5        0.0000 
     24 CA         19.5340  -20.6860    6.3600 C.3       4 GLP5        0.0000 
     25 CA         23.3980  -22.1275    9.8345 C.3       2 GLC5        0.0000 
     26 CA         23.2190  -21.6030    8.0440 C.3       6 GLL5        0.0000 
     27 CA         23.7580  -23.2540   11.3310 C.3       4 GLP5        0.0000 
     28 CA         23.6043  -18.5497    4.8803 C.3       2 GLC5        0.0000 
     29 CA         23.4050  -17.2890    3.3700 C.3       4 GLP5        0.0000 
     30 CA         24.6755  -19.5290    9.3382 C.3       2 GLC5        0.0000 
     31 CA         23.0590  -19.2030    7.9530 C.3       6 GLL5        0.0000 
     32 CA         26.3930  -19.2570   10.3840 C.3       4 GLP5        0.0000 
     33 CA         21.2460  -20.2435    7.3262 C.3       2 GLC5        0.0000 
     34 CA         22.8570  -20.3990    8.6320 C.3       6 GLL5        0.0000 
     35 CA         25.4007  -20.1613    6.1206 C.3       2 GLC5        0.0000 
     36 CA         27.0480  -20.2130    5.6810 C.3       4 GLP5        0.0000 
     37 CA         26.3513  -15.9660    8.4932 C.3       2 GLC5        0.0000 
     38 CA         23.9730  -16.0870    9.0310 C.3       6 GLL5        0.0000 
     39 CA         28.3180  -16.3630    8.1670 C.3       4 GLP5        0.0000 
     40 CA         26.6185  -15.8910    7.4897 C.3       2 GLC5        0.0000 
     41 CA         25.1520  -14.9520    7.2700 C.3       6 GLL5        0.0000 
     42 CA         23.8400  -16.8465    4.9683 C.3       2 GLC5        0.0000 
     43 CA         25.0667  -17.9057    9.4787 C.3       2 GLC5        0.0000 
     44 CA         23.5080  -17.0220    8.1160 C.3       6 GLL5        0.0000 
     45 CA         21.9931  -16.3226    7.1464 C.3       2 GLC5        0.0000 
     46 CA         23.8640  -16.9220    6.7780 C.3       6 GLL5        0.0000 
     47 CA         20.1840  -15.9070    6.6170 C.3       4 GLP5        0.0000 
     48 CA         21.8610  -13.1028    5.7118 C.3       2 GLC5        0.0000 
     49 CA         23.8310  -12.7860    6.9120 C.3       6 GLL5        0.0000 
     50 CA         20.3390  -14.1760    4.7640 C.3       4 GLP5        0.0000 
@<TRIPOS>BOND
@<TRIPOS>SUBSTRUCTURE
     1 SEC2        1 GROUP        1 X    SEC  0     ROOT SEC X 2
     2 GLC5        4 GROUP        1 X    GLC  0     **** GLC X 6
     3 SEP2        3 GROUP        1 Y    SEP  0     ROOT SEP Y 9
     4 GLP5        6 GROUP        1 Y    GLP  0     **** GLP Y 13
     5 SEL2        2 GROUP        1 Z    SEL  0     ROOT SEL Z 16
     6 GLL5        5 GROUP        1 Z    GLL  0     **** GLL Z 20
@<TRIPOS>SET

