#    Name: 4e9u_RWY_1_ligand
#    Modification time : Tue Mar 25 10:46:50 2014

@<TRIPOS>MOLECULE
4e9u_RWY_1_ligand
   32    33     1     0     0
SMALL
NO_CHARGES


@<TRIPOS>ATOM
      1 NAA        22.4090  -10.1520    8.8920 N.1       1 RWY301      0.0000 
      2 CAB        22.6250  -10.6120    7.8740 C.1       1 RWY301      0.0000 
      3 CAC        23.7840  -21.6090    6.7750 C.ar      1 RWY301      0.0000 
      4 CAD        23.2190  -21.6030    8.0440 C.ar      1 RWY301      0.0000 
      5 CAE        23.9840  -20.4130    6.0960 C.ar      1 RWY301      0.0000 
      6 CAF        22.8570  -20.3990    8.6320 C.ar      1 RWY301      0.0000 
      7 CAG        23.6230  -19.2080    6.6850 C.ar      1 RWY301      0.0000 
      8 CAH        24.7960  -15.0510    8.6080 C.ar      1 RWY301      0.0000 
      9 CAI        24.6860  -15.8860    6.3550 C.ar      1 RWY301      0.0000 
     10 CAJ        23.9730  -16.0870    9.0310 C.ar      1 RWY301      0.0000 
     11 CAK        23.8640  -16.9220    6.7780 C.ar      1 RWY301      0.0000 
     12 CAL        25.1560  -12.9670    6.1710 C.3       1 RWY301      0.0000 
     13 CAM        23.8310  -12.7860    6.9120 C.3       1 RWY301      0.0000 
     14 OAN        25.9550  -13.9380    6.8580 O.3       1 RWY301      0.0000 
     15 OAO        22.7010  -18.0310    8.5350 O.3       1 RWY301      0.0000 
     16 SAP        22.9350  -11.2730    6.4070 S.3       1 RWY301      0.0000 
     17 CAQ        25.1520  -14.9520    7.2700 C.ar      1 RWY301      0.0000 
     18 CAR        23.0590  -19.2030    7.9530 C.ar      1 RWY301      0.0000 
     19 CAS        23.5080  -17.0220    8.1160 C.ar      1 RWY301      0.0000 
     20 H          24.0549  -22.5000    6.3369 H         1 RWY301      0.0000 
     21 H          23.0697  -22.4874    8.5454 H         1 RWY301      0.0000 
     22 H          24.4006  -20.4205    5.1545 H         1 RWY301      0.0000 
     23 H          22.4382  -20.3907    9.5724 H         1 RWY301      0.0000 
     24 H          23.7731  -18.3241    6.1835 H         1 RWY301      0.0000 
     25 H          25.1408  -14.3585    9.2855 H         1 RWY301      0.0000 
     26 H          24.9496  -15.8108    5.3632 H         1 RWY301      0.0000 
     27 H          23.7082  -16.1612   10.0224 H         1 RWY301      0.0000 
     28 H          23.5192  -17.6148    6.1003 H         1 RWY301      0.0000 
     29 H          25.6514  -11.9929    6.1272 H         1 RWY301      0.0000 
     30 H          24.9281  -13.2807    5.1483 H         1 RWY301      0.0000 
     31 H          23.9443  -12.6355    7.9678 H         1 RWY301      0.0000 
     32 H          23.1107  -13.5520    6.7010 H         1 RWY301      0.0000 
@<TRIPOS>BOND
     1    2    1 3    
     2   16    2 1    
     3    4    3 ar   
     4    5    3 ar   
     5   20    3 1    
     6    6    4 ar   
     7   21    4 1    
     8    7    5 ar   
     9   22    5 1    
    10   18    6 ar   
    11   23    6 1    
    12   18    7 ar   
    13   24    7 1    
    14   10    8 ar   
    15   17    8 ar   
    16   25    8 1    
    17   11    9 ar   
    18   17    9 ar   
    19   26    9 1    
    20   19   10 ar   
    21   27   10 1    
    22   19   11 ar   
    23   28   11 1    
    24   13   12 1    
    25   14   12 1    
    26   29   12 1    
    27   30   12 1    
    28   16   13 1    
    29   31   13 1    
    30   32   13 1    
    31   17   14 1    
    32   18   15 1    
    33   19   15 1    
@<TRIPOS>SUBSTRUCTURE
     1 RWY301      1 GROUP   
@<TRIPOS>SET

