#    Name: 1lkx_ADP_1_INTS_M
#    Modification time : Mon Apr  7 14:06:26 2014

@<TRIPOS>MOLECULE
1lkx_ADP_1_INTS_M
   50     0    12     0     0
SMALL
NO_CHARGES


@<TRIPOS>ATOM
      1 Zn        127.6020   87.1525   -9.7020 Zn        3 ZIC7        0.0000 
      2 Zn        127.9770   86.0820   -9.3200 Zn       11 ZIL7        0.0000 
      3 Zn        127.2270   88.2230  -10.0840 Zn        7 ZIP7        0.0000 
      4 N         127.9070   86.0640   -7.9640 N.am      1 SEC2        0.0000 
      5 N         127.9770   86.0820   -9.3200 N.am      9 SEL2        0.0000 
      6 N         127.8370   86.0460   -6.6080 N.am      5 SEP2        0.0000 
      7 N         127.7860   87.3705   -8.6760 N.am      1 SEC2        0.0000 
      8 N         127.5950   88.6590   -8.0320 N.am      5 SEP2        0.0000 
      9 NZ        129.6375   84.9720  -11.2015 N.4       2 LYC4        0.0000 
     10 NZ        127.8390   85.5660  -11.7820 N.4      10 LYL4        0.0000 
     11 NZ        131.4360   84.3780  -10.6210 N.4       6 LYP4        0.0000 
     12 N         127.9495   84.2555  -12.6575 N.am      1 SEC2        0.0000 
     13 N         127.8390   85.5660  -11.7820 N.am      9 SEL2        0.0000 
     14 N         128.0600   82.9450  -13.5330 N.am      5 SEP2        0.0000 
     15 N         126.4755   85.7245  -12.5365 N.am      1 SEC2        0.0000 
     16 N         125.1120   85.8830  -13.2910 N.am      5 SEP2        0.0000 
     17 NZ        130.1045   84.1790  -10.3565 N.4       2 LYC4        0.0000 
     18 NZ        128.7730   83.9800  -10.0920 N.4      10 LYL4        0.0000 
     19 N         127.9720   82.7605   -9.6560 N.am      1 SEC2        0.0000 
     20 N         128.7730   83.9800  -10.0920 N.am      9 SEL2        0.0000 
     21 N         127.1710   81.5410   -9.2200 N.am      5 SEP2        0.0000 
     22 N         128.5465   83.6545   -8.7115 N.am      1 SEC2        0.0000 
     23 N         128.3200   83.3290   -7.3310 N.am      5 SEP2        0.0000 
     24 N         130.1045   84.1790  -10.3565 N.am      1 SEC2        0.0000 
     25 N         131.4360   84.3780  -10.6210 N.am      5 SEP2        0.0000 
     26 N         125.2370   85.4140   -6.7345 N.am      1 SEC2        0.0000 
     27 N         125.2220   84.9380   -8.0940 N.am      9 SEL2        0.0000 
     28 N         125.2520   85.8900   -5.3750 N.am      5 SEP2        0.0000 
     29 N         124.9485   86.0855  -11.7470 N.am      1 SEC2        0.0000 
     30 N         124.7850   86.2880  -10.2030 N.am      9 SEL2        0.0000 
     31 CA        125.0995   83.1175  -12.2850 C.3       4 GLC5        0.0000 
     32 CA        123.4060   83.9720  -11.2020 C.3      12 GLL5        0.0000 
     33 CA        126.7930   82.2630  -13.3680 C.3       8 GLP5        0.0000 
     34 N         122.7565   81.2070  -10.4390 N.am      1 SEC2        0.0000 
     35 N         121.9070   82.4610  -10.5090 N.am      9 SEL2        0.0000 
     36 N         123.6060   79.9530  -10.3690 N.am      5 SEP2        0.0000 
     37 N         120.7985   86.7970  -10.8235 N.am      1 SEC2        0.0000 
     38 N         121.1290   85.9490  -10.2690 N.am      9 SEL2        0.0000 
     39 N         120.4680   87.6450  -11.3780 N.am      5 SEP2        0.0000 
     40 CA        120.5425   80.7160  -11.1330 C.3       4 GLC5        0.0000 
     41 CA        120.7540   82.3610   -9.6900 C.3      12 GLL5        0.0000 
     42 CA        120.3310   79.0710  -12.5760 C.3       8 GLP5        0.0000 
     43 CA        116.8910   79.8635   -7.2170 C.3       4 GLC5        0.0000 
     44 CA        118.4370   81.1090   -6.2290 C.3      12 GLL5        0.0000 
     45 CA        115.3450   78.6180   -8.2050 C.3       8 GLP5        0.0000 
     46 CA        121.2970   83.2065   -6.0258 C.3       4 GLC5        0.0000 
     47 CA        121.1820   81.1700   -6.3270 C.3      12 GLL5        0.0000 
     48 CA        121.8290   85.0390   -5.2120 C.3       8 GLP5        0.0000 
     49 CA        120.9651   79.2572   -6.5546 C.3       4 GLC5        0.0000 
     50 CA        121.3160   77.2590   -6.5600 C.3       8 GLP5        0.0000 
@<TRIPOS>BOND
@<TRIPOS>SUBSTRUCTURE
     1 SEC2        4 GROUP        1 X    SEC  0     ROOT SEC X 2
     2 LYC4        9 GROUP        1 X    LYC  0     **** LYC X 4
     3 ZIC7        1 GROUP        1 X    ZIC  0     **** ZIC X 5
     4 GLC5       31 GROUP        1 X    GLC  0     **** GLC X 6
     5 SEP2        6 GROUP        1 Y    SEP  0     ROOT SEP Y 9
     6 LYP4       11 GROUP        1 Y    LYP  0     **** LYP Y 11
     7 ZIP7        3 GROUP        1 Y    ZIP  0     **** ZIP Y 12
     8 GLP5       33 GROUP        1 Y    GLP  0     **** GLP Y 13
     9 SEL2        5 GROUP        1 Z    SEL  0     ROOT SEL Z 16
    10 LYL4       10 GROUP        1 Z    LYL  0     **** LYL Z 18
    11 ZIL7        2 GROUP        1 Z    ZIL  0     **** ZIL Z 19
    12 GLL5       32 GROUP        1 Z    GLL  0     **** GLL Z 20
@<TRIPOS>SET

