#    Name: 1lkx_ADP_1_ligand
#    Modification time : Mon Apr  7 14:06:26 2014

@<TRIPOS>MOLECULE
1lkx_ADP_1_ligand
   39    41     1     0     0
SMALL
NO_CHARGES


@<TRIPOS>ATOM
      1 PB        127.7590   85.0890  -10.4070 P.3       1 ADP791      0.0000 
      2 O1B       127.9770   86.0820   -9.3200 O.co2     1 ADP791      0.0000 
      3 O2B       127.8390   85.5660  -11.7820 O.co2     1 ADP791      0.0000 
      4 O3B       128.7730   83.9800  -10.0920 O.co2     1 ADP791      0.0000 
      5 PA        125.0640   84.9780   -9.5550 P.3       1 ADP791      0.0000 
      6 O1A       125.2220   84.9380   -8.0940 O.co2     1 ADP791      0.0000 
      7 O2A       124.7850   86.2880  -10.2030 O.co2     1 ADP791      0.0000 
      8 O3A       126.3470   84.4200  -10.3110 O.3       1 ADP791      0.0000 
      9 O5'       123.9350   83.9300   -9.8740 O.3       1 ADP791      0.0000 
     10 C5'       123.4060   83.9720  -11.2020 C.3       1 ADP791      0.0000 
     11 C4'       121.9550   83.7400  -11.0700 C.3       1 ADP791      0.0000 
     12 O4'       121.9070   82.4610  -10.5090 O.3       1 ADP791      0.0000 
     13 C3'       121.2810   84.5520  -10.0350 C.3       1 ADP791      0.0000 
     14 O3'       121.1290   85.9490  -10.2690 O.3       1 ADP791      0.0000 
     15 C2'       120.0710   83.6950   -9.7750 C.3       1 ADP791      0.0000 
     16 O2'       119.0390   83.8140  -10.7210 O.3       1 ADP791      0.0000 
     17 C1'       120.7540   82.3610   -9.6900 C.3       1 ADP791      0.0000 
     18 N9        121.1970   81.9770   -8.3420 N.pl3     1 ADP791      0.0000 
     19 C8        122.4690   81.7890   -7.8670 C.2       1 ADP791      0.0000 
     20 N7        122.5110   81.3100   -6.6670 N.2       1 ADP791      0.0000 
     21 C5        121.1820   81.1700   -6.3270 C.ar      1 ADP791      0.0000 
     22 C6        120.5790   80.6960   -5.1660 C.ar      1 ADP791      0.0000 
     23 N6        121.2970   80.3720   -4.1290 N.pl3     1 ADP791      0.0000 
     24 N1        119.1750   80.6610   -5.1180 N.ar      1 ADP791      0.0000 
     25 C2        118.4370   81.1090   -6.2290 C.ar      1 ADP791      0.0000 
     26 N3        118.9430   81.5860   -7.3750 N.ar      1 ADP791      0.0000 
     27 C4        120.3480   81.5780   -7.3520 C.ar      1 ADP791      0.0000 
     28 H         123.8410   83.1954  -11.8246 H         1 ADP791      0.0000 
     29 H         123.5767   84.9402  -11.6642 H         1 ADP791      0.0000 
     30 H         121.4628   83.7756  -11.9800 H         1 ADP791      0.0000 
     31 H         121.9277   84.3782   -9.0995 H         1 ADP791      0.0000 
     32 H         119.7579   83.9366   -8.7502 H         1 ADP791      0.0000 
     33 H         120.0914   81.6066  -10.0932 H         1 ADP791      0.0000 
     34 H         123.2708   82.0159   -8.4328 H         1 ADP791      0.0000 
     35 H         120.7910   80.0827   -3.3164 H         1 ADP791      0.0000 
     36 H         122.2882   80.4423   -4.2408 H         1 ADP791      0.0000 
     37 H         117.3659   81.0531   -6.1235 H         1 ADP791      0.0000 
     38 H         121.5216   86.3907   -9.4623 H         1 ADP791      0.0000 
     39 H         119.4806   84.1776  -11.5412 H         1 ADP791      0.0000 
@<TRIPOS>BOND
     1    2    1 ar   
     2    3    1 ar   
     3    4    1 ar   
     4    8    1 1    
     5    6    5 ar   
     6    7    5 ar   
     7    8    5 1    
     8    9    5 1    
     9   10    9 1    
    10   11   10 1    
    11   28   10 1    
    12   29   10 1    
    13   12   11 1    
    14   13   11 1    
    15   30   11 1    
    16   17   12 1    
    17   14   13 1    
    18   15   13 1    
    19   31   13 1    
    20   38   14 1    
    21   16   15 1    
    22   17   15 1    
    23   32   15 1    
    24   39   16 1    
    25   18   17 1    
    26   33   17 1    
    27   19   18 1    
    28   27   18 1    
    29   20   19 2    
    30   34   19 1    
    31   21   20 1    
    32   22   21 ar   
    33   27   21 ar   
    34   23   22 1    
    35   24   22 ar   
    36   35   23 1    
    37   36   23 1    
    38   25   24 ar   
    39   26   25 ar   
    40   37   25 1    
    41   27   26 ar   
@<TRIPOS>SUBSTRUCTURE
     1 ADP791      1 GROUP   
@<TRIPOS>SET

