#    Name: 3nkv_GNP_1_INTS_M
#    Modification time : Tue Mar 25 01:44:05 2014

@<TRIPOS>MOLECULE
3nkv_GNP_1_INTS_M
   79     0    15     0     0
SMALL
NO_CHARGES


@<TRIPOS>ATOM
      1 NZ        -11.1860   26.9435   -5.0780 N.4       3 LYC4        0.0000 
      2 NZ        -12.2770   27.5450   -4.7870 N.4      13 LYL4        0.0000 
      3 NZ        -10.0950   26.3420   -5.3690 N.4       8 LYP4        0.0000 
      4 N         -11.1860   26.9435   -5.0780 N.am      2 SEC2        0.0000 
      5 N         -12.2770   27.5450   -4.7870 N.am     12 SEL2        0.0000 
      6 N         -10.0950   26.3420   -5.3690 N.am      7 SEP2        0.0000 
      7 N         -11.6570   28.7925   -4.5840 N.am      2 SEC2        0.0000 
      8 N         -11.0370   30.0400   -4.3810 N.am      7 SEP2        0.0000 
      9 Zn        -13.9415   26.1120   -2.5965 Zn        4 ZIC7        0.0000 
     10 Zn        -14.1210   26.8960   -3.1780 Zn       14 ZIL7        0.0000 
     11 Zn        -13.7620   25.3280   -2.0150 Zn        9 ZIP7        0.0000 
     12 N         -15.1775   27.4610   -2.4305 N.am      2 SEC2        0.0000 
     13 N         -14.1210   26.8960   -3.1780 N.am     12 SEL2        0.0000 
     14 N         -16.2340   28.0260   -1.6830 N.am      7 SEP2        0.0000 
     15 N         -14.6565   28.4665   -6.6050 N.am      2 SEC2        0.0000 
     16 N         -14.6640   28.1230   -5.3230 N.am     12 SEL2        0.0000 
     17 N         -14.6490   28.8100   -7.8870 N.am      7 SEP2        0.0000 
     18 N         -16.0755   28.2555   -5.5125 N.am      2 SEC2        0.0000 
     19 N         -17.4870   28.3880   -5.7020 N.am      7 SEP2        0.0000 
     20 N         -14.5500   29.3830   -4.6260 N.am      2 SEC2        0.0000 
     21 N         -14.4360   30.6430   -3.9290 N.am      7 SEP2        0.0000 
     22 NZ        -10.9135   25.2600   -5.5495 N.4       3 LYC4        0.0000 
     23 NZ        -11.7320   24.1780   -5.7300 N.4      13 LYL4        0.0000 
     24 N         -11.6695   22.8920   -6.4380 N.am      2 SEC2        0.0000 
     25 N         -11.7320   24.1780   -5.7300 N.am     12 SEL2        0.0000 
     26 N         -11.6070   21.6060   -7.1460 N.am      7 SEP2        0.0000 
     27 N         -11.0800   22.9870   -5.0845 N.am      2 SEC2        0.0000 
     28 N         -10.4280   21.7960   -4.4390 N.am      7 SEP2        0.0000 
     29 N         -10.9135   25.2600   -5.5495 N.am      2 SEC2        0.0000 
     30 Zn        -13.4180   24.7210   -2.7650 Zn        4 ZIC7        0.0000 
     31 Zn        -13.0740   24.1140   -3.5150 Zn       14 ZIL7        0.0000 
     32 N         -12.3525   23.0365   -2.7380 N.am      2 SEC2        0.0000 
     33 N         -13.0740   24.1140   -3.5150 N.am     12 SEL2        0.0000 
     34 N         -11.6310   21.9590   -1.9610 N.am      7 SEP2        0.0000 
     35 N         -12.7980   22.3635   -6.4050 N.am      2 SEC2        0.0000 
     36 N         -13.9890   23.1210   -5.6640 N.am     12 SEL2        0.0000 
     37 N         -13.5425   20.3395   -2.9515 N.am      2 SEC2        0.0000 
     38 N         -14.0280   21.1430   -4.0410 N.am     12 SEL2        0.0000 
     39 N         -13.0570   19.5360   -1.8620 N.am      7 SEP2        0.0000 
     40 CA        -14.9985   23.1785   -8.0930 C.3       5 GLC5        0.0000 
     41 CA        -15.9340   21.6610   -7.2560 C.3      15 GLL5        0.0000 
     42 CA        -14.0630   24.6960   -8.9300 C.3      10 GLP5        0.0000 
     43 CA        -13.8280   21.1235   -6.6855 C.3       5 GLC5        0.0000 
     44 CA        -11.7220   20.5860   -6.1150 C.3      10 GLP5        0.0000 
     45 CA        -19.2545   21.3270   -6.6550 C.3       5 GLC5        0.0000 
     46 CA        -17.8320   19.9400   -7.2510 C.3      15 GLL5        0.0000 
     47 CA        -20.6770   22.7140   -6.0590 C.3      10 GLP5        0.0000 
     48 CA        -16.3495   18.3625   -5.2330 C.3       5 GLC5        0.0000 
     49 CA        -17.1600   18.6080   -6.9620 C.3      15 GLL5        0.0000 
     50 CA        -15.5390   18.1170   -3.5040 C.3      10 GLP5        0.0000 
     51 O         -18.4235   17.0170   -5.4930 O.2       1 ALC1        0.0000 
     52 O         -18.0620   17.5340   -6.7240 O.2      11 ALL1        0.0000 
     53 O         -18.7850   16.5000   -4.2620 O.2       6 ALP1        0.0000 
     54 CA        -14.7070   18.7910   -9.4240 C.3       5 GLC5        0.0000 
     55 CA        -16.2710   18.3260   -8.1510 C.3      15 GLL5        0.0000 
     56 CA        -13.1430   19.2560  -10.6970 C.3      10 GLP5        0.0000 
     57 N         -11.6650   17.2295   -7.2010 N.am      2 SEC2        0.0000 
     58 N         -13.1920   16.9150   -6.9060 N.am     12 SEL2        0.0000 
     59 N         -10.1380   17.5440   -7.4960 N.am      7 SEP2        0.0000 
     60 CA        -12.6005   16.5750   -9.3670 C.3       5 GLC5        0.0000 
     61 CA        -13.5070   15.9690   -7.8410 C.3      15 GLL5        0.0000 
     62 CA        -11.6940   17.1810  -10.8930 C.3      10 GLP5        0.0000 
     63 CA        -12.5790   15.3475   -6.0040 C.3       5 GLC5        0.0000 
     64 CA        -11.6510   14.7260   -4.1670 C.3      10 GLP5        0.0000 
     65 N         -12.3595   13.2660   -6.7730 N.am      2 SEC2        0.0000 
     66 N         -11.8140   14.3370   -7.8690 N.am     12 SEL2        0.0000 
     67 N         -12.9050   12.1950   -5.6770 N.am      7 SEP2        0.0000 
     68 O         -12.9700   13.0395   -9.8225 O.2       1 ALC1        0.0000 
     69 O         -13.5710   14.1120   -9.2780 O.2      11 ALL1        0.0000 
     70 O         -12.3690   11.9670  -10.3670 O.2       6 ALP1        0.0000 
     71 O         -14.8030   12.5640  -11.0635 O.2       1 ALC1        0.0000 
     72 O         -15.4020   13.8740  -10.7630 O.2      11 ALL1        0.0000 
     73 O         -14.2040   11.2540  -11.3640 O.2       6 ALP1        0.0000 
     74 CA        -13.7860   17.1775   -9.9770 C.3       5 GLC5        0.0000 
     75 CA        -14.7370   16.3810   -8.4700 C.3      15 GLL5        0.0000 
     76 CA        -12.8350   17.9740  -11.4840 C.3      10 GLP5        0.0000 
     77 CA        -17.5508   22.4523   -8.3500 C.3       5 GLC5        0.0000 
     78 CA        -16.7290   20.6400   -8.0440 C.3      15 GLL5        0.0000 
     79 CA        -18.7700   23.7540   -9.0500 C.3      10 GLP5        0.0000 
@<TRIPOS>BOND
@<TRIPOS>SUBSTRUCTURE
     1 ALC1       51 GROUP        1 X    ALC  0     ROOT ALC X 1
     2 SEC2        4 GROUP        1 X    SEC  0     **** SEC X 2
     3 LYC4        1 GROUP        1 X    LYC  0     **** LYC X 4
     4 ZIC7        9 GROUP        1 X    ZIC  0     **** ZIC X 5
     5 GLC5       40 GROUP        1 X    GLC  0     **** GLC X 6
     6 ALP1       53 GROUP        1 Y    ALP  0     ROOT ALP Y 8
     7 SEP2        6 GROUP        1 Y    SEP  0     **** SEP Y 9
     8 LYP4        3 GROUP        1 Y    LYP  0     **** LYP Y 11
     9 ZIP7       11 GROUP        1 Y    ZIP  0     **** ZIP Y 12
    10 GLP5       42 GROUP        1 Y    GLP  0     **** GLP Y 13
    11 ALL1       52 GROUP        1 Z    ALL  0     ROOT ALL Z 15
    12 SEL2        5 GROUP        1 Z    SEL  0     **** SEL Z 16
    13 LYL4        2 GROUP        1 Z    LYL  0     **** LYL Z 18
    14 ZIL7       10 GROUP        1 Z    ZIL  0     **** ZIL Z 19
    15 GLL5       41 GROUP        1 Z    GLL  0     **** GLL Z 20
@<TRIPOS>SET

