#    Name: 3nkv_GNP_1_ligand
#    Modification time : Tue Mar 25 01:44:06 2014

@<TRIPOS>MOLECULE
3nkv_GNP_1_ligand
   44    46     1     0     0
SMALL
NO_CHARGES


@<TRIPOS>ATOM
      1 PG        -13.7130   27.1540   -4.6000 P.3       1 GNP400      0.0000 
      2 O1G       -12.2770   27.5450   -4.7870 O.co2     1 GNP400      0.0000 
      3 O2G       -14.1210   26.8960   -3.1780 O.co2     1 GNP400      0.0000 
      4 O3G       -14.6640   28.1230   -5.3230 O.co2     1 GNP400      0.0000 
      5 N3B       -13.9420   25.6970   -5.4390 N.4       1 GNP400      0.0000 
      6 PB        -13.0870   24.2920   -5.0060 P.3       1 GNP400      0.0000 
      7 O1B       -11.7320   24.1780   -5.7300 O.co2     1 GNP400      0.0000 
      8 O2B       -13.0740   24.1140   -3.5150 O.co2     1 GNP400      0.0000 
      9 O3A       -13.9890   23.1210   -5.6640 O.3       1 GNP400      0.0000 
     10 PA        -14.8710   22.0100   -4.9090 P.3       1 GNP400      0.0000 
     11 O1A       -14.0280   21.1430   -4.0410 O.co2     1 GNP400      0.0000 
     12 O2A       -16.0700   22.7440   -4.3440 O.co2     1 GNP400      0.0000 
     13 O5'       -15.3380   21.1040   -6.1410 O.3       1 GNP400      0.0000 
     14 C5'       -15.9340   21.6610   -7.2560 C.3       1 GNP400      0.0000 
     15 C4'       -16.7290   20.6400   -8.0440 C.3       1 GNP400      0.0000 
     16 O4'       -15.8370   19.6290   -8.5460 O.3       1 GNP400      0.0000 
     17 C3'       -17.8320   19.9400   -7.2510 C.3       1 GNP400      0.0000 
     18 O3'       -19.0130   19.7680   -8.0610 O.3       1 GNP400      0.0000 
     19 C2'       -17.1600   18.6080   -6.9620 C.3       1 GNP400      0.0000 
     20 O2'       -18.0620   17.5340   -6.7240 O.3       1 GNP400      0.0000 
     21 C1'       -16.2710   18.3260   -8.1510 C.3       1 GNP400      0.0000 
     22 N9        -15.0930   17.5160   -7.8400 N.pl3     1 GNP400      0.0000 
     23 C8        -14.1480   17.8490   -6.9330 C.2       1 GNP400      0.0000 
     24 N7        -13.1920   16.9150   -6.9060 N.2       1 GNP400      0.0000 
     25 C5        -13.5070   15.9690   -7.8410 C.2       1 GNP400      0.0000 
     26 C6        -12.8700   14.7740   -8.3440 C.2       1 GNP400      0.0000 
     27 O6        -11.8140   14.3370   -7.8690 O.2       1 GNP400      0.0000 
     28 N1        -13.5710   14.1120   -9.2780 N.am      1 GNP400      0.0000 
     29 C2        -14.7660   14.5570   -9.8140 C.2       1 GNP400      0.0000 
     30 N2        -15.4020   13.8740  -10.7630 N.pl3     1 GNP400      0.0000 
     31 N3        -15.3800   15.7040   -9.4430 N.2       1 GNP400      0.0000 
     32 C4        -14.7370   16.3810   -8.4700 C.2       1 GNP400      0.0000 
     33 H         -15.1920   22.1070   -7.9552 H         1 GNP400      0.0000 
     34 H         -16.6321   22.4875   -6.9953 H         1 GNP400      0.0000 
     35 H         -17.2011   21.1484   -8.8906 H         1 GNP400      0.0000 
     36 H         -17.9787   20.4519   -6.3561 H         1 GNP400      0.0000 
     37 H         -16.4910   18.7677   -6.1065 H         1 GNP400      0.0000 
     38 H         -16.8610   17.8899   -8.9242 H         1 GNP400      0.0000 
     39 H         -14.1682   18.6561   -6.3818 H         1 GNP400      0.0000 
     40 H         -13.1963   13.1814   -9.6410 H         1 GNP400      0.0000 
     41 H         -14.9985   12.9953  -11.0182 H         1 GNP400      0.0000 
     42 H         -16.2260   14.3011  -11.1353 H         1 GNP400      0.0000 
     43 H         -19.1987   18.7856   -8.0424 H         1 GNP400      0.0000 
     44 H         -18.1206   17.4612   -5.7284 H         1 GNP400      0.0000 
@<TRIPOS>BOND
     1    2    1 ar   
     2    3    1 ar   
     3    4    1 ar   
     4    5    1 1    
     5    6    5 1    
     6    7    6 ar   
     7    8    6 ar   
     8    9    6 1    
     9   10    9 1    
    10   11   10 ar   
    11   12   10 ar   
    12   13   10 1    
    13   14   13 1    
    14   15   14 1    
    15   33   14 1    
    16   34   14 1    
    17   16   15 1    
    18   17   15 1    
    19   35   15 1    
    20   21   16 1    
    21   18   17 1    
    22   19   17 1    
    23   36   17 1    
    24   43   18 1    
    25   20   19 1    
    26   21   19 1    
    27   37   19 1    
    28   44   20 1    
    29   22   21 1    
    30   38   21 1    
    31   23   22 1    
    32   32   22 1    
    33   24   23 2    
    34   39   23 1    
    35   25   24 1    
    36   26   25 1    
    37   32   25 2    
    38   27   26 2    
    39   28   26 am   
    40   29   28 1    
    41   40   28 1    
    42   30   29 1    
    43   31   29 2    
    44   41   30 1    
    45   42   30 1    
    46   32   31 1    
@<TRIPOS>SUBSTRUCTURE
     1 GNP400      1 GROUP   
@<TRIPOS>SET

