#    Name: 4k18_1OB_1_INTS_M
#    Modification time : Tue Mar 25 06:45:18 2014

@<TRIPOS>MOLECULE
4k18_1OB_1_INTS_M
   67     0     6     0     0
SMALL
NO_CHARGES


@<TRIPOS>ATOM
      1 CA        -17.5195  -38.6935    6.3625 C.3       2 GLC5        0.0000 
      2 CA        -18.5000  -36.9440    5.4710 C.3       6 GLL5        0.0000 
      3 CA        -16.5390  -40.4430    7.2540 C.3       4 GLP5        0.0000 
      4 CA        -19.1695  -31.1070    5.7105 C.3       2 GLC5        0.0000 
      5 CA        -18.7850  -33.1960    5.0640 C.3       6 GLL5        0.0000 
      6 CA        -19.5540  -29.0180    6.3570 C.3       4 GLP5        0.0000 
      7 CA        -19.7710  -32.3025    3.4125 C.3       2 GLC5        0.0000 
      8 CA        -20.7570  -31.4090    1.7610 C.3       4 GLP5        0.0000 
      9 CA        -15.2855  -29.8415    2.4340 C.3       2 GLC5        0.0000 
     10 CA        -16.6640  -31.5480    2.4510 C.3       6 GLL5        0.0000 
     11 CA        -13.9070  -28.1350    2.4170 C.3       4 GLP5        0.0000 
     12 CA        -16.9670  -30.3425    0.7660 C.3       2 GLC5        0.0000 
     13 CA        -17.2700  -29.1370   -0.9190 C.3       4 GLP5        0.0000 
     14 CA        -18.8865  -33.9990   -1.5980 C.3       2 GLC5        0.0000 
     15 CA        -17.7000  -34.0760    0.2850 C.3       6 GLL5        0.0000 
     16 CA        -20.0730  -33.9220   -3.4810 C.3       4 GLP5        0.0000 
     17 N         -16.1515  -31.0530   -0.4650 N.am      1 SEC2        0.0000 
     18 N         -16.3850  -32.3330    0.0780 N.am      5 SEL2        0.0000 
     19 N         -15.9180  -29.7730   -1.0080 N.am      3 SEP2        0.0000 
     20 CA        -23.2560  -37.1105    2.5860 C.3       2 GLC5        0.0000 
     21 CA        -21.5390  -38.3100    2.2120 C.3       6 GLL5        0.0000 
     22 CA        -24.9730  -35.9110    2.9600 C.3       4 GLP5        0.0000 
     23 CA        -20.4085  -39.9540   -1.4355 C.3       2 GLC5        0.0000 
     24 CA        -21.3790  -38.5500   -0.1760 C.3       6 GLL5        0.0000 
     25 CA        -19.4380  -41.3580   -2.6950 C.3       4 GLP5        0.0000 
     26 CA        -22.9395  -39.6475   -1.0265 C.3       2 GLC5        0.0000 
     27 CA        -24.5000  -40.7450   -1.8770 C.3       4 GLP5        0.0000 
     28 CA        -19.8035  -38.1130   -2.1370 C.3       2 GLC5        0.0000 
     29 CA        -20.5070  -37.4770   -0.2310 C.3       6 GLL5        0.0000 
     30 CA        -19.1000  -38.7490   -4.0430 C.3       4 GLP5        0.0000 
     31 CA        -22.9440  -41.1865    2.5440 C.3       2 GLC5        0.0000 
     32 CA        -22.7450  -40.0030    1.0830 C.3       6 GLL5        0.0000 
     33 CA        -23.1430  -42.3700    4.0050 C.3       4 GLP5        0.0000 
     34 N         -15.8920  -30.1270    0.6345 N.am      1 SEC2        0.0000 
     35 N         -15.8660  -30.4810    2.2770 N.am      5 SEL2        0.0000 
     36 CA        -18.3535  -39.5600    6.5895 C.3       2 GLC5        0.0000 
     37 CA        -20.1680  -38.6770    5.9250 C.3       6 GLL5        0.0000 
     38 CA        -17.1405  -36.6268    3.8927 C.3       2 GLC5        0.0000 
     39 CA        -15.9440  -36.9750    2.4160 C.3       4 GLP5        0.0000 
     40 CA        -22.6040  -35.1527    5.3475 C.3       2 GLC5        0.0000 
     41 CA        -20.8230  -36.3230    5.7260 C.3       6 GLL5        0.0000 
     42 CA        -24.5590  -34.6450    5.0750 C.3       4 GLP5        0.0000 
     43 CA        -20.5207  -33.0299    6.1521 C.3       2 GLC5        0.0000 
     44 CA        -20.4750  -34.9980    5.5140 C.3       6 GLL5        0.0000 
     45 CA        -21.7410  -32.0520    7.0740 C.3       4 GLP5        0.0000 
     46 CA        -18.8653  -31.5425    2.4043 C.3       2 GLC5        0.0000 
     47 CA        -17.2830  -31.8040    3.6440 C.3       6 GLL5        0.0000 
     48 CA        -19.2263  -32.5830    1.3345 C.3       2 GLC5        0.0000 
     49 CA        -17.6910  -33.4380    1.5310 C.3       6 GLL5        0.0000 
     50 CA        -16.8197  -35.3660    1.6620 C.3       2 GLC5        0.0000 
     51 CA        -22.0628  -36.4960   -0.3990 C.3       2 GLC5        0.0000 
     52 CA        -20.1380  -36.8230    0.9390 C.3       6 GLL5        0.0000 
     53 CA        -23.8030  -35.8420   -1.1520 C.3       4 GLP5        0.0000 
     54 CA        -19.6245  -38.7915    1.4200 C.3       2 GLC5        0.0000 
     55 CA        -18.8480  -40.5500    1.2920 C.3       4 GLP5        0.0000 
     56 CA        -18.3747  -37.7840    0.0105 C.3       2 GLC5        0.0000 
     57 CA        -16.4270  -38.4180   -0.3330 C.3       4 GLP5        0.0000 
     58 CA        -22.7200  -37.2980   -0.3597 C.3       2 GLC5        0.0000 
     59 CA        -21.8950  -38.9580    1.0410 C.3       6 GLL5        0.0000 
     60 CA        -24.0855  -39.7968    0.6355 C.3       2 GLC5        0.0000 
     61 CA        -25.8510  -40.1130    0.2090 C.3       4 GLP5        0.0000 
     62 CA        -19.8955  -39.2817    0.5443 C.3       2 GLC5        0.0000 
     63 CA        -22.3265  -41.0343   -0.1346 C.3       2 GLC5        0.0000 
     64 CA        -22.4620  -42.6900   -1.0270 C.3       4 GLP5        0.0000 
     65 CA        -20.5395  -39.9342    1.3234 C.3       2 GLC5        0.0000 
     66 CA        -18.7092  -39.1128    4.6446 C.3       2 GLC5        0.0000 
     67 CA        -17.7520  -40.3240    3.5320 C.3       4 GLP5        0.0000 
@<TRIPOS>BOND
@<TRIPOS>SUBSTRUCTURE
     1 SEC2       17 GROUP        1 X    SEC  0     ROOT SEC X 2
     2 GLC5        1 GROUP        1 X    GLC  0     **** GLC X 6
     3 SEP2       19 GROUP        1 Y    SEP  0     ROOT SEP Y 9
     4 GLP5        3 GROUP        1 Y    GLP  0     **** GLP Y 13
     5 SEL2       18 GROUP        1 Z    SEL  0     ROOT SEL Z 16
     6 GLL5        2 GROUP        1 Z    GLL  0     **** GLL Z 20
@<TRIPOS>SET

