#    Name: 4k18_1OB_1_ligand
#    Modification time : Tue Mar 25 06:45:18 2014

@<TRIPOS>MOLECULE
4k18_1OB_1_ligand
   43    46     1     0     0
SMALL
NO_CHARGES


@<TRIPOS>ATOM
      1 C1        -18.1740  -35.6130    5.2680 C.ar      1 1OB402      0.0000 
      2 C2        -18.5000  -36.9440    5.4710 C.ar      1 1OB402      0.0000 
      3 C3        -19.8300  -37.3080    5.7080 C.ar      1 1OB402      0.0000 
      4 C4        -20.8230  -36.3230    5.7260 C.ar      1 1OB402      0.0000 
      5 C5        -20.4750  -34.9980    5.5140 C.ar      1 1OB402      0.0000 
      6 C6        -19.1570  -34.6410    5.2790 C.ar      1 1OB402      0.0000 
      7 C7        -18.7850  -33.1960    5.0640 C.3       1 1OB402      0.0000 
      8 C8        -18.1040  -32.9240    3.7450 C.2       1 1OB402      0.0000 
      9 C9        -17.2830  -31.8040    3.6440 C.2       1 1OB402      0.0000 
     10 C10       -16.6640  -31.5480    2.4510 C.2       1 1OB402      0.0000 
     11 N11       -16.8720  -32.3630    1.3890 N.pl3     1 1OB402      0.0000 
     12 C12       -17.6910  -33.4380    1.5310 C.2       1 1OB402      0.0000 
     13 N13       -18.2920  -33.7070    2.6940 N.2       1 1OB402      0.0000 
     14 C14       -17.7000  -34.0760    0.2850 C.2       1 1OB402      0.0000 
     15 C15       -16.8830  -33.3420   -0.5850 C.2       1 1OB402      0.0000 
     16 N16       -16.3850  -32.3330    0.0780 N.2       1 1OB402      0.0000 
     17 C17       -18.4850  -35.2510   -0.0380 C.2       1 1OB402      0.0000 
     18 O18       -18.4420  -35.6960   -1.1710 O.2       1 1OB402      0.0000 
     19 N19       -19.2610  -35.7310    0.9630 N.am      1 1OB402      0.0000 
     20 C20       -20.1380  -36.8230    0.9390 C.ar      1 1OB402      0.0000 
     21 C21       -20.6640  -37.2430    2.1570 C.ar      1 1OB402      0.0000 
     22 C22       -21.5390  -38.3100    2.2120 C.ar      1 1OB402      0.0000 
     23 C23       -21.8950  -38.9580    1.0410 C.ar      1 1OB402      0.0000 
     24 C24       -21.3790  -38.5500   -0.1760 C.ar      1 1OB402      0.0000 
     25 C25       -20.5070  -37.4770   -0.2310 C.ar      1 1OB402      0.0000 
     26 F26       -22.7450  -40.0030    1.0830 F         1 1OB402      0.0000 
     27 O27       -15.8660  -30.4810    2.2770 O.3       1 1OB402      0.0000 
     28 C28       -20.1680  -38.6770    5.9250 C.1       1 1OB402      0.0000 
     29 N29       -20.4280  -39.7680    6.0960 N.1       1 1OB402      0.0000 
     30 H         -17.1883  -35.3460    5.1073 H         1 1OB402      0.0000 
     31 H         -17.7710  -37.6671    5.4488 H         1 1OB402      0.0000 
     32 H         -21.7988  -36.5847    5.8951 H         1 1OB402      0.0000 
     33 H         -21.2080  -34.2676    5.5315 H         1 1OB402      0.0000 
     34 H         -18.1213  -32.8670    5.8870 H         1 1OB402      0.0000 
     35 H         -19.6979  -32.5732    5.1336 H         1 1OB402      0.0000 
     36 H         -17.1523  -31.1912    4.4526 H         1 1OB402      0.0000 
     37 H         -16.7473  -33.5861   -1.5072 H         1 1OB402      0.0000 
     38 H         -19.2079  -35.2094    1.9219 H         1 1OB402      0.0000 
     39 H         -20.3950  -36.7497    3.0241 H         1 1OB402      0.0000 
     40 H         -21.9230  -38.6213    3.1117 H         1 1OB402      0.0000 
     41 H         -21.6435  -39.0442   -1.0402 H         1 1OB402      0.0000 
     42 H         -20.1307  -37.1614   -1.1350 H         1 1OB402      0.0000 
     43 H         -14.9355  -30.8461    2.3080 H         1 1OB402      0.0000 
@<TRIPOS>BOND
     1    2    1 ar   
     2    6    1 ar   
     3   30    1 1    
     4    3    2 ar   
     5   31    2 1    
     6    4    3 ar   
     7   28    3 1    
     8    5    4 ar   
     9   32    4 1    
    10    6    5 ar   
    11   33    5 1    
    12    7    6 1    
    13    8    7 1    
    14   34    7 1    
    15   35    7 1    
    16    9    8 1    
    17   13    8 2    
    18   10    9 2    
    19   36    9 1    
    20   11   10 1    
    21   27   10 1    
    22   12   11 1    
    23   16   11 1    
    24   13   12 1    
    25   14   12 2    
    26   15   14 1    
    27   17   14 1    
    28   16   15 2    
    29   37   15 1    
    30   18   17 2    
    31   19   17 am   
    32   20   19 1    
    33   38   19 1    
    34   21   20 ar   
    35   25   20 ar   
    36   22   21 ar   
    37   39   21 1    
    38   23   22 ar   
    39   40   22 1    
    40   24   23 ar   
    41   26   23 1    
    42   25   24 ar   
    43   41   24 1    
    44   42   25 1    
    45   43   27 1    
    46   29   28 3    
@<TRIPOS>SUBSTRUCTURE
     1 1OB402      1 GROUP   
@<TRIPOS>SET

