#    Name: 3ebh_BES_1_INTS_M
#    Modification time : Tue Mar 25 01:22:58 2014

@<TRIPOS>MOLECULE
3ebh_BES_1_INTS_M
   73     0    15     0     0
SMALL
NO_CHARGES


@<TRIPOS>ATOM
      1 OD1        10.5340   13.3455   13.0395 O.co2     3 ASC3        0.0000 
      2 OD1        11.3060   12.6890   12.1390 O.co2    13 ASL3        0.0000 
      3 OD1         9.7620   14.0020   13.9400 O.co2     8 ASP3        0.0000 
      4 OD1         9.7480   12.6075   13.2200 O.co2     3 ASC3        0.0000 
      5 OD1         8.1900   12.5260   14.3010 O.co2     8 ASP3        0.0000 
      6 OD1        11.3995   13.8715   11.4030 O.co2     3 ASC3        0.0000 
      7 OD1        11.4930   15.0540   10.6670 O.co2     8 ASP3        0.0000 
      8 OD1        10.3200   13.7335   11.2680 O.co2     3 ASC3        0.0000 
      9 OD1         9.3340   14.7780   10.3970 O.co2     8 ASP3        0.0000 
     10 OD1        10.4995   11.6835   11.5180 O.co2     3 ASC3        0.0000 
     11 OD1         9.6930   10.6780   10.8970 O.co2     8 ASP3        0.0000 
     12 O          10.5340   13.3455   13.0395 O.2       1 ALC1        0.0000 
     13 O          11.3060   12.6890   12.1390 O.2      11 ALL1        0.0000 
     14 O           9.7620   14.0020   13.9400 O.2       6 ALP1        0.0000 
     15 O          11.3995   13.8715   11.4030 O.2       1 ALC1        0.0000 
     16 O          11.4930   15.0540   10.6670 O.2       6 ALP1        0.0000 
     17 O          10.3200   13.7335   11.2680 O.2       1 ALC1        0.0000 
     18 O           9.3340   14.7780   10.3970 O.2       6 ALP1        0.0000 
     19 O          10.4995   11.6835   11.5180 O.2       1 ALC1        0.0000 
     20 O           9.6930   10.6780   10.8970 O.2       6 ALP1        0.0000 
     21 CA         15.0640   10.0090   16.6620 C.3       5 GLC5        0.0000 
     22 CA         13.2190   10.0330   16.3650 C.3      15 GLL5        0.0000 
     23 CA         16.9090    9.9850   16.9590 C.3      10 GLP5        0.0000 
     24 CA         13.6795   11.7415    8.9900 C.3       5 GLC5        0.0000 
     25 CA         13.5130   12.1940   11.1330 C.3      15 GLL5        0.0000 
     26 CA         13.8460   11.2890    6.8470 C.3      10 GLP5        0.0000 
     27 Zn         12.3450   11.7565    9.4290 Zn        4 ZIC7        0.0000 
     28 Zn         12.8050   12.5270    9.9360 Zn       14 ZIL7        0.0000 
     29 Zn         11.8850   10.9860    8.9220 Zn        9 ZIP7        0.0000 
     30 N          13.3995   13.4480    9.3080 N.am      2 SEC2        0.0000 
     31 N          12.8050   12.5270    9.9360 N.am     12 SEL2        0.0000 
     32 N          13.9940   14.3690    8.6800 N.am      7 SEP2        0.0000 
     33 O          12.1490   13.7905   10.3015 O.2       1 ALC1        0.0000 
     34 O          12.8050   12.5270    9.9360 O.2      11 ALL1        0.0000 
     35 Zn         12.7190   10.4560    9.7105 Zn        4 ZIC7        0.0000 
     36 Zn         13.5530    9.9260   10.4990 Zn       14 ZIL7        0.0000 
     37 N          12.8160    9.2605   11.4230 N.am      2 SEC2        0.0000 
     38 N          13.5530    9.9260   10.4990 N.am     12 SEL2        0.0000 
     39 N          12.0790    8.5950   12.3470 N.am      7 SEP2        0.0000 
     40 O          15.7510   12.4560   11.7445 O.2       1 ALC1        0.0000 
     41 O          15.5040   10.8900   11.0810 O.2      11 ALL1        0.0000 
     42 O          15.9980   14.0220   12.4080 O.2       6 ALP1        0.0000 
     43 CA         14.5885    8.4320   10.7595 C.3       5 GLC5        0.0000 
     44 CA         16.3580    9.7220   10.9190 C.3      15 GLL5        0.0000 
     45 CA         12.8190    7.1420   10.6000 C.3      10 GLP5        0.0000 
     46 CA         19.0120   10.4970    8.5515 C.3       5 GLC5        0.0000 
     47 CA         17.1280    9.9220    9.6130 C.3      15 GLL5        0.0000 
     48 CA         20.8960   11.0720    7.4900 C.3      10 GLP5        0.0000 
     49 CA         14.3745    7.4805    9.6620 C.3       5 GLC5        0.0000 
     50 CA         15.9300    7.8190    8.7240 C.3      15 GLL5        0.0000 
     51 CA         19.2075   10.0675    7.3845 C.3       5 GLC5        0.0000 
     52 CA         17.5190    9.0630    7.2790 C.3      15 GLL5        0.0000 
     53 N          18.4920   11.0985   13.2880 N.am      2 SEC2        0.0000 
     54 N          17.4090   10.8100   12.6840 N.am     12 SEL2        0.0000 
     55 N          19.5750   11.3870   13.8920 N.am      7 SEP2        0.0000 
     56 N          18.0325   12.1715   12.4470 N.am      2 SEC2        0.0000 
     57 N          18.6560   13.5330   12.2100 N.am      7 SEP2        0.0000 
     58 CA         12.4895   14.2728   13.4348 C.3       5 GLC5        0.0000 
     59 CA         13.2840   12.6490   13.5710 C.3      15 GLL5        0.0000 
     60 CA         12.0390   16.1990   13.9090 C.3      10 GLP5        0.0000 
     61 CA         12.3253   14.2353   14.6367 C.3       5 GLC5        0.0000 
     62 CA         12.9890   11.9410   14.8790 C.3      15 GLL5        0.0000 
     63 CA         10.8010   13.7703   16.4290 C.3       5 GLC5        0.0000 
     64 CA         12.2340   12.6020   15.8500 C.3      15 GLL5        0.0000 
     65 CA          9.5030   15.2510   16.3980 C.3      10 GLP5        0.0000 
     66 CA         15.0979   11.7988   15.1575 C.3       5 GLC5        0.0000 
     67 CA         16.8830   12.1200   15.6320 C.3      10 GLP5        0.0000 
     68 CA         12.1785    8.5190   16.5495 C.3       5 GLC5        0.0000 
     69 CA         11.5220    6.6740   16.2540 C.3      10 GLP5        0.0000 
     70 CA         13.8585    9.9255   18.3500 C.3       5 GLC5        0.0000 
     71 CA         14.8820    9.4870   19.8550 C.3      10 GLP5        0.0000 
     72 CA         15.8004    9.6723    6.9336 C.3       5 GLC5        0.0000 
     73 CA         14.5610   10.6880    5.8680 C.3      10 GLP5        0.0000 
@<TRIPOS>BOND
@<TRIPOS>SUBSTRUCTURE
     1 ALC1       12 GROUP        1 X    ALC  0     ROOT ALC X 1
     2 SEC2       30 GROUP        1 X    SEC  0     **** SEC X 2
     3 ASC3        1 GROUP        1 X    ASC  0     **** ASC X 3
     4 ZIC7       27 GROUP        1 X    ZIC  0     **** ZIC X 5
     5 GLC5       21 GROUP        1 X    GLC  0     **** GLC X 6
     6 ALP1       14 GROUP        1 Y    ALP  0     ROOT ALP Y 8
     7 SEP2       32 GROUP        1 Y    SEP  0     **** SEP Y 9
     8 ASP3        3 GROUP        1 Y    ASP  0     **** ASP Y 10
     9 ZIP7       29 GROUP        1 Y    ZIP  0     **** ZIP Y 12
    10 GLP5       23 GROUP        1 Y    GLP  0     **** GLP Y 13
    11 ALL1       13 GROUP        1 Z    ALL  0     ROOT ALL Z 15
    12 SEL2       31 GROUP        1 Z    SEL  0     **** SEL Z 16
    13 ASL3        2 GROUP        1 Z    ASL  0     **** ASL Z 17
    14 ZIL7       28 GROUP        1 Z    ZIL  0     **** ZIL Z 19
    15 GLL5       22 GROUP        1 Z    GLL  0     **** GLL Z 20
@<TRIPOS>SET

