#    Name: 3ebh_BES_1_ligand
#    Modification time : Tue Mar 25 01:22:58 2014

@<TRIPOS>MOLECULE
3ebh_BES_1_ligand
   46    46     1     0     0
SMALL
NO_CHARGES


@<TRIPOS>ATOM
      1 N2         11.3060   12.6890   12.1390 N.4       1 BES1085     0.0000 
      2 C1         12.5960   12.0440   12.3500 C.3       1 BES1085     0.0000 
      3 C6         13.2840   12.6490   13.5710 C.3       1 BES1085     0.0000 
      4 C7         12.9890   11.9410   14.8790 C.ar      1 BES1085     0.0000 
      5 C8         12.2340   12.6020   15.8500 C.ar      1 BES1085     0.0000 
      6 C12        13.4890   10.6600   15.1410 C.ar      1 BES1085     0.0000 
      7 C9         11.9640   11.9770   17.0700 C.ar      1 BES1085     0.0000 
      8 C11        13.2190   10.0330   16.3650 C.ar      1 BES1085     0.0000 
      9 C10        12.4510   10.6950   17.3250 C.ar      1 BES1085     0.0000 
     10 C2         13.5130   12.1940   11.1330 C.3       1 BES1085     0.0000 
     11 O2         12.8050   12.5270    9.9360 O.3       1 BES1085     0.0000 
     12 C3         14.1970   10.8890   10.8790 C.2       1 BES1085     0.0000 
     13 O3         13.5530    9.9260   10.4990 O.2       1 BES1085     0.0000 
     14 N1         15.5040   10.8900   11.0810 N.am      1 BES1085     0.0000 
     15 C4         16.3580    9.7220   10.9190 C.3       1 BES1085     0.0000 
     16 C13        17.1280    9.9220    9.6130 C.3       1 BES1085     0.0000 
     17 C14        17.1910    8.6810    8.7150 C.3       1 BES1085     0.0000 
     18 C15        15.9300    7.8190    8.7240 C.3       1 BES1085     0.0000 
     19 C16        17.5190    9.0630    7.2790 C.3       1 BES1085     0.0000 
     20 C5         17.2760    9.7200   12.1000 C.2       1 BES1085     0.0000 
     21 O1         17.8430    8.6680   12.4740 O.co2     1 BES1085     0.0000 
     22 O4         17.4090   10.8100   12.6840 O.co2     1 BES1085     0.0000 
     23 H          12.4639   10.9837   12.5404 H         1 BES1085     0.0000 
     24 H          12.9824   13.7104   13.6581 H         1 BES1085     0.0000 
     25 H          14.3773   12.6489   13.3982 H         1 BES1085     0.0000 
     26 H          11.8773   13.5468   15.6679 H         1 BES1085     0.0000 
     27 H          14.0559   10.1772   14.4341 H         1 BES1085     0.0000 
     28 H          11.4045   12.4644   17.7815 H         1 BES1085     0.0000 
     29 H          13.5835    9.0957   16.5518 H         1 BES1085     0.0000 
     30 H          12.2445   10.2363   18.2210 H         1 BES1085     0.0000 
     31 H          14.2676   12.9288   11.3596 H         1 BES1085     0.0000 
     32 H          16.0128   11.7702   11.3810 H         1 BES1085     0.0000 
     33 H          15.7927    8.8426   10.8764 H         1 BES1085     0.0000 
     34 H          18.1581   10.2410    9.8503 H         1 BES1085     0.0000 
     35 H          16.6624   10.7471    9.0460 H         1 BES1085     0.0000 
     36 H          18.0265    8.0483    9.0714 H         1 BES1085     0.0000 
     37 H          11.3830   13.4865   11.5406 H         1 BES1085     0.0000 
     38 H          10.6452   12.0685   11.7168 H         1 BES1085     0.0000 
     39 H          10.9038   13.0051   12.9982 H         1 BES1085     0.0000 
     40 H          16.0205    7.0222    8.1265 H         1 BES1085     0.0000 
     41 H          15.7209    7.4763    9.6399 H         1 BES1085     0.0000 
     42 H          15.1288    8.3297    8.4122 H         1 BES1085     0.0000 
     43 H          18.4029    9.5256    7.2104 H         1 BES1085     0.0000 
     44 H          17.5603    8.2620    6.6818 H         1 BES1085     0.0000 
     45 H          16.8340    9.6811    6.8934 H         1 BES1085     0.0000 
     46 H          12.1552   13.2365   10.2086 H         1 BES1085     0.0000 
@<TRIPOS>BOND
     1    2    1 1    
     2   37    1 1    
     3   38    1 1    
     4   39    1 1    
     5    3    2 1    
     6   10    2 1    
     7   23    2 1    
     8    4    3 1    
     9   24    3 1    
    10   25    3 1    
    11    5    4 ar   
    12    6    4 ar   
    13    7    5 ar   
    14   26    5 1    
    15    8    6 ar   
    16   27    6 1    
    17    9    7 ar   
    18   28    7 1    
    19    9    8 ar   
    20   29    8 1    
    21   30    9 1    
    22   11   10 1    
    23   12   10 1    
    24   31   10 1    
    25   46   11 1    
    26   13   12 2    
    27   14   12 am   
    28   15   14 1    
    29   32   14 1    
    30   16   15 1    
    31   20   15 1    
    32   33   15 1    
    33   17   16 1    
    34   34   16 1    
    35   35   16 1    
    36   18   17 1    
    37   19   17 1    
    38   36   17 1    
    39   40   18 1    
    40   41   18 1    
    41   42   18 1    
    42   43   19 1    
    43   44   19 1    
    44   45   19 1    
    45   21   20 ar   
    46   22   20 ar   
@<TRIPOS>SUBSTRUCTURE
     1 BES1085     1 GROUP   
@<TRIPOS>SET

