#    Name: 4ead_0NP_1_INTS_M
#    Modification time : Mon Apr  7 23:29:20 2014

@<TRIPOS>MOLECULE
4ead_0NP_1_INTS_M
   30     0     9     0     0
SMALL
NO_CHARGES


@<TRIPOS>ATOM
      1 N          28.3610  -14.6265   -5.0515 N.am      2 SEC2        0.0000 
      2 N          29.3560  -14.5070   -3.8390 N.am      8 SEL2        0.0000 
      3 N          27.3660  -14.7460   -6.2640 N.am      5 SEP2        0.0000 
      4 N          28.6785  -15.6480   -4.6335 N.am      2 SEC2        0.0000 
      5 N          28.0010  -16.7890   -5.4280 N.am      5 SEP2        0.0000 
      6 CA         30.8895   -8.4795   -5.8820 C.3       3 GLC5        0.0000 
      7 CA         31.3370   -9.9350   -4.7200 C.3       9 GLL5        0.0000 
      8 CA         30.4420   -7.0240   -7.0440 C.3       6 GLP5        0.0000 
      9 CA         28.7730  -10.9700   -2.5340 C.3       3 GLC5        0.0000 
     10 CA         30.5240  -10.7230   -2.6480 C.3       9 GLL5        0.0000 
     11 CA         27.0220  -11.2170   -2.4200 C.3       6 GLP5        0.0000 
     12 CA         29.7305  -11.0170   -1.0200 C.3       3 GLC5        0.0000 
     13 CA         28.9370  -11.3110    0.6080 C.3       6 GLP5        0.0000 
     14 CA         31.4050  -14.0335   -5.5985 C.3       3 GLC5        0.0000 
     15 CA         30.8260  -12.2490   -4.4550 C.3       9 GLL5        0.0000 
     16 CA         31.9840  -15.8180   -6.7420 C.3       6 GLP5        0.0000 
     17 CA         30.2110  -12.4280   -6.5175 C.3       3 GLC5        0.0000 
     18 CA         29.5960  -12.6070   -8.5800 C.3       6 GLP5        0.0000 
     19 CA         28.9240  -11.7330   -3.4375 C.3       3 GLC5        0.0000 
     20 O          30.2555  -16.6355   -2.6610 O.2       1 ALC1        0.0000 
     21 O          31.1130  -15.7210   -3.1820 O.2       7 ALL1        0.0000 
     22 O          29.3980  -17.5500   -2.1400 O.2       4 ALP1        0.0000 
     23 CA         34.7207  -13.9232   -4.2257 C.3       3 GLC5        0.0000 
     24 CA         33.2660  -14.7520   -3.2560 C.3       9 GLL5        0.0000 
     25 CA         36.4450  -13.6840   -4.9510 C.3       6 GLP5        0.0000 
     26 CA         32.4903  -14.9902   -5.1212 C.3       3 GLC5        0.0000 
     27 CA         30.9008  -11.5903   -7.4530 C.3       3 GLC5        0.0000 
     28 CA         31.5030  -10.6580   -6.0440 C.3       9 GLL5        0.0000 
     29 CA         31.7238   -9.0862   -7.1750 C.3       3 GLC5        0.0000 
     30 CA         31.2420   -7.5990   -8.0240 C.3       6 GLP5        0.0000 
@<TRIPOS>BOND
@<TRIPOS>SUBSTRUCTURE
     1 ALC1       20 GROUP        1 X    ALC  0     ROOT ALC X 1
     2 SEC2        1 GROUP        1 X    SEC  0     **** SEC X 2
     3 GLC5        6 GROUP        1 X    GLC  0     **** GLC X 6
     4 ALP1       22 GROUP        1 Y    ALP  0     ROOT ALP Y 8
     5 SEP2        3 GROUP        1 Y    SEP  0     **** SEP Y 9
     6 GLP5        8 GROUP        1 Y    GLP  0     **** GLP Y 13
     7 ALL1       21 GROUP        1 Z    ALL  0     ROOT ALL Z 15
     8 SEL2        2 GROUP        1 Z    SEL  0     **** SEL Z 16
     9 GLL5        7 GROUP        1 Z    GLL  0     **** GLL Z 20
@<TRIPOS>SET

