#    Name: 4ead_0NP_1_ligand
#    Modification time : Mon Apr  7 23:29:21 2014

@<TRIPOS>MOLECULE
4ead_0NP_1_ligand
   29    30     1     0     0
SMALL
NO_CHARGES


@<TRIPOS>ATOM
      1 C2         30.5850  -14.5900   -3.6540 C.2       1 0NP501      0.0000 
      2 O2         29.3560  -14.5070   -3.8390 O.2       1 0NP501      0.0000 
      3 C6         32.7270  -13.5730   -3.7450 C.2       1 0NP501      0.0000 
      4 N19        29.1070   -7.5610   -3.3290 N.2       1 0NP501      0.0000 
      5 N18        29.5400   -8.5110   -4.0300 N.1       1 0NP501      0.0000 
      6 N3'        29.9580   -9.4800   -4.7570 N.2       1 0NP501      0.0000 
      7 C3'        31.3370   -9.9350   -4.7200 C.3       1 0NP501      0.0000 
      8 C4'        31.5030  -10.6580   -6.0440 C.3       1 0NP501      0.0000 
      9 C5'        32.9080  -10.4890   -6.6080 C.3       1 0NP501      0.0000 
     10 O5'        33.8740  -10.6950   -5.5750 O.3       1 0NP501      0.0000 
     11 O4'        31.2290  -12.0440   -5.8060 O.3       1 0NP501      0.0000 
     12 C2'        31.3400  -11.0400   -3.6920 C.3       1 0NP501      0.0000 
     13 F2'        30.5240  -10.7230   -2.6480 F         1 0NP501      0.0000 
     14 C1'        30.8260  -12.2490   -4.4550 C.3       1 0NP501      0.0000 
     15 N1         31.4120  -13.4850   -3.9410 N.am      1 0NP501      0.0000 
     16 N3         31.1130  -15.7210   -3.1820 N.am      1 0NP501      0.0000 
     17 C5         33.2660  -14.7520   -3.2560 C.2       1 0NP501      0.0000 
     18 C4         32.4300  -15.8240   -2.9780 C.2       1 0NP501      0.0000 
     19 O4         32.9120  -16.8850   -2.5350 O.2       1 0NP501      0.0000 
     20 H          33.3614  -12.7804   -3.9490 H         1 0NP501      0.0000 
     21 H          32.0159   -9.2427   -4.5657 H         1 0NP501      0.0000 
     22 H          30.7937  -10.2471   -6.7448 H         1 0NP501      0.0000 
     23 H          32.9804   -9.4812   -7.0350 H         1 0NP501      0.0000 
     24 H          33.0309  -11.2086   -7.4267 H         1 0NP501      0.0000 
     25 H          32.3582  -11.2337   -3.4263 H         1 0NP501      0.0000 
     26 H          29.7600  -12.2635   -4.3744 H         1 0NP501      0.0000 
     27 H          30.4886  -16.5386   -2.9684 H         1 0NP501      0.0000 
     28 H          34.2776  -14.8329   -3.1000 H         1 0NP501      0.0000 
     29 H          34.5797  -10.0059   -5.7396 H         1 0NP501      0.0000 
@<TRIPOS>BOND
     1    2    1 2    
     2   15    1 am   
     3   16    1 am   
     4   15    3 1    
     5   17    3 2    
     6   20    3 1    
     7    5    4 2    
     8    6    5 2    
     9    7    6 1    
    10    8    7 1    
    11   12    7 1    
    12   21    7 1    
    13    9    8 1    
    14   11    8 1    
    15   22    8 1    
    16   10    9 1    
    17   23    9 1    
    18   24    9 1    
    19   29   10 1    
    20   14   11 1    
    21   13   12 1    
    22   14   12 1    
    23   25   12 1    
    24   15   14 1    
    25   26   14 1    
    26   18   16 am   
    27   27   16 1    
    28   18   17 1    
    29   28   17 1    
    30   19   18 2    
@<TRIPOS>SUBSTRUCTURE
     1 0NP501      1 GROUP   
@<TRIPOS>SET

