#    Name: 1jnk_ANP_1_INTS_M
#    Modification time : Tue Mar 25 09:07:38 2014

@<TRIPOS>MOLECULE
1jnk_ANP_1_INTS_M
   74     0    15     0     0
SMALL
NO_CHARGES


@<TRIPOS>ATOM
      1 NZ         22.8220   18.5095   25.5985 N.4       3 LYC4        0.0000 
      2 NZ         22.8350   17.5870   27.1980 N.4      13 LYL4        0.0000 
      3 NZ         22.8090   19.4320   23.9990 N.4       8 LYP4        0.0000 
      4 Zn         22.8475   16.6410   27.4625 Zn        4 ZIC7        0.0000 
      5 Zn         22.8350   17.5870   27.1980 Zn       14 ZIL7        0.0000 
      6 Zn         22.8600   15.6950   27.7270 Zn        9 ZIP7        0.0000 
      7 N          25.1420   18.7290   31.5950 N.am      2 SEC2        0.0000 
      8 N          23.9840   18.0460   31.8640 N.am     12 SEL2        0.0000 
      9 N          26.3000   19.4120   31.3260 N.am      7 SEP2        0.0000 
     10 N          24.3885   19.3745   32.4895 N.am      2 SEC2        0.0000 
     11 N          24.7930   20.7030   33.1150 N.am      7 SEP2        0.0000 
     12 NZ         20.8265   17.3355   32.3720 N.4       3 LYC4        0.0000 
     13 NZ         21.5580   17.6540   31.0950 N.4      13 LYL4        0.0000 
     14 NZ         20.0950   17.0170   33.6490 N.4       8 LYP4        0.0000 
     15 Zn         21.0295   17.3130   30.1455 Zn        4 ZIC7        0.0000 
     16 Zn         21.5580   17.6540   31.0950 Zn       14 ZIL7        0.0000 
     17 Zn         20.5010   16.9720   29.1960 Zn        9 ZIP7        0.0000 
     18 N          20.8265   17.3355   32.3720 N.am      2 SEC2        0.0000 
     19 N          21.5580   17.6540   31.0950 N.am     12 SEL2        0.0000 
     20 N          20.0950   17.0170   33.6490 N.am      7 SEP2        0.0000 
     21 NZ         20.5320   15.7415   32.7360 N.4       3 LYC4        0.0000 
     22 NZ         20.9690   14.4660   31.8230 N.4      13 LYL4        0.0000 
     23 Zn         21.1275   15.8555   29.4695 Zn        4 ZIC7        0.0000 
     24 Zn         21.7540   14.7390   29.7430 Zn       14 ZIL7        0.0000 
     25 Zn         22.3070   15.2170   28.7350 Zn        4 ZIC7        0.0000 
     26 CA         23.9175   12.7830   32.6045 C.3       5 GLC5        0.0000 
     27 CA         24.3210   13.0450   30.5570 C.3      15 GLL5        0.0000 
     28 CA         23.5140   12.5210   34.6520 C.3      10 GLP5        0.0000 
     29 N          24.4805   10.2680   26.8905 N.am      2 SEC2        0.0000 
     30 N          23.9980   11.1370   27.8740 N.am     12 SEL2        0.0000 
     31 N          24.9630    9.3990   25.9070 N.am      7 SEP2        0.0000 
     32 O          22.9390   11.5550   27.1045 O.2       1 ALC1        0.0000 
     33 O          23.9980   11.1370   27.8740 O.2      11 ALL1        0.0000 
     34 O          21.8800   11.9730   26.3350 O.2       6 ALP1        0.0000 
     35 CA         21.3065    8.7860   29.0120 C.3       5 GLC5        0.0000 
     36 CA         23.1350    9.6320   29.5370 C.3      15 GLL5        0.0000 
     37 CA         19.4780    7.9400   28.4870 C.3      10 GLP5        0.0000 
     38 CA         25.1385    9.9990   31.9180 C.3       5 GLC5        0.0000 
     39 CA         23.2060    9.7470   31.0790 C.3      15 GLL5        0.0000 
     40 CA         27.0710   10.2510   32.7570 C.3      10 GLP5        0.0000 
     41 CA         19.1380   10.0340   34.1850 C.3       5 GLC5        0.0000 
     42 CA         20.0470    8.8480   32.6060 C.3      15 GLL5        0.0000 
     43 CA         18.2290   11.2200   35.7640 C.3      10 GLP5        0.0000 
     44 CA         17.9360    6.3145   31.8355 C.3       5 GLC5        0.0000 
     45 CA         19.1890    7.7950   32.9490 C.3      15 GLL5        0.0000 
     46 CA         16.6830    4.8340   30.7220 C.3      10 GLP5        0.0000 
     47 O          17.0715    6.9920   34.2030 O.2       1 ALC1        0.0000 
     48 O          17.9320    8.0330   33.5180 O.2      11 ALL1        0.0000 
     49 O          16.2110    5.9510   34.8880 O.2       6 ALP1        0.0000 
     50 N          18.9555    5.0635   32.8210 N.am      2 SEC2        0.0000 
     51 N          19.5880    6.5170   32.7770 N.am     12 SEL2        0.0000 
     52 N          18.3230    3.6100   32.8650 N.am      7 SEP2        0.0000 
     53 CA         22.2160    6.3865   33.5755 C.3       5 GLC5        0.0000 
     54 CA         20.7860    6.1870   32.3010 C.3      15 GLL5        0.0000 
     55 CA         23.6460    6.5860   34.8500 C.3      10 GLP5        0.0000 
     56 CA         20.8760    5.1185   33.9405 C.3       5 GLC5        0.0000 
     57 CA         20.9660    4.0500   35.5800 C.3      10 GLP5        0.0000 
     58 CA         19.4130    5.1870   31.4080 C.3       5 GLC5        0.0000 
     59 CA         18.0400    4.1870   30.5150 C.3      10 GLP5        0.0000 
     60 CA         20.1320    7.0635   30.3940 C.3       5 GLC5        0.0000 
     61 CA         22.4965    7.4965   33.4750 C.3       5 GLC5        0.0000 
     62 CA         21.3470    8.4070   32.1000 C.3      15 GLL5        0.0000 
     63 CA         25.7203   11.2715   31.5875 C.3       5 GLC5        0.0000 
     64 CA         24.4180   11.5390   30.2790 C.3      15 GLL5        0.0000 
     65 CA         21.2995   11.1092   29.3747 C.3       5 GLC5        0.0000 
     66 CA         23.3990   11.1090   29.1800 C.3      15 GLL5        0.0000 
     67 CA         19.3320   11.8480   29.3910 C.3      10 GLP5        0.0000 
     68 CA         21.6960    9.5018   33.9905 C.3       5 GLC5        0.0000 
     69 CA         22.6950   10.3760   35.6280 C.3      10 GLP5        0.0000 
     70 CA         19.6395    7.8617   34.6838 C.3       5 GLC5        0.0000 
     71 CA         19.6610    7.4020   36.5900 C.3      10 GLP5        0.0000 
     72 CA         18.4675    9.5587   31.6062 C.3       5 GLC5        0.0000 
     73 CA         17.3170   10.7960   30.4350 C.3      10 GLP5        0.0000 
     74 CA         19.9803    8.1521   30.4629 C.3       5 GLC5        0.0000 
@<TRIPOS>BOND
@<TRIPOS>SUBSTRUCTURE
     1 ALC1       32 GROUP        1 X    ALC  0     ROOT ALC X 1
     2 SEC2        7 GROUP        1 X    SEC  0     **** SEC X 2
     3 LYC4        1 GROUP        1 X    LYC  0     **** LYC X 4
     4 ZIC7        4 GROUP        1 X    ZIC  0     **** ZIC X 5
     5 GLC5       26 GROUP        1 X    GLC  0     **** GLC X 6
     6 ALP1       34 GROUP        1 Y    ALP  0     ROOT ALP Y 8
     7 SEP2        9 GROUP        1 Y    SEP  0     **** SEP Y 9
     8 LYP4        3 GROUP        1 Y    LYP  0     **** LYP Y 11
     9 ZIP7        6 GROUP        1 Y    ZIP  0     **** ZIP Y 12
    10 GLP5       28 GROUP        1 Y    GLP  0     **** GLP Y 13
    11 ALL1       33 GROUP        1 Z    ALL  0     ROOT ALL Z 15
    12 SEL2        8 GROUP        1 Z    SEL  0     **** SEL Z 16
    13 LYL4        2 GROUP        1 Z    LYL  0     **** LYL Z 18
    14 ZIL7        5 GROUP        1 Z    ZIL  0     **** ZIL Z 19
    15 GLL5       27 GROUP        1 Z    GLL  0     **** GLL Z 20
@<TRIPOS>SET

