#    Name: 1jnk_ANP_1_ligand
#    Modification time : Tue Mar 25 09:07:38 2014

@<TRIPOS>MOLECULE
1jnk_ANP_1_ligand
   43    45     1     0     0
SMALL
NO_CHARGES


@<TRIPOS>ATOM
      1 PG         23.8080   17.9530   28.3500 P.3       1 ANP1001     0.0000 
      2 O1G        25.3210   17.8220   27.9600 O.co2     1 ANP1001     0.0000 
      3 O2G        22.8350   17.5870   27.1980 O.co2     1 ANP1001     0.0000 
      4 O3G        23.6380   19.4690   28.7500 O.co2     1 ANP1001     0.0000 
      5 PB         23.0320   17.1720   31.0150 P.3       1 ANP1001     0.0000 
      6 O1B        23.9840   18.0460   31.8640 O.co2     1 ANP1001     0.0000 
      7 O2B        21.5580   17.6540   31.0950 O.co2     1 ANP1001     0.0000 
      8 N3B        23.5100   16.9960   29.5340 N.4       1 ANP1001     0.0000 
      9 PA         22.2960   14.5840   31.1430 P.3       1 ANP1001     0.0000 
     10 O1A        20.9690   14.4660   31.8230 O.co2     1 ANP1001     0.0000 
     11 O2A        21.7540   14.7390   29.7430 O.co2     1 ANP1001     0.0000 
     12 O3A        23.2080   15.7510   31.6490 O.3       1 ANP1001     0.0000 
     13 O5'        23.1170   13.3030   31.3210 O.3       1 ANP1001     0.0000 
     14 C5'        24.3210   13.0450   30.5570 C.3       1 ANP1001     0.0000 
     15 C4'        24.4180   11.5390   30.2790 C.3       1 ANP1001     0.0000 
     16 O4'        24.0900   10.7830   31.4640 O.3       1 ANP1001     0.0000 
     17 C3'        23.3990   11.1090   29.1800 C.3       1 ANP1001     0.0000 
     18 O3'        23.9980   11.1370   27.8740 O.3       1 ANP1001     0.0000 
     19 C2'        23.1350    9.6320   29.5370 C.3       1 ANP1001     0.0000 
     20 O2'        24.2240    8.8020   29.0630 O.3       1 ANP1001     0.0000 
     21 C1'        23.2060    9.7470   31.0790 C.3       1 ANP1001     0.0000 
     22 N9         22.0070    9.6110   31.8440 N.pl3     1 ANP1001     0.0000 
     23 C8         21.2170   10.6870   32.1550 C.2       1 ANP1001     0.0000 
     24 N7         20.0240   10.2350   32.6130 N.2       1 ANP1001     0.0000 
     25 C5         20.0470    8.8480   32.6060 C.ar      1 ANP1001     0.0000 
     26 C6         19.1890    7.7950   32.9490 C.ar      1 ANP1001     0.0000 
     27 N6         17.9320    8.0330   33.5180 N.pl3     1 ANP1001     0.0000 
     28 N1         19.5880    6.5170   32.7770 N.ar      1 ANP1001     0.0000 
     29 C2         20.7860    6.1870   32.3010 C.ar      1 ANP1001     0.0000 
     30 N3         21.7130    7.0620   31.9490 N.ar      1 ANP1001     0.0000 
     31 C4         21.3470    8.4070   32.1000 C.ar      1 ANP1001     0.0000 
     32 H          25.2130   13.3446   31.1053 H         1 ANP1001     0.0000 
     33 H          24.3046   13.5640   29.5997 H         1 ANP1001     0.0000 
     34 H          25.3966   11.3025   29.9257 H         1 ANP1001     0.0000 
     35 H          22.5279   11.6443   29.2858 H         1 ANP1001     0.0000 
     36 H          22.1965    9.3684   29.2564 H         1 ANP1001     0.0000 
     37 H          23.8410    8.7477   31.3382 H         1 ANP1001     0.0000 
     38 H          21.4752   11.6097   32.0605 H         1 ANP1001     0.0000 
     39 H          17.6879    8.9923   33.6604 H         1 ANP1001     0.0000 
     40 H          17.3860    7.2233   33.7332 H         1 ANP1001     0.0000 
     41 H          21.0122    5.1381   32.1969 H         1 ANP1001     0.0000 
     42 H          23.2638   11.4243   27.2588 H         1 ANP1001     0.0000 
     43 H          24.5667    9.2664   28.2463 H         1 ANP1001     0.0000 
@<TRIPOS>BOND
     1    2    1 ar   
     2    3    1 ar   
     3    4    1 ar   
     4    8    1 1    
     5    6    5 ar   
     6    7    5 ar   
     7    8    5 1    
     8   12    5 1    
     9   10    9 ar   
    10   11    9 ar   
    11   12    9 1    
    12   13    9 1    
    13   14   13 1    
    14   15   14 1    
    15   32   14 1    
    16   33   14 1    
    17   16   15 1    
    18   17   15 1    
    19   34   15 1    
    20   21   16 1    
    21   18   17 1    
    22   19   17 1    
    23   35   17 1    
    24   42   18 1    
    25   20   19 1    
    26   21   19 1    
    27   36   19 1    
    28   43   20 1    
    29   22   21 1    
    30   37   21 1    
    31   23   22 1    
    32   31   22 1    
    33   24   23 2    
    34   38   23 1    
    35   25   24 1    
    36   26   25 ar   
    37   31   25 ar   
    38   27   26 1    
    39   28   26 ar   
    40   39   27 1    
    41   40   27 1    
    42   29   28 ar   
    43   30   29 ar   
    44   41   29 1    
    45   31   30 ar   
@<TRIPOS>SUBSTRUCTURE
     1 ANP1001     1 GROUP   
@<TRIPOS>SET

