#    Name: 2HXM_1_CAVITY_N1_ALL.mol2
#    Modification time : Mon Mar 10 18:05:08 2014

@<TRIPOS>MOLECULE
2HXM_1_CAVITY_N1_ALL.mol2
   97     0     6     0     0
SMALL
NO_CHARGES


@<TRIPOS>ATOM
      1 OG          5.6354   -1.3167    3.2862 O.2       1 SER1        0.0000 
      2 CA          7.0312   -1.3808    2.7407 C.3       5 GLY6        0.0000 
      3 DU          8.4270   -1.4448    2.1952 H         6 CUB7        0.0000 
      4 DU         11.2187   -1.5728    1.1042 H         6 CUB7        0.0000 
      5 OG          5.4801   -2.7917    3.0620 O.2       1 SER1        0.0000 
      6 DU          6.8759   -2.8557    2.5165 H         6 CUB7        0.0000 
      7 DU          6.7206   -4.3307    2.2922 H         6 CUB7        0.0000 
      8 DU          9.5123   -4.4587    1.2012 H         6 CUB7        0.0000 
      9 DU          6.5653   -5.8057    2.0679 H         6 CUB7        0.0000 
     10 N           8.3660    3.2454    1.4889 N.2       2 ALA2        0.0000 
     11 N           8.2108    1.7704    1.2646 N.2       2 ALA2        0.0000 
     12 CA          6.6596    0.3594    1.5858 C.3       5 GLY6        0.0000 
     13 DU          8.0555    0.2954    1.0403 H         6 CUB7        0.0000 
     14 DU          9.4513    0.2314    0.4948 H         6 CUB7        0.0000 
     15 DU         10.8471    0.1674   -0.0507 H         6 CUB7        0.0000 
     16 N          12.2429    0.1034   -0.5962 N.2       2 ALA2        0.0000 
     17 OG          6.5043   -1.1156    1.3616 O.2       1 SER1        0.0000 
     18 DU          7.9002   -1.1796    0.8161 H         6 CUB7        0.0000 
     19 DU         10.6918   -1.3076   -0.2749 H         6 CUB7        0.0000 
     20 CA         12.0877   -1.3716   -0.8204 C.3       5 GLY6        0.0000 
     21 OG          6.3491   -2.5906    1.1373 O.2       1 SER1        0.0000 
     22 DU          7.7449   -2.6546    0.5918 H         6 CUB7        0.0000 
     23 DU          9.1407   -2.7186    0.0463 H         6 CUB7        0.0000 
     24 O          10.5365   -2.7826   -0.4992 O.2       2 ALA2        0.0000 
     25 CA         11.9324   -2.8466   -1.0447 C.3       5 GLY6        0.0000 
     26 OG          4.7979   -4.0015    1.4585 O.2       1 SER1        0.0000 
     27 DU          6.1938   -4.0656    0.9130 H         6 CUB7        0.0000 
     28 DU          7.5896   -4.1296    0.3675 H         6 CUB7        0.0000 
     29 O           8.9854   -4.1936   -0.1780 O.2       2 ALA2        0.0000 
     30 O          10.3812   -4.2576   -0.7235 O.2       2 ALA2        0.0000 
     31 CA          4.6427   -5.4765    1.2342 C.3       5 GLY6        0.0000 
     32 CZ          6.0385   -5.5405    0.6887 C.ar      4 PHE5        0.0000 
     33 CZ          7.4343   -5.6045    0.1432 C.ar      4 PHE5        0.0000 
     34 O           8.8301   -5.6686   -0.4023 O.2       2 ALA2        0.0000 
     35 CA          4.4874   -6.9515    1.0099 C.3       5 GLY6        0.0000 
     36 DU          5.8832   -7.0155    0.4644 H         6 CUB7        0.0000 
     37 N           7.2790   -7.0795   -0.0811 N.2       2 ALA2        0.0000 
     38 O           5.7279   -8.4905    0.2402 O.2       2 ALA2        0.0000 
     39 N           7.1237   -8.5545   -0.3053 N.2       2 ALA2        0.0000 
     40 N           9.2350    3.4465   -0.4358 N.2       2 ALA2        0.0000 
     41 N           9.0797    1.9716   -0.6601 N.2       2 ALA2        0.0000 
     42 N          10.4756    1.9075   -1.2056 N.2       2 ALA2        0.0000 
     43 N           6.1328    0.6246    0.2067 N.2       2 ALA2        0.0000 
     44 N           7.5286    0.5606   -0.3388 N.2       2 ALA2        0.0000 
     45 DU          8.9245    0.4966   -0.8843 H         6 CUB7        0.0000 
     46 CA         10.3203    0.4326   -1.4298 C.3       5 GLY6        0.0000 
     47 CA         11.7161    0.3685   -1.9753 C.3       5 GLY6        0.0000 
     48 OG          5.9775   -0.8504   -0.0176 O.2       1 SER1        0.0000 
     49 DU          7.3733   -0.9144   -0.5631 H         6 CUB7        0.0000 
     50 DU          8.7692   -0.9784   -1.1086 H         6 CUB7        0.0000 
     51 CA         10.1650   -1.0424   -1.6541 C.3       5 GLY6        0.0000 
     52 CA         11.5608   -1.1064   -2.1996 C.3       5 GLY6        0.0000 
     53 OG          5.8222   -2.3254   -0.2419 O.2       1 SER1        0.0000 
     54 DU          7.2181   -2.3894   -0.7874 H         6 CUB7        0.0000 
     55 DU          8.6139   -2.4534   -1.3329 H         6 CUB7        0.0000 
     56 N          10.0097   -2.5174   -1.8784 N.2       2 ALA2        0.0000 
     57 NZ         11.4055   -2.5814   -2.4239 N.2       3 LYS4        0.0000 
     58 CZ          4.2711   -3.7364    0.0793 C.ar      4 PHE5        0.0000 
     59 CZ          5.6669   -3.8004   -0.4662 C.ar      4 PHE5        0.0000 
     60 CZ          7.0628   -3.8644   -1.0117 C.ar      4 PHE5        0.0000 
     61 CZ          8.4586   -3.9284   -1.5572 C.ar      4 PHE5        0.0000 
     62 O           9.8544   -3.9924   -2.1027 O.2       2 ALA2        0.0000 
     63 CZ          5.5116   -5.2754   -0.6905 C.ar      4 PHE5        0.0000 
     64 CZ          6.9075   -5.3394   -1.2360 C.ar      4 PHE5        0.0000 
     65 CZ          8.3033   -5.4034   -1.7815 C.ar      4 PHE5        0.0000 
     66 CZ          5.3564   -6.7503   -0.9147 C.ar      4 PHE5        0.0000 
     67 CZ          6.7522   -6.8144   -1.4602 C.ar      4 PHE5        0.0000 
     68 CA          8.7082    3.7117   -1.8150 C.3       5 GLY6        0.0000 
     69 CA          8.5529    2.2367   -2.0392 C.3       5 GLY6        0.0000 
     70 CZ          5.6060    0.8898   -1.1725 C.ar      4 PHE5        0.0000 
     71 N           7.0018    0.8258   -1.7180 N.2       2 ALA2        0.0000 
     72 N           8.3976    0.7617   -2.2635 N.2       2 ALA2        0.0000 
     73 O           9.7934    0.6977   -2.8090 O.2       2 ALA2        0.0000 
     74 CZ          5.4507   -0.5852   -1.3968 C.ar      4 PHE5        0.0000 
     75 DU          6.8465   -0.6492   -1.9423 H         6 CUB7        0.0000 
     76 N           8.2423   -0.7132   -2.4878 N.2       2 ALA2        0.0000 
     77 N           9.6382   -0.7773   -3.0333 N.2       2 ALA2        0.0000 
     78 CZ          5.2954   -2.0602   -1.6211 C.ar      4 PHE5        0.0000 
     79 CZ          6.6912   -2.1242   -2.1666 C.ar      4 PHE5        0.0000 
     80 N           8.0870   -2.1882   -2.7121 N.2       2 ALA2        0.0000 
     81 N           9.4829   -2.2522   -3.2576 N.2       2 ALA2        0.0000 
     82 CA          7.9318   -3.6632   -2.9364 C.3       5 GLY6        0.0000 
     83 N           6.7855    4.0409   -2.6486 N.2       2 ALA2        0.0000 
     84 O           8.1814    3.9769   -3.1941 O.2       2 ALA2        0.0000 
     85 N           6.6303    2.5659   -2.8729 N.2       2 ALA2        0.0000 
     86 O           8.0261    2.5019   -3.4184 O.2       2 ALA2        0.0000 
     87 CZ          6.4750    1.0909   -3.0972 C.ar      4 PHE5        0.0000 
     88 N           7.8708    1.0269   -3.6427 N.2       2 ALA2        0.0000 
     89 CZ          4.9238   -0.3200   -2.7760 C.ar      4 PHE5        0.0000 
     90 N           6.3197   -0.3841   -3.3215 N.2       2 ALA2        0.0000 
     91 CZ          4.7686   -1.7950   -3.0002 C.ar      4 PHE5        0.0000 
     92 CZ          6.1644   -1.8590   -3.5458 C.ar      4 PHE5        0.0000 
     93 CZ          6.1034    2.8311   -4.2521 C.ar      4 PHE5        0.0000 
     94 CZ          5.9481    1.3561   -4.4764 C.ar      4 PHE5        0.0000 
     95 N           7.3440    1.2921   -5.0219 N.2       2 ALA2        0.0000 
     96 N           5.7928   -0.1189   -4.7006 N.2       2 ALA2        0.0000 
     97 O           5.6375   -1.5939   -4.9249 O.2       2 ALA2        0.0000 
@<TRIPOS>BOND
@<TRIPOS>SUBSTRUCTURE
     1 SER1        1 GROUP   
     2 ALA2       10 GROUP   
     3 LYS4       57 GROUP   
     4 PHE5       32 GROUP   
     5 GLY6        2 GROUP   
     6 CUB7        3 GROUP   
@<TRIPOS>SET

