#    Name: 2hxm_302_1_INTS_M
#    Modification time : Tue Mar 25 17:09:12 2014

@<TRIPOS>MOLECULE
2hxm_302_1_INTS_M
   46     0     9     0     0
SMALL
NO_CHARGES


@<TRIPOS>ATOM
      1 CA          4.6930    0.4630   -2.7155 C.3       3 GLC5        0.0000 
      2 CA          6.0650   -0.8490   -3.0280 C.3       9 GLL5        0.0000 
      3 CA          3.3210    1.7750   -2.4030 C.3       6 GLP5        0.0000 
      4 CA          3.8265   -1.2360   -4.9240 C.3       3 GLC5        0.0000 
      5 CA          5.7310   -1.4370   -4.2440 C.3       9 GLL5        0.0000 
      6 CA          1.9220   -1.0350   -5.6040 C.3       6 GLP5        0.0000 
      7 O           6.8915    1.1515   -6.4650 O.2       1 ALC1        0.0000 
      8 O           6.4710    0.5320   -5.3170 O.2       7 ALL1        0.0000 
      9 O           7.3120    1.7710   -7.6130 O.2       4 ALP1        0.0000 
     10 N           8.7870    9.6850    2.4030 N.am      2 SEC2        0.0000 
     11 N           8.8620    8.5650    3.3050 N.am      8 SEL2        0.0000 
     12 N           8.7120   10.8050    1.5010 N.am      5 SEP2        0.0000 
     13 N          10.1990    9.5810    2.8625 N.am      2 SEC2        0.0000 
     14 N          11.5360   10.5970    2.4200 N.am      5 SEP2        0.0000 
     15 N          10.9250    9.3955    2.0705 N.am      2 SEC2        0.0000 
     16 N          10.3140    8.1940    1.7210 N.am      8 SEL2        0.0000 
     17 N          10.4790    9.2040    0.6250 N.am      2 SEC2        0.0000 
     18 N          10.6440   10.2140   -0.4710 N.am      5 SEP2        0.0000 
     19 CA          4.3990   -0.9295    1.2615 C.3       3 GLC5        0.0000 
     20 CA          6.5520   -1.1190    1.6880 C.3       9 GLL5        0.0000 
     21 CA          2.2460   -0.7400    0.8350 C.3       6 GLP5        0.0000 
     22 N           4.2500   -0.8575   -6.5935 N.am      2 SEC2        0.0000 
     23 N           5.6610   -1.1590   -6.5300 N.am      8 SEL2        0.0000 
     24 N           2.8390   -0.5560   -6.6570 N.am      5 SEP2        0.0000 
     25 N           6.5035   -0.6300   -7.6995 N.am      2 SEC2        0.0000 
     26 N           7.3460   -0.1010   -8.8690 N.am      5 SEP2        0.0000 
     27 N           8.0975    3.0530   -4.8755 N.am      2 SEC2        0.0000 
     28 N           7.2970    2.2300   -4.1210 N.am      8 SEL2        0.0000 
     29 N           8.8980    3.8760   -5.6300 N.am      5 SEP2        0.0000 
     30 CA          5.0960   -2.8010   -3.1940 C.3       3 GLC5        0.0000 
     31 CA          4.2940   -4.4590   -2.7520 C.3       6 GLP5        0.0000 
     32 CA          7.1985    6.0835    2.9078 C.3       3 GLC5        0.0000 
     33 CA          9.2320    6.3030    2.6630 C.3       9 GLL5        0.0000 
     34 CA          5.4210    6.1610    2.5710 C.3       6 GLP5        0.0000 
     35 CA          7.8120    4.9365    0.9795 C.3       3 GLC5        0.0000 
     36 CA          9.5340    5.5190    1.5570 C.3       9 GLL5        0.0000 
     37 CA          6.1910    5.0390    0.3730 C.3       6 GLP5        0.0000 
     38 CA          7.0453    5.3485    5.3125 C.3       3 GLC5        0.0000 
     39 CA          8.5090    4.3210    3.8760 C.3       9 GLL5        0.0000 
     40 CA          5.4760    5.6820    6.7740 C.3       6 GLP5        0.0000 
     41 CA          7.1492    4.4905    2.4605 C.3       3 GLC5        0.0000 
     42 CA          5.6330    5.0500    1.6040 C.3       6 GLP5        0.0000 
     43 CA          6.9897    2.6845    3.7640 C.3       3 GLC5        0.0000 
     44 CA          8.8220    3.5410    2.7580 C.3       9 GLL5        0.0000 
     45 CA          5.3140    1.4380    4.2110 C.3       6 GLP5        0.0000 
     46 CA          6.3123    0.1522    2.9962 C.3       3 GLC5        0.0000 
@<TRIPOS>BOND
@<TRIPOS>SUBSTRUCTURE
     1 ALC1        7 GROUP        1 X    ALC  0     ROOT ALC X 1
     2 SEC2       10 GROUP        1 X    SEC  0     **** SEC X 2
     3 GLC5        1 GROUP        1 X    GLC  0     **** GLC X 6
     4 ALP1        9 GROUP        1 Y    ALP  0     ROOT ALP Y 8
     5 SEP2       12 GROUP        1 Y    SEP  0     **** SEP Y 9
     6 GLP5        3 GROUP        1 Y    GLP  0     **** GLP Y 13
     7 ALL1        8 GROUP        1 Z    ALL  0     ROOT ALL Z 15
     8 SEL2       11 GROUP        1 Z    SEL  0     **** SEL Z 16
     9 GLL5        2 GROUP        1 Z    GLL  0     **** GLL Z 20
@<TRIPOS>SET

