#    Name: 2hxm_302_1_ligand
#    Modification time : Tue Mar 25 17:09:12 2014

@<TRIPOS>MOLECULE
2hxm_302_1_ligand
   38    39     1     0     0
SMALL
NO_CHARGES


@<TRIPOS>ATOM
      1 C1          6.0650   -0.8490   -3.0280 C.2       1 302401      0.0000 
      2 C3          6.8020    1.0850   -4.1360 C.2       1 302401      0.0000 
      3 C5          5.9380   -0.7000   -5.4020 C.2       1 302401      0.0000 
      4 C6          5.7310   -1.4370   -4.2440 C.2       1 302401      0.0000 
      5 N2          6.6000    0.3950   -2.9940 N.am      1 302401      0.0000 
      6 N4          6.4710    0.5320   -5.3170 N.am      1 302401      0.0000 
      7 O37         8.8620    8.5650    3.3050 O.co2     1 302401      0.0000 
      8 C35         9.4790    7.7800    2.5630 C.2       1 302401      0.0000 
      9 O36        10.3140    8.1940    1.7210 O.co2     1 302401      0.0000 
     10 C28         9.2320    6.3030    2.6630 C.ar      1 302401      0.0000 
     11 C27         9.5340    5.5190    1.5570 C.ar      1 302401      0.0000 
     12 C26         9.3320    4.1490    1.6150 C.ar      1 302401      0.0000 
     13 C29         8.7200    5.7090    3.8260 C.ar      1 302401      0.0000 
     14 C30         8.5090    4.3210    3.8760 C.ar      1 302401      0.0000 
     15 C24         8.8220    3.5410    2.7580 C.ar      1 302401      0.0000 
     16 C20         8.6970    2.2620    2.6190 C.2       1 302401      0.0000 
     17 N19         8.6400    1.1550    2.1300 N.2       1 302401      0.0000 
     18 O16         8.4600   -0.0520    2.7110 O.3       1 302401      0.0000 
     19 C13         8.0690   -1.1480    1.8750 C.3       1 302401      0.0000 
     20 C12         6.5520   -1.1190    1.6880 C.3       1 302401      0.0000 
     21 O11         6.1440   -1.7410    0.4640 O.3       1 302401      0.0000 
     22 N10         6.2950   -1.0650   -0.6980 N.2       1 302401      0.0000 
     23 C9          5.8720   -1.5810   -1.7650 C.2       1 302401      0.0000 
     24 O7          5.6610   -1.1590   -6.5300 O.2       1 302401      0.0000 
     25 O8          7.2970    2.2300   -4.1210 O.2       1 302401      0.0000 
     26 H           5.3481   -2.3755   -4.2816 H         1 302401      0.0000 
     27 H           6.8573    0.8214   -2.0759 H         1 302401      0.0000 
     28 H           6.6347    1.0822   -6.2043 H         1 302401      0.0000 
     29 H           9.9040    5.9522    0.7036 H         1 302401      0.0000 
     30 H           9.5651    3.5628    0.7906 H         1 302401      0.0000 
     31 H           8.4989    6.2885    4.6422 H         1 302401      0.0000 
     32 H           8.1318    3.8897    4.7191 H         1 302401      0.0000 
     33 H           8.4803    1.9526    3.9284 H         1 302401      0.0000 
     34 H           8.3338   -2.1108    2.3193 H         1 302401      0.0000 
     35 H           8.5300   -1.0875    0.8860 H         1 302401      0.0000 
     36 H           6.2313   -0.0612    1.7292 H         1 302401      0.0000 
     37 H           6.0986   -1.6182    2.5647 H         1 302401      0.0000 
     38 H           5.3896   -2.4885   -1.8576 H         1 302401      0.0000 
@<TRIPOS>BOND
     1    4    1 2    
     2    5    1 1    
     3   23    1 1    
     4    5    2 1    
     5    6    2 1    
     6   25    2 2    
     7    4    3 1    
     8    6    3 1    
     9   24    3 2    
    10   26    4 1    
    11   27    5 1    
    12   28    6 1    
    13    8    7 ar   
    14    9    8 ar   
    15   10    8 1    
    16   11   10 ar   
    17   13   10 ar   
    18   12   11 ar   
    19   29   11 1    
    20   15   12 ar   
    21   30   12 1    
    22   14   13 ar   
    23   31   13 1    
    24   15   14 ar   
    25   32   14 1    
    26   16   15 1    
    27   17   16 2    
    28   33   16 1    
    29   18   17 1    
    30   19   18 1    
    31   20   19 1    
    32   34   19 1    
    33   35   19 1    
    34   21   20 1    
    35   36   20 1    
    36   37   20 1    
    37   22   21 1    
    38   23   22 2    
    39   38   23 1    
@<TRIPOS>SUBSTRUCTURE
     1 302401      1 GROUP   
@<TRIPOS>SET

