#    Name: 4isk_1JY_8_INTS_M
#    Modification time : Tue Mar 25 04:33:03 2014

@<TRIPOS>MOLECULE
4isk_1JY_8_INTS_M
   58     0     9     0     0
SMALL
NO_CHARGES


@<TRIPOS>ATOM
      1 CA         60.3025    5.5300  -25.6915 C.3       3 GLC5        0.0000 
      2 CA         61.8780    5.6080  -24.8700 C.3       9 GLL5        0.0000 
      3 CA         58.7270    5.4520  -26.5130 C.3       6 GLP5        0.0000 
      4 CA         62.4730    5.8705  -23.1120 C.3       3 GLC5        0.0000 
      5 CA         63.0680    6.1330  -21.3540 C.3       6 GLP5        0.0000 
      6 CA         60.9435    3.9520  -24.2470 C.3       3 GLC5        0.0000 
      7 CA         60.0090    2.2960  -23.6240 C.3       6 GLP5        0.0000 
      8 CA         62.6610    5.9745  -26.6160 C.3       3 GLC5        0.0000 
      9 CA         63.4440    6.3410  -28.3620 C.3       6 GLP5        0.0000 
     10 N          60.7020    4.6790  -22.8975 N.am      2 SEC2        0.0000 
     11 N          60.7040    5.7250  -24.0370 N.am      8 SEL2        0.0000 
     12 N          60.7000    3.6330  -21.7580 N.am      5 SEP2        0.0000 
     13 O          60.0620    6.9360  -24.3155 O.2       1 ALC1        0.0000 
     14 O          60.7040    5.7250  -24.0370 O.2       7 ALL1        0.0000 
     15 O          59.4200    8.1470  -24.5940 O.2       4 ALP1        0.0000 
     16 CA         70.4485    8.4340  -23.6800 C.3       3 GLC5        0.0000 
     17 CA         68.5390    8.7580  -23.8340 C.3       9 GLL5        0.0000 
     18 CA         72.3580    8.1100  -23.5260 C.3       6 GLP5        0.0000 
     19 CA         68.6880    7.1630  -25.1750 C.3       3 GLC5        0.0000 
     20 CA         68.8370    5.5680  -26.5160 C.3       6 GLP5        0.0000 
     21 CA         70.3385   10.3130  -23.4385 C.3       3 GLC5        0.0000 
     22 CA         68.6070   10.1230  -23.1190 C.3       9 GLL5        0.0000 
     23 CA         72.0700   10.5030  -23.7580 C.3       6 GLP5        0.0000 
     24 CA         68.2595   13.4885  -21.7860 C.3       3 GLC5        0.0000 
     25 CA         67.1010   13.3830  -23.2800 C.3       9 GLL5        0.0000 
     26 CA         69.4180   13.5940  -20.2920 C.3       6 GLP5        0.0000 
     27 CA         66.4305   14.8110  -22.2520 C.3       3 GLC5        0.0000 
     28 CA         65.7600   16.2390  -21.2240 C.3       6 GLP5        0.0000 
     29 CA         64.8735   14.7785  -22.1820 C.3       3 GLC5        0.0000 
     30 CA         65.4620   12.8540  -21.2090 C.3       9 GLL5        0.0000 
     31 CA         64.2850   16.7030  -23.1550 C.3       6 GLP5        0.0000 
     32 CA         60.5355   11.4540  -18.2910 C.3       3 GLC5        0.0000 
     33 CA         61.7160   12.0260  -17.0180 C.3       9 GLL5        0.0000 
     34 CA         59.3550   10.8820  -19.5640 C.3       6 GLP5        0.0000 
     35 CA         63.8377    7.2620  -22.8642 C.3       3 GLC5        0.0000 
     36 CA         64.3320    9.0310  -24.3690 C.3       9 GLL5        0.0000 
     37 CA         63.8297    8.5185  -26.1623 C.3       3 GLC5        0.0000 
     38 CA         64.8830    7.7510  -24.3800 C.3       9 GLL5        0.0000 
     39 CA         63.0520    8.6460  -27.9500 C.3       6 GLP5        0.0000 
     40 CA         67.7440    6.8272  -25.3210 C.3       3 GLC5        0.0000 
     41 CA         67.0510    8.6430  -24.0330 C.3       9 GLL5        0.0000 
     42 CA         66.4660    9.2058  -25.9170 C.3       3 GLC5        0.0000 
     43 CA         66.2510    7.5300  -24.2190 C.3       9 GLL5        0.0000 
     44 CA         66.2810   10.3250  -27.7080 C.3       6 GLP5        0.0000 
     45 CA         68.3610    7.7457  -22.4892 C.3       3 GLC5        0.0000 
     46 CA         68.1490    6.0510  -21.5020 C.3       6 GLP5        0.0000 
     47 CA         66.4669   10.4266  -25.8219 C.3       3 GLC5        0.0000 
     48 CA         67.5150   10.9890  -23.7700 C.3       9 GLL5        0.0000 
     49 CA         63.7020   13.5188  -24.8355 C.3       3 GLC5        0.0000 
     50 CA         66.0930   13.6320  -24.3330 C.3       9 GLL5        0.0000 
     51 CA         61.7700   13.2250  -24.9270 C.3       6 GLP5        0.0000 
     52 CA         64.9595   15.2577  -23.9495 C.3       3 GLC5        0.0000 
     53 CA         65.1750   13.9930  -25.1550 C.3       9 GLL5        0.0000 
     54 CA         66.8547   11.2450  -19.9225 C.3       3 GLC5        0.0000 
     55 CA         66.0360   11.7650  -21.8620 C.3       9 GLL5        0.0000 
     56 CA         68.3500   11.7900  -18.8360 C.3       6 GLP5        0.0000 
     57 CA         66.0048   12.3667  -19.1374 C.3       3 GLC5        0.0000 
     58 CA         67.3400   12.6650  -18.0790 C.3       6 GLP5        0.0000 
@<TRIPOS>BOND
@<TRIPOS>SUBSTRUCTURE
     1 ALC1       13 GROUP        1 X    ALC  0     ROOT ALC X 1
     2 SEC2       10 GROUP        1 X    SEC  0     **** SEC X 2
     3 GLC5        1 GROUP        1 X    GLC  0     **** GLC X 6
     4 ALP1       15 GROUP        1 Y    ALP  0     ROOT ALP Y 8
     5 SEP2       12 GROUP        1 Y    SEP  0     **** SEP Y 9
     6 GLP5        3 GROUP        1 Y    GLP  0     **** GLP Y 13
     7 ALL1       14 GROUP        1 Z    ALL  0     ROOT ALL Z 15
     8 SEL2       11 GROUP        1 Z    SEL  0     **** SEL Z 16
     9 GLL5        2 GROUP        1 Z    GLL  0     **** GLL Z 20
@<TRIPOS>SET

