#    Name: 4isk_1JY_8_ligand
#    Modification time : Tue Mar 25 04:33:03 2014

@<TRIPOS>MOLECULE
4isk_1JY_8_ligand
   76    79     1     0     0
SMALL
NO_CHARGES


@<TRIPOS>ATOM
      1 OAF        62.4180   10.2900  -24.5380 O.2       1 1JY303      0.0000 
      2 CBI        62.9500    9.1660  -24.5340 C.2       1 1JY303      0.0000 
      3 NBA        62.1680    8.0690  -24.6640 N.2       1 1JY303      0.0000 
      4 CBL        62.7380    6.8440  -24.6900 C.2       1 1JY303      0.0000 
      5 CAT        61.8780    5.6080  -24.8700 C.3       1 1JY303      0.0000 
      6 OAH        60.7040    5.7250  -24.0370 O.3       1 1JY303      0.0000 
      7 NBB        64.0710    6.6870  -24.5530 N.pl3     1 1JY303      0.0000 
      8 CBM        64.8830    7.7510  -24.3800 C.ar      1 1JY303      0.0000 
      9 CBR        64.3320    9.0310  -24.3690 C.ar      1 1JY303      0.0000 
     10 CAO        65.1120   10.1650  -24.1730 C.ar      1 1JY303      0.0000 
     11 CAN        66.2510    7.5300  -24.2190 C.ar      1 1JY303      0.0000 
     12 CBK        67.0510    8.6430  -24.0330 C.ar      1 1JY303      0.0000 
     13 CBN        66.4690    9.9700  -24.0300 C.ar      1 1JY303      0.0000 
     14 CAV        68.5390    8.7580  -23.8340 C.3       1 1JY303      0.0000 
     15 CAM        68.6070   10.1230  -23.1190 C.3       1 1JY303      0.0000 
     16 CBO        67.5150   10.9890  -23.7700 C.3       1 1JY303      0.0000 
     17 NBU        66.8980   12.0070  -22.9040 N.pl3     1 1JY303      0.0000 
     18 CAU        67.1010   13.3830  -23.2800 C.3       1 1JY303      0.0000 
     19 CAL        66.0930   13.6320  -24.3330 C.1       1 1JY303      0.0000 
     20 CAA        65.1750   13.9930  -25.1550 C.1       1 1JY303      0.0000 
     21 CBQ        66.0360   11.7650  -21.8620 C.ar      1 1JY303      0.0000 
     22 CAS        65.7140   10.4730  -21.4360 C.ar      1 1JY303      0.0000 
     23 CAQ        64.8440   10.2810  -20.3690 C.ar      1 1JY303      0.0000 
     24 CAR        65.4620   12.8540  -21.2090 C.ar      1 1JY303      0.0000 
     25 CAP        64.5980   12.6700  -20.1320 C.ar      1 1JY303      0.0000 
     26 CBP        64.3090   11.3750  -19.7210 C.ar      1 1JY303      0.0000 
     27 CBJ        63.3700   11.1260  -18.5920 C.2       1 1JY303      0.0000 
     28 OAG        63.1860    9.9680  -18.2410 O.2       1 1JY303      0.0000 
     29 NBD        62.7130   12.1730  -18.0960 N.am      1 1JY303      0.0000 
     30 CBT        61.7160   12.0260  -17.0180 C.3       1 1JY303      0.0000 
     31 CBG        60.6340   13.0770  -17.1180 C.2       1 1JY303      0.0000 
     32 OAD        60.8530   14.0630  -17.8690 O.co2     1 1JY303      0.0000 
     33 OAK        59.5560   12.9380  -16.4750 O.co2     1 1JY303      0.0000 
     34 CAZ        62.4590   12.1080  -15.6850 C.3       1 1JY303      0.0000 
     35 CAX        63.5280   13.1910  -15.7310 C.3       1 1JY303      0.0000 
     36 CBH        64.5170   12.9850  -14.6060 C.2       1 1JY303      0.0000 
     37 OAE        65.6240   12.5290  -14.8350 O.2       1 1JY303      0.0000 
     38 N          64.1160   13.3180  -13.3860 N.am      1 1JY303      0.0000 
     39 CA         65.0180   13.1560  -12.2580 C.3       1 1JY303      0.0000 
     40 C          64.4090   13.7280  -11.0120 C.2       1 1JY303      0.0000 
     41 O          64.7200   13.2350   -9.9030 O.co2     1 1JY303      0.0000 
     42 OXT        63.6240   14.6950  -11.1420 O.co2     1 1JY303      0.0000 
     43 CB         65.3070   11.6560  -12.1330 C.3       1 1JY303      0.0000 
     44 CG         64.3560   10.8990  -11.2120 C.3       1 1JY303      0.0000 
     45 CD         63.1930   10.3640  -12.0060 C.2       1 1JY303      0.0000 
     46 OE1        63.1160    9.1300  -12.1880 O.co2     1 1JY303      0.0000 
     47 OE2        62.3560   11.1780  -12.4510 O.co2     1 1JY303      0.0000 
     48 H          62.4720    4.7327  -24.5973 H         1 1JY303      0.0000 
     49 H          61.6087    5.5268  -25.9255 H         1 1JY303      0.0000 
     50 H          64.4830    5.7226  -24.5814 H         1 1JY303      0.0000 
     51 H          64.6990   11.0845  -24.1380 H         1 1JY303      0.0000 
     52 H          66.6344    6.5975  -24.2382 H         1 1JY303      0.0000 
     53 H          69.0329    8.8252  -24.7546 H         1 1JY303      0.0000 
     54 H          68.8861    8.0116  -23.1873 H         1 1JY303      0.0000 
     55 H          69.5615   10.5646  -23.2863 H         1 1JY303      0.0000 
     56 H          68.3917    9.9932  -22.0842 H         1 1JY303      0.0000 
     57 H          67.8586   11.3634  -24.6829 H         1 1JY303      0.0000 
     58 H          68.0905   13.5361  -23.6816 H         1 1JY303      0.0000 
     59 H          66.9262   14.0453  -22.4466 H         1 1JY303      0.0000 
     60 H          66.1255    9.6612  -21.9177 H         1 1JY303      0.0000 
     61 H          64.6039    9.3284  -20.0685 H         1 1JY303      0.0000 
     62 H          65.6808   13.8129  -21.5289 H         1 1JY303      0.0000 
     63 H          64.1864   13.4718  -19.6556 H         1 1JY303      0.0000 
     64 H          62.8624   13.1432  -18.4353 H         1 1JY303      0.0000 
     65 H          61.2637   11.0418  -17.0820 H         1 1JY303      0.0000 
     66 H          62.9262   11.1471  -15.4762 H         1 1JY303      0.0000 
     67 H          61.7479   12.3349  -14.8925 H         1 1JY303      0.0000 
     68 H          63.0558   14.1648  -15.6289 H         1 1JY303      0.0000 
     69 H          64.0453   13.1432  -16.6859 H         1 1JY303      0.0000 
     70 H          63.1806   13.6946  -13.1799 H         1 1JY303      0.0000 
     71 H          65.9546   13.6544  -12.4678 H         1 1JY303      0.0000 
     72 H          66.3419   11.5242  -11.7678 H         1 1JY303      0.0000 
     73 H          65.2683   11.2030  -13.1405 H         1 1JY303      0.0000 
     74 H          63.9959   11.5746  -10.4399 H         1 1JY303      0.0000 
     75 H          64.8928   10.0770  -10.7447 H         1 1JY303      0.0000 
     76 H          60.2964    6.6034  -24.2864 H         1 1JY303      0.0000 
@<TRIPOS>BOND
     1    2    1 2    
     2    3    2 1    
     3    9    2 1    
     4    4    3 2    
     5    5    4 1    
     6    7    4 1    
     7    6    5 1    
     8   48    5 1    
     9   49    5 1    
    10   76    6 1    
    11    8    7 1    
    12   50    7 1    
    13    9    8 ar   
    14   11    8 ar   
    15   10    9 ar   
    16   13   10 ar   
    17   51   10 1    
    18   12   11 ar   
    19   52   11 1    
    20   13   12 ar   
    21   14   12 1    
    22   16   13 1    
    23   15   14 1    
    24   53   14 1    
    25   54   14 1    
    26   16   15 1    
    27   55   15 1    
    28   56   15 1    
    29   17   16 1    
    30   57   16 1    
    31   18   17 1    
    32   21   17 1    
    33   19   18 1    
    34   58   18 1    
    35   59   18 1    
    36   20   19 3    
    37   22   21 ar   
    38   24   21 ar   
    39   23   22 ar   
    40   60   22 1    
    41   26   23 ar   
    42   61   23 1    
    43   25   24 ar   
    44   62   24 1    
    45   26   25 ar   
    46   63   25 1    
    47   27   26 1    
    48   28   27 2    
    49   29   27 am   
    50   30   29 1    
    51   64   29 1    
    52   31   30 1    
    53   34   30 1    
    54   65   30 1    
    55   32   31 ar   
    56   33   31 ar   
    57   35   34 1    
    58   66   34 1    
    59   67   34 1    
    60   36   35 1    
    61   68   35 1    
    62   69   35 1    
    63   37   36 2    
    64   38   36 am   
    65   39   38 1    
    66   70   38 1    
    67   40   39 1    
    68   43   39 1    
    69   71   39 1    
    70   41   40 ar   
    71   42   40 ar   
    72   44   43 1    
    73   72   43 1    
    74   73   43 1    
    75   45   44 1    
    76   74   44 1    
    77   75   44 1    
    78   46   45 ar   
    79   47   45 ar   
@<TRIPOS>SUBSTRUCTURE
     1 1JY303      1 GROUP   
@<TRIPOS>SET

