#    Name: 3inw_JZB_1_INTS_M
#    Modification time : Tue Mar 25 16:58:48 2014

@<TRIPOS>MOLECULE
3inw_JZB_1_INTS_M
   76     0     6     0     0
SMALL
NO_CHARGES


@<TRIPOS>ATOM
      1 CA         71.2490   13.9875   21.5165 C.3       2 GLC5        0.0000 
      2 CA         70.4140   12.8440   22.3830 C.3       6 GLL5        0.0000 
      3 CA         72.0840   15.1310   20.6500 C.3       4 GLP5        0.0000 
      4 CA         65.1870   10.8405   22.5990 C.3       2 GLC5        0.0000 
      5 CA         66.5550   12.1350   23.2610 C.3       6 GLL5        0.0000 
      6 CA         63.8190    9.5460   21.9370 C.3       4 GLP5        0.0000 
      7 N          66.7955   12.3015   27.7355 N.am      1 SEC2        0.0000 
      8 N          67.5550   11.0870   27.4550 N.am      5 SEL2        0.0000 
      9 N          66.0360   13.5160   28.0160 N.am      3 SEP2        0.0000 
     10 N          65.9380   10.9410   27.6460 N.am      1 SEC2        0.0000 
     11 N          64.3210   10.7950   27.8370 N.am      3 SEP2        0.0000 
     12 CA         66.5085    9.7140   25.4780 C.3       2 GLC5        0.0000 
     13 CA         67.9400   11.3040   25.1040 C.3       6 GLL5        0.0000 
     14 CA         65.0770    8.1240   25.8520 C.3       4 GLP5        0.0000 
     15 CA         67.1405   13.1355   25.5710 C.3       2 GLC5        0.0000 
     16 CA         66.3410   14.9670   26.0380 C.3       4 GLP5        0.0000 
     17 CA         70.6870   12.1015   26.5560 C.3       2 GLC5        0.0000 
     18 CA         70.5080   11.4300   24.9200 C.3       6 GLL5        0.0000 
     19 CA         70.8660   12.7730   28.1920 C.3       4 GLP5        0.0000 
     20 CA         72.0690   11.2875   26.2450 C.3       2 GLC5        0.0000 
     21 CA         73.6300   11.1450   27.5700 C.3       4 GLP5        0.0000 
     22 CA         69.4605   10.3470   28.6945 C.3       2 GLC5        0.0000 
     23 CA         68.7960    8.8330   27.8340 C.3       6 GLL5        0.0000 
     24 CA         70.1250   11.8610   29.5550 C.3       4 GLP5        0.0000 
     25 CA         68.3415    5.5005   27.9260 C.3       2 GLC5        0.0000 
     26 CA         68.5700    7.3250   27.6080 C.3       6 GLL5        0.0000 
     27 CA         68.1130    3.6760   28.2440 C.3       4 GLP5        0.0000 
     28 CA         67.0095    6.4600   25.6250 C.3       2 GLC5        0.0000 
     29 CA         69.0400    6.3420   25.4090 C.3       6 GLL5        0.0000 
     30 CA         64.9790    6.5780   25.8410 C.3       4 GLP5        0.0000 
     31 CA         68.4500    7.6435   21.7760 C.3       2 GLC5        0.0000 
     32 CA         69.7180    6.8380   23.1230 C.3       6 GLL5        0.0000 
     33 CA         67.1820    8.4490   20.4290 C.3       4 GLP5        0.0000 
     34 CA         74.0660   11.5230   25.5520 C.3       2 GLC5        0.0000 
     35 CA         74.5020   11.9010   23.5340 C.3       6 GLL5        0.0000 
     36 CA         73.8085   12.4050   21.7575 C.3       2 GLC5        0.0000 
     37 CA         73.1150   12.9090   19.9810 C.3       4 GLP5        0.0000 
     38 CA         74.0415   15.4845   22.6460 C.3       2 GLC5        0.0000 
     39 CA         73.4830   14.7160   24.1620 C.3       6 GLL5        0.0000 
     40 CA         74.6000   16.2530   21.1300 C.3       4 GLP5        0.0000 
     41 CA         73.8015   17.6230   26.2445 C.3       2 GLC5        0.0000 
     42 CA         73.0910   15.8880   26.2900 C.3       6 GLL5        0.0000 
     43 CA         74.5120   19.3580   26.1990 C.3       4 GLP5        0.0000 
     44 CA         73.9315   13.1400   27.2680 C.3       2 GLC5        0.0000 
     45 CA         74.2330   15.1350   26.9660 C.3       6 GLL5        0.0000 
     46 CA         74.7975   16.8640   27.5555 C.3       2 GLC5        0.0000 
     47 CA         75.3620   18.5930   28.1450 C.3       4 GLP5        0.0000 
     48 CA         75.5020   16.8755   25.8930 C.3       2 GLC5        0.0000 
     49 CA         75.2690   15.0120   25.8580 C.3       6 GLL5        0.0000 
     50 CA         75.7350   18.7390   25.9280 C.3       4 GLP5        0.0000 
     51 CA         67.6072   11.0170   21.7370 C.3       2 GLC5        0.0000 
     52 CA         67.7460   12.5390   22.6310 C.3       6 GLL5        0.0000 
     53 CA         68.0640    9.6970   20.5280 C.3       4 GLP5        0.0000 
     54 CA         66.7458   13.6520   24.4920 C.3       2 GLC5        0.0000 
     55 CA         67.1308   14.3860   22.7980 C.3       2 GLC5        0.0000 
     56 CA         67.1110   16.4350   22.6500 C.3       4 GLP5        0.0000 
     57 CA         68.7279   10.9177   22.0604 C.3       2 GLC5        0.0000 
     58 CA         69.0498   12.7462   26.3105 C.3       2 GLC5        0.0000 
     59 CA         69.0910   11.7010   24.4060 C.3       6 GLL5        0.0000 
     60 CA         69.5840   13.9900   27.8660 C.3       4 GLP5        0.0000 
     61 CA         69.2732    9.1490   22.0510 C.3       2 GLC5        0.0000 
     62 CA         70.2920    9.2070   23.7480 C.3       6 GLL5        0.0000 
     63 CA         66.8800    8.1015   26.7865 C.3       2 GLC5        0.0000 
     64 CA         67.3880    7.4705   28.8430 C.3       2 GLC5        0.0000 
     65 CA         66.0930    6.8620   29.9650 C.3       4 GLP5        0.0000 
     66 CA         69.4359    4.7393   26.2260 C.3       2 GLC5        0.0000 
     67 CA         69.8590    5.7920   24.2660 C.3       6 GLL5        0.0000 
     68 CA         69.2920    3.2950   27.3260 C.3       4 GLP5        0.0000 
     69 CA         68.2289    5.4322   23.1171 C.3       2 GLC5        0.0000 
     70 CA         66.8740    4.4120   22.2540 C.3       4 GLP5        0.0000 
     71 CA         71.5380   16.9440   25.1370 C.3       2 GLC5        0.0000 
     72 CA         72.4770   14.9100   25.2680 C.3       6 GLL5        0.0000 
     73 CA         70.2920   18.4890   24.4950 C.3       4 GLP5        0.0000 
     74 CA         73.0790   15.8143   28.2085 C.3       2 GLC5        0.0000 
     75 CA         72.4960   16.1170   29.7890 C.3       4 GLP5        0.0000 
     76 CA         72.1873   14.0200   27.2823 C.3       2 GLC5        0.0000 
@<TRIPOS>BOND
@<TRIPOS>SUBSTRUCTURE
     1 SEC2        7 GROUP        1 X    SEC  0     ROOT SEC X 2
     2 GLC5        1 GROUP        1 X    GLC  0     **** GLC X 6
     3 SEP2        9 GROUP        1 Y    SEP  0     ROOT SEP Y 9
     4 GLP5        3 GROUP        1 Y    GLP  0     **** GLP Y 13
     5 SEL2        8 GROUP        1 Z    SEL  0     ROOT SEL Z 16
     6 GLL5        2 GROUP        1 Z    GLL  0     **** GLL Z 20
@<TRIPOS>SET

