#    Name: 3inw_JZB_1_ligand
#    Modification time : Tue Mar 25 16:58:48 2014

@<TRIPOS>MOLECULE
3inw_JZB_1_ligand
   61    63     1     0     0
SMALL
NO_CHARGES


@<TRIPOS>ATOM
      1 CL         70.4140   12.8440   22.3830 Cl        1 JZB2001     0.0000 
      2 C1         66.5550   12.1350   23.2610 C.ar      1 JZB2001     0.0000 
      3 N1         72.4670   10.4410   23.6340 N.2       1 JZB2001     0.0000 
      4 O1         68.7300    9.4650   26.5790 O.3       1 JZB2001     0.0000 
      5 C2         67.7460   12.5390   22.6310 C.ar      1 JZB2001     0.0000 
      6 N2         74.7590   14.1990   24.7150 N.am      1 JZB2001     0.0000 
      7 O2         67.5550   11.0870   27.4550 O.2       1 JZB2001     0.0000 
      8 C3         68.9710   12.3080   23.1760 C.ar      1 JZB2001     0.0000 
      9 O3         67.7120   13.0780   21.4110 O.3       1 JZB2001     0.0000 
     10 C4         69.0910   11.7010   24.4060 C.ar      1 JZB2001     0.0000 
     11 O4         65.5730   11.1700   25.1860 O.co2     1 JZB2001     0.0000 
     12 C5         67.9400   11.3040   25.1040 C.ar      1 JZB2001     0.0000 
     13 O5         73.1770   11.5610   24.0300 O.3       1 JZB2001     0.0000 
     14 C6         66.6810   11.5350   24.5280 C.ar      1 JZB2001     0.0000 
     15 O6         76.2430   12.6200   25.0330 O.2       1 JZB2001     0.0000 
     16 C7         70.5080   11.4300   24.9200 C.3       1 JZB2001     0.0000 
     17 C8         68.0560   10.6180   26.4470 C.2       1 JZB2001     0.0000 
     18 C9         71.2220   10.3490   24.0580 C.2       1 JZB2001     0.0000 
     19 C10        70.2920    9.2070   23.7480 C.2       1 JZB2001     0.0000 
     20 C11        68.7960    8.8330   27.8340 C.3       1 JZB2001     0.0000 
     21 C12        68.5700    7.3250   27.6080 C.3       1 JZB2001     0.0000 
     22 C13        69.5610    6.8080   26.5630 C.2       1 JZB2001     0.0000 
     23 C14        69.0400    6.3420   25.4090 C.2       1 JZB2001     0.0000 
     24 C15        69.8590    5.7920   24.2660 C.3       1 JZB2001     0.0000 
     25 C16        70.6730    7.9950   23.4000 C.2       1 JZB2001     0.0000 
     26 C17        69.7180    6.8380   23.1230 C.3       1 JZB2001     0.0000 
     27 C18        74.5020   11.9010   23.5340 C.3       1 JZB2001     0.0000 
     28 C19        75.2060   12.9080   24.4660 C.2       1 JZB2001     0.0000 
     29 C20        73.4830   14.7160   24.1620 C.3       1 JZB2001     0.0000 
     30 C21        72.4770   14.9100   25.2680 C.3       1 JZB2001     0.0000 
     31 C22        73.0910   15.8880   26.2900 C.3       1 JZB2001     0.0000 
     32 C23        74.2330   15.1350   26.9660 C.3       1 JZB2001     0.0000 
     33 C24        75.2690   15.0120   25.8580 C.3       1 JZB2001     0.0000 
     34 H          65.6625   12.2673   22.8303 H         1 JZB2001     0.0000 
     35 H          70.4620   11.0794   25.9477 H         1 JZB2001     0.0000 
     36 H          71.0914   12.3461   24.8804 H         1 JZB2001     0.0000 
     37 H          69.2689    9.4722   23.8372 H         1 JZB2001     0.0000 
     38 H          68.0231    9.1766   28.5197 H         1 JZB2001     0.0000 
     39 H          69.7678    8.9462   28.3120 H         1 JZB2001     0.0000 
     40 H          67.5589    7.1675   27.2569 H         1 JZB2001     0.0000 
     41 H          68.7225    6.8006   28.5419 H         1 JZB2001     0.0000 
     42 H          70.5226    6.8499   26.8040 H         1 JZB2001     0.0000 
     43 H          68.0059    6.3339   25.2324 H         1 JZB2001     0.0000 
     44 H          69.4594    4.8635   23.9313 H         1 JZB2001     0.0000 
     45 H          70.8854    5.7213   24.5403 H         1 JZB2001     0.0000 
     46 H          71.6843    7.7233   23.2832 H         1 JZB2001     0.0000 
     47 H          68.7025    7.1959   23.1047 H         1 JZB2001     0.0000 
     48 H          69.9729    6.3665   22.1890 H         1 JZB2001     0.0000 
     49 H          74.4478   12.3524   22.5350 H         1 JZB2001     0.0000 
     50 H          75.1394   11.0104   23.4627 H         1 JZB2001     0.0000 
     51 H          73.0787   14.0116   23.4301 H         1 JZB2001     0.0000 
     52 H          73.6519   15.6725   23.6602 H         1 JZB2001     0.0000 
     53 H          72.2771   13.9735   25.7588 H         1 JZB2001     0.0000 
     54 H          71.5708   15.3386   24.8769 H         1 JZB2001     0.0000 
     55 H          72.3508   16.1528   27.0133 H         1 JZB2001     0.0000 
     56 H          73.4727   16.7425   25.7750 H         1 JZB2001     0.0000 
     57 H          73.9035   14.1733   27.2613 H         1 JZB2001     0.0000 
     58 H          74.6223   15.7135   27.7624 H         1 JZB2001     0.0000 
     59 H          75.5357   16.0179   25.5115 H         1 JZB2001     0.0000 
     60 H          76.1738   14.5497   26.2711 H         1 JZB2001     0.0000 
     61 H          68.2595   13.9118   21.4812 H         1 JZB2001     0.0000 
@<TRIPOS>BOND
     1    8    1 1    
     2    5    2 ar   
     3   14    2 ar   
     4   34    2 1    
     5   13    3 1    
     6   18    3 2    
     7   17    4 1    
     8   20    4 1    
     9    8    5 ar   
    10    9    5 1    
    11   28    6 am   
    12   29    6 1    
    13   33    6 1    
    14   17    7 2    
    15   10    8 ar   
    16   61    9 1    
    17   12   10 ar   
    18   16   10 1    
    19   14   11 ar   
    20   14   12 ar   
    21   17   12 1    
    22   27   13 1    
    23   28   15 2    
    24   18   16 1    
    25   35   16 1    
    26   36   16 1    
    27   19   18 1    
    28   25   19 2    
    29   37   19 1    
    30   21   20 1    
    31   38   20 1    
    32   39   20 1    
    33   22   21 1    
    34   40   21 1    
    35   41   21 1    
    36   23   22 2    
    37   42   22 1    
    38   24   23 1    
    39   43   23 1    
    40   26   24 1    
    41   44   24 1    
    42   45   24 1    
    43   26   25 1    
    44   46   25 1    
    45   47   26 1    
    46   48   26 1    
    47   28   27 1    
    48   49   27 1    
    49   50   27 1    
    50   30   29 1    
    51   51   29 1    
    52   52   29 1    
    53   31   30 1    
    54   53   30 1    
    55   54   30 1    
    56   32   31 1    
    57   55   31 1    
    58   56   31 1    
    59   33   32 1    
    60   57   32 1    
    61   58   32 1    
    62   59   33 1    
    63   60   33 1    
@<TRIPOS>SUBSTRUCTURE
     1 JZB2001     1 GROUP   
@<TRIPOS>SET

