#    Name: 3lt2_FT3_2_INTS_M
#    Modification time : Mon Mar 24 22:15:34 2014

@<TRIPOS>MOLECULE
3lt2_FT3_2_INTS_M
   55     0     9     0     0
SMALL
NO_CHARGES


@<TRIPOS>ATOM
      1 CA          9.3635  103.7345   25.8805 C.3       3 GLC5        0.0000 
      2 CA          9.5780  101.6220   25.8300 C.3       9 GLL5        0.0000 
      3 CA          9.1490  105.8470   25.9310 C.3       6 GLP5        0.0000 
      4 CA          9.6425  100.7890   21.8535 C.3       3 GLC5        0.0000 
      5 CA         10.1020  100.5170   23.7330 C.3       9 GLL5        0.0000 
      6 CA          9.1830  101.0610   19.9740 C.3       6 GLP5        0.0000 
      7 CA         15.5205   93.7340   23.8265 C.3       3 GLC5        0.0000 
      8 CA         13.8130   94.0010   24.1150 C.3       9 GLL5        0.0000 
      9 CA         17.2280   93.4670   23.5380 C.3       6 GLP5        0.0000 
     10 CA         12.6745   93.7890   22.4510 C.3       3 GLC5        0.0000 
     11 CA         11.5360   93.5770   20.7870 C.3       6 GLP5        0.0000 
     12 CA         14.4870   94.3390   25.8260 C.3       3 GLC5        0.0000 
     13 CA         15.1610   94.6770   27.5370 C.3       6 GLP5        0.0000 
     14 O          13.0060   92.9750   25.9375 O.2       1 ALC1        0.0000 
     15 O          13.1660   92.7990   24.5290 O.2       7 ALL1        0.0000 
     16 O          12.8460   93.1510   27.3460 O.2       4 ALP1        0.0000 
     17 CA          8.8995  104.3610   24.7610 C.3       3 GLC5        0.0000 
     18 CA          8.6500  102.8750   23.5910 C.3       9 GLL5        0.0000 
     19 CA          9.2085  104.3010   22.5500 C.3       3 GLC5        0.0000 
     20 CA          9.7670  105.7270   21.5090 C.3       6 GLP5        0.0000 
     21 CA          8.4600  102.5720   21.7275 C.3       3 GLC5        0.0000 
     22 CA          8.2700  102.2690   19.8640 C.3       6 GLP5        0.0000 
     23 CA         10.5490  102.9315   22.6375 C.3       3 GLC5        0.0000 
     24 CA         12.4480  102.9880   21.6840 C.3       6 GLP5        0.0000 
     25 CA         11.3825  102.0945   27.9405 C.3       3 GLC5        0.0000 
     26 CA         10.3000  100.7330   28.2980 C.3       9 GLL5        0.0000 
     27 CA         12.4650  103.4560   27.5830 C.3       6 GLP5        0.0000 
     28 CA          8.7880   99.8445   28.1745 C.3       3 GLC5        0.0000 
     29 CA          7.2760   98.9560   28.0510 C.3       6 GLP5        0.0000 
     30 CA         11.8110  100.5710   29.1425 C.3       3 GLC5        0.0000 
     31 CA         13.3220  100.4090   29.9870 C.3       6 GLP5        0.0000 
     32 N          14.1705   99.3825   26.7590 N.am      2 SEC2        0.0000 
     33 N          14.0850   98.6590   25.7160 N.am      8 SEL2        0.0000 
     34 N          14.2560  100.1060   27.8020 N.am      5 SEP2        0.0000 
     35 O          14.6390   99.2000   24.7130 O.2       1 ALC1        0.0000 
     36 O          14.0850   98.6590   25.7160 O.2       7 ALL1        0.0000 
     37 O          15.1930   99.7410   23.7100 O.2       4 ALP1        0.0000 
     38 CA         13.1543   98.4570   27.3057 C.3       3 GLC5        0.0000 
     39 CA         13.3580   97.5120   25.5360 C.3       9 GLL5        0.0000 
     40 CA         13.6170   99.4260   28.8810 C.3       6 GLP5        0.0000 
     41 CA         15.6822   97.0288   24.9123 C.3       3 GLC5        0.0000 
     42 CA         17.7210   97.1120   24.5820 C.3       6 GLP5        0.0000 
     43 CA          9.8987   94.8192   25.8585 C.3       3 GLC5        0.0000 
     44 CA         11.8300   95.1800   25.1610 C.3       9 GLL5        0.0000 
     45 CA          8.2530   93.8950   26.2600 C.3       6 GLP5        0.0000 
     46 CA         10.6578   96.3882   23.6775 C.3       3 GLC5        0.0000 
     47 CA         11.2590   96.3070   25.7530 C.3       9 GLL5        0.0000 
     48 CA          9.7710   97.0330   21.8980 C.3       6 GLP5        0.0000 
     49 CA         12.0765   99.7550   27.5190 C.3       3 GLC5        0.0000 
     50 CA         10.2410  100.6120   26.5070 C.3       9 GLL5        0.0000 
     51 CA         11.1872  102.2865   26.8758 C.3       3 GLC5        0.0000 
     52 CA          8.6665   99.9045   27.0222 C.3       3 GLC5        0.0000 
     53 CA         11.1285  102.0155   22.8867 C.3       3 GLC5        0.0000 
     54 CA          9.5160  101.5690   24.4460 C.3       9 GLL5        0.0000 
     55 CA         10.1035   98.5230   22.9865 C.3       3 GLC5        0.0000 
@<TRIPOS>BOND
@<TRIPOS>SUBSTRUCTURE
     1 ALC1       14 GROUP        1 X    ALC  0     ROOT ALC X 1
     2 SEC2       32 GROUP        1 X    SEC  0     **** SEC X 2
     3 GLC5        1 GROUP        1 X    GLC  0     **** GLC X 6
     4 ALP1       16 GROUP        1 Y    ALP  0     ROOT ALP Y 8
     5 SEP2       34 GROUP        1 Y    SEP  0     **** SEP Y 9
     6 GLP5        3 GROUP        1 Y    GLP  0     **** GLP Y 13
     7 ALL1       15 GROUP        1 Z    ALL  0     ROOT ALL Z 15
     8 SEL2       33 GROUP        1 Z    SEL  0     **** SEL Z 16
     9 GLL5        2 GROUP        1 Z    GLL  0     **** GLL Z 20
@<TRIPOS>SET

