#    Name: 3lt2_FT3_2_ligand
#    Modification time : Mon Mar 24 22:15:34 2014

@<TRIPOS>MOLECULE
3lt2_FT3_2_ligand
   28    29     1     0     0
SMALL
NO_CHARGES


@<TRIPOS>ATOM
      1 C1         12.0250   97.4640   25.9250 C.ar      1 FT3602      0.0000 
      2 C2         13.3580   97.5120   25.5360 C.ar      1 FT3602      0.0000 
      3 C3         13.9290   96.3790   24.9490 C.ar      1 FT3602      0.0000 
      4 C4         13.1700   95.2120   24.7650 C.ar      1 FT3602      0.0000 
      5 C5         11.8300   95.1800   25.1610 C.ar      1 FT3602      0.0000 
      6 C6         11.2590   96.3070   25.7530 C.ar      1 FT3602      0.0000 
      7 O7         11.4710   98.5670   26.5020 O.3       1 FT3602      0.0000 
      8 C8         10.8310   99.5560   25.8070 C.ar      1 FT3602      0.0000 
      9 C9         10.2410  100.6120   26.5070 C.ar      1 FT3602      0.0000 
     10 C10         9.5780  101.6220   25.8300 C.ar      1 FT3602      0.0000 
     11 C11         9.5160  101.5690   24.4460 C.ar      1 FT3602      0.0000 
     12 C12        10.1020  100.5170   23.7330 C.ar      1 FT3602      0.0000 
     13 C13        10.7700   99.5090   24.4170 C.ar      1 FT3602      0.0000 
     14 C14        13.8130   94.0010   24.1150 C.3       1 FT3602      0.0000 
     15 O15        13.1660   92.7990   24.5290 O.3       1 FT3602      0.0000 
     16 CL16        8.6500  102.8750   23.5910 Cl        1 FT3602      0.0000 
     17 CL17       10.3000  100.7330   28.2980 Cl        1 FT3602      0.0000 
     18 O18        14.0850   98.6590   25.7160 O.3       1 FT3602      0.0000 
     19 H          14.9124   96.3975   24.6486 H         1 FT3602      0.0000 
     20 H          11.2717   94.3342   25.0171 H         1 FT3602      0.0000 
     21 H          10.2820   96.2882   26.0610 H         1 FT3602      0.0000 
     22 H           9.1424  102.3922   26.3404 H         1 FT3602      0.0000 
     23 H          10.0361  100.4944   22.7102 H         1 FT3602      0.0000 
     24 H          11.2122   98.7409   23.9065 H         1 FT3602      0.0000 
     25 H          14.8811   93.9990   24.3860 H         1 FT3602      0.0000 
     26 H          13.7574   94.1343   23.0226 H         1 FT3602      0.0000 
     27 H          13.5098   92.6248   25.4517 H         1 FT3602      0.0000 
     28 H          14.1077   99.0948   24.8162 H         1 FT3602      0.0000 
@<TRIPOS>BOND
     1    2    1 ar   
     2    6    1 ar   
     3    7    1 1    
     4    3    2 ar   
     5   18    2 1    
     6    4    3 ar   
     7   19    3 1    
     8    5    4 ar   
     9   14    4 1    
    10    6    5 ar   
    11   20    5 1    
    12   21    6 1    
    13    8    7 1    
    14    9    8 ar   
    15   13    8 ar   
    16   10    9 ar   
    17   17    9 1    
    18   11   10 ar   
    19   22   10 1    
    20   12   11 ar   
    21   16   11 1    
    22   13   12 ar   
    23   23   12 1    
    24   24   13 1    
    25   15   14 1    
    26   25   14 1    
    27   26   14 1    
    28   27   15 1    
    29   28   18 1    
@<TRIPOS>SUBSTRUCTURE
     1 FT3602      1 GROUP   
@<TRIPOS>SET

