#    Name: 1n46_PFA_2_INTS_M
#    Modification time : Tue Mar 25 12:22:40 2014

@<TRIPOS>MOLECULE
1n46_PFA_2_INTS_M
   81     0     9     0     0
SMALL
NO_CHARGES


@<TRIPOS>ATOM
      1 N           8.5785  -18.3125  -22.5905 N.am      2 SEC2        0.0000 
      2 N           7.6990  -18.3050  -23.8490 N.am      8 SEL2        0.0000 
      3 N           9.4580  -18.3200  -21.3320 N.am      5 SEP2        0.0000 
      4 N           7.1490  -19.1790  -22.6530 N.am      2 SEC2        0.0000 
      5 N           6.5990  -20.0530  -21.4570 N.am      5 SEP2        0.0000 
      6 N           4.4825  -14.6715  -21.1580 N.am      2 SEC2        0.0000 
      7 N           5.5340  -14.6090  -22.3300 N.am      8 SEL2        0.0000 
      8 N           3.4310  -14.7340  -19.9860 N.am      5 SEP2        0.0000 
      9 N           5.5350  -15.0730  -20.8370 N.am      2 SEC2        0.0000 
     10 N           5.5360  -15.5370  -19.3440 N.am      5 SEP2        0.0000 
     11 N           5.6750  -13.2990  -21.8285 N.am      2 SEC2        0.0000 
     12 N           5.8160  -11.9890  -21.3270 N.am      5 SEP2        0.0000 
     13 CA          2.8155  -22.0955  -25.3415 C.3       3 GLC5        0.0000 
     14 CA          3.8500  -21.2630  -26.7680 C.3       9 GLL5        0.0000 
     15 CA          1.7810  -22.9280  -23.9150 C.3       6 GLP5        0.0000 
     16 CA          9.5235  -17.9095  -28.9480 C.3       3 GLC5        0.0000 
     17 CA          8.3630  -19.8160  -28.7930 C.3       9 GLL5        0.0000 
     18 CA         10.6840  -16.0030  -29.1030 C.3       6 GLP5        0.0000 
     19 CA          8.3320  -21.1780  -30.5435 C.3       3 GLC5        0.0000 
     20 CA          8.3010  -22.5400  -32.2940 C.3       6 GLP5        0.0000 
     21 CA          9.6420  -19.8405  -30.0275 C.3       3 GLC5        0.0000 
     22 CA         10.9210  -19.8650  -31.2620 C.3       6 GLP5        0.0000 
     23 CA          7.4245  -21.3215  -26.5910 C.3       3 GLC5        0.0000 
     24 CA          6.0720  -20.5330  -27.7590 C.3       9 GLL5        0.0000 
     25 CA          8.7770  -22.1100  -25.4230 C.3       6 GLP5        0.0000 
     26 CA          3.4590  -24.2185  -29.3510 C.3       3 GLC5        0.0000 
     27 CA          4.4270  -22.5330  -30.3150 C.3       9 GLL5        0.0000 
     28 CA          2.4910  -25.9040  -28.3870 C.3       6 GLP5        0.0000 
     29 CA          2.0620  -26.0155  -32.8490 C.3       3 GLC5        0.0000 
     30 CA          3.6190  -24.9190  -32.1390 C.3       9 GLL5        0.0000 
     31 CA          0.5050  -27.1120  -33.5590 C.3       6 GLP5        0.0000 
     32 CA          3.8865  -26.2595  -30.6805 C.3       3 GLC5        0.0000 
     33 CA          4.1540  -27.6000  -29.2220 C.3       6 GLP5        0.0000 
     34 CA          4.2380  -26.2030  -33.7435 C.3       3 GLC5        0.0000 
     35 CA          4.8570  -27.4870  -35.3480 C.3       6 GLP5        0.0000 
     36 CA         -0.1955  -24.3465  -31.0195 C.3       3 GLC5        0.0000 
     37 CA          1.6140  -23.9120  -31.2490 C.3       9 GLL5        0.0000 
     38 CA         -2.0050  -24.7810  -30.7900 C.3       6 GLP5        0.0000 
     39 CA          1.5880  -22.1070  -30.1065 C.3       3 GLC5        0.0000 
     40 CA          1.5620  -20.3020  -28.9640 C.3       6 GLP5        0.0000 
     41 O           3.5410  -20.1425  -34.1235 O.2       1 ALC1        0.0000 
     42 O           2.9600  -20.9900  -33.3600 O.2       7 ALL1        0.0000 
     43 O           4.1220  -19.2950  -34.8870 O.2       4 ALP1        0.0000 
     44 CA          3.8053  -18.1612  -25.5155 C.3       3 GLC5        0.0000 
     45 CA          5.0460  -19.2110  -25.9130 C.3       9 GLL5        0.0000 
     46 CA          2.0090  -17.5470  -25.0950 C.3       6 GLP5        0.0000 
     47 CA          2.9998  -20.5450  -27.8732 C.3       3 GLC5        0.0000 
     48 CA          5.0250  -20.3130  -26.7970 C.3       9 GLL5        0.0000 
     49 CA          3.2233  -19.1675  -25.9387 C.3       3 GLC5        0.0000 
     50 CA          5.7157  -22.3465  -26.1842 C.3       3 GLC5        0.0000 
     51 CA          6.9940  -23.9050  -25.5860 C.3       6 GLP5        0.0000 
     52 CA          6.6606  -17.2350  -27.6620 C.3       3 GLC5        0.0000 
     53 CA          7.2200  -19.6480  -27.7980 C.3       9 GLL5        0.0000 
     54 CA          6.3600  -15.4260  -28.2160 C.3       6 GLP5        0.0000 
     55 CA          9.3522  -19.2780  -26.9561 C.3       3 GLC5        0.0000 
     56 CA         10.9060  -19.1010  -25.8470 C.3       6 GLP5        0.0000 
     57 CA          8.2877  -20.7825  -26.7441 C.3       3 GLC5        0.0000 
     58 CA          3.3755  -20.5628  -29.5682 C.3       3 GLC5        0.0000 
     59 CA          5.1950  -21.4510  -29.8090 C.3       9 GLL5        0.0000 
     60 CA          6.7450  -21.6818  -31.2332 C.3       3 GLC5        0.0000 
     61 CA          2.8075  -21.3875  -29.9390 C.3       3 GLC5        0.0000 
     62 CA          3.6790  -22.4130  -31.5130 C.3       9 GLL5        0.0000 
     63 CA          5.2670  -22.5915  -32.4040 C.3       3 GLC5        0.0000 
     64 CA          6.4810  -22.7100  -33.8940 C.3       6 GLP5        0.0000 
     65 CA          1.0435  -24.8850  -32.8755 C.3       3 GLC5        0.0000 
     66 CA          2.8480  -23.5880  -32.0930 C.3       9 GLL5        0.0000 
     67 CA         -0.1440  -26.0200  -34.0800 C.3       6 GLP5        0.0000 
     68 CA          2.3610  -24.8270  -30.0290 C.3       3 GLC5        0.0000 
     69 CA          4.8573  -23.4818  -33.0050 C.3       3 GLC5        0.0000 
     70 CA          2.6067  -24.0213  -34.0735 C.3       3 GLC5        0.0000 
     71 CA          1.9800  -23.7890  -36.0310 C.3       6 GLP5        0.0000 
     72 CA          1.0035  -22.3890  -32.6720 C.3       3 GLC5        0.0000 
     73 CA         -0.2240  -21.0280  -33.6730 C.3       6 GLP5        0.0000 
     74 CA          2.8020  -20.4635  -30.4505 C.3       3 GLC5        0.0000 
     75 CA          3.6800  -21.1690  -32.1860 C.3       9 GLL5        0.0000 
     76 CA          4.7394  -18.8644  -31.8770 C.3       3 GLC5        0.0000 
     77 CA          5.2420  -17.0750  -32.1050 C.3       6 GLP5        0.0000 
     78 CA          5.2615  -21.6675  -32.9155 C.3       3 GLC5        0.0000 
     79 CA          4.4040  -20.0810  -31.6880 C.3       9 GLL5        0.0000 
     80 CA          4.7085  -20.0380  -33.6785 C.3       3 GLC5        0.0000 
     81 CA          5.3750  -19.4510  -35.4200 C.3       6 GLP5        0.0000 
@<TRIPOS>BOND
@<TRIPOS>SUBSTRUCTURE
     1 ALC1       41 GROUP        1 X    ALC  0     ROOT ALC X 1
     2 SEC2        1 GROUP        1 X    SEC  0     **** SEC X 2
     3 GLC5       13 GROUP        1 X    GLC  0     **** GLC X 6
     4 ALP1       43 GROUP        1 Y    ALP  0     ROOT ALP Y 8
     5 SEP2        3 GROUP        1 Y    SEP  0     **** SEP Y 9
     6 GLP5       15 GROUP        1 Y    GLP  0     **** GLP Y 13
     7 ALL1       42 GROUP        1 Z    ALL  0     ROOT ALL Z 15
     8 SEL2        2 GROUP        1 Z    SEL  0     **** SEL Z 16
     9 GLL5       14 GROUP        1 Z    GLL  0     **** GLL Z 20
@<TRIPOS>SET

