#    Name: 1n46_PFA_2_ligand
#    Modification time : Tue Mar 25 12:22:40 2014

@<TRIPOS>MOLECULE
1n46_PFA_2_ligand
   48    50     1     0     0
SMALL
NO_CHARGES


@<TRIPOS>ATOM
      1 O9          7.6990  -18.3050  -23.8490 O.2       1 PFA463      0.0000 
      2 C14         6.8810  -17.4100  -23.9170 C.2       1 PFA463      0.0000 
      3 N6          6.7080  -16.4340  -22.9800 N.am      1 PFA463      0.0000 
      4 C10         5.7590  -15.5020  -23.1320 C.2       1 PFA463      0.0000 
      5 O8          5.5340  -14.6090  -22.3300 O.2       1 PFA463      0.0000 
      6 N5          6.0900  -17.3470  -24.9940 N.am      1 PFA463      0.0000 
      7 N3          5.0670  -16.3880  -25.2240 N.2       1 PFA463      0.0000 
      8 C17         4.9180  -15.5200  -24.3430 C.2       1 PFA463      0.0000 
      9 C4          6.1570  -18.3400  -25.9590 C.ar      1 PFA463      0.0000 
     10 C5          5.0460  -19.2110  -25.9130 C.ar      1 PFA463      0.0000 
     11 C6          5.0250  -20.3130  -26.7970 C.ar      1 PFA463      0.0000 
     12 C7          3.8500  -21.2630  -26.7680 C.3       1 PFA463      0.0000 
     13 C3          7.2480  -18.5400  -26.8770 C.ar      1 PFA463      0.0000 
     14 C2          7.2200  -19.6480  -27.7980 C.ar      1 PFA463      0.0000 
     15 C19         8.3630  -19.8160  -28.7930 C.3       1 PFA463      0.0000 
     16 C1          6.0720  -20.5330  -27.7590 C.ar      1 PFA463      0.0000 
     17 O20         5.9590  -21.6210  -28.6640 O.3       1 PFA463      0.0000 
     18 C21         5.1950  -21.4510  -29.8090 C.ar      1 PFA463      0.0000 
     19 C31         5.1830  -20.1960  -30.5360 C.ar      1 PFA463      0.0000 
     20 C22         4.4270  -22.5330  -30.3150 C.ar      1 PFA463      0.0000 
     21 C24         3.6790  -22.4130  -31.5130 C.ar      1 PFA463      0.0000 
     22 C25         2.8480  -23.5880  -32.0930 C.3       1 PFA463      0.0000 
     23 C8          3.6190  -24.9190  -32.1390 C.3       1 PFA463      0.0000 
     24 C9          1.6140  -23.9120  -31.2490 C.3       1 PFA463      0.0000 
     25 C26         3.6800  -21.1690  -32.1860 C.ar      1 PFA463      0.0000 
     26 C29         4.4040  -20.0810  -31.6880 C.ar      1 PFA463      0.0000 
     27 O27         2.9600  -20.9900  -33.3600 O.3       1 PFA463      0.0000 
     28 H           7.3287  -16.4233  -22.1382 H         1 PFA463      0.0000 
     29 H           4.2074  -14.7432  -24.3703 H         1 PFA463      0.0000 
     30 H           4.2887  -19.0510  -25.2672 H         1 PFA463      0.0000 
     31 H           8.0340  -17.9034  -26.8759 H         1 PFA463      0.0000 
     32 H           5.7428  -19.4255  -30.1909 H         1 PFA463      0.0000 
     33 H           4.4139  -23.4239  -29.7994 H         1 PFA463      0.0000 
     34 H           2.5217  -23.3573  -33.0879 H         1 PFA463      0.0000 
     35 H           4.3603  -19.1738  -32.1844 H         1 PFA463      0.0000 
     36 H           3.9506  -21.9987  -27.4377 H         1 PFA463      0.0000 
     37 H           3.7434  -21.6946  -25.8723 H         1 PFA463      0.0000 
     38 H           2.9897  -20.7960  -26.9726 H         1 PFA463      0.0000 
     39 H           9.2425  -19.9337  -28.3319 H         1 PFA463      0.0000 
     40 H           8.2303  -20.6149  -29.3796 H         1 PFA463      0.0000 
     41 H           8.4514  -19.0221  -29.3946 H         1 PFA463      0.0000 
     42 H           4.4395  -24.8535  -32.7069 H         1 PFA463      0.0000 
     43 H           3.9150  -25.2084  -31.2287 H         1 PFA463      0.0000 
     44 H           3.0608  -25.6588  -32.5147 H         1 PFA463      0.0000 
     45 H           1.8604  -24.1719  -30.3153 H         1 PFA463      0.0000 
     46 H           0.9943  -23.1300  -31.1817 H         1 PFA463      0.0000 
     47 H           1.0885  -24.6700  -31.6352 H         1 PFA463      0.0000 
     48 H           3.6437  -20.7471  -34.0482 H         1 PFA463      0.0000 
@<TRIPOS>BOND
     1    2    1 2    
     2    3    2 am   
     3    6    2 am   
     4    4    3 am   
     5   28    3 1    
     6    5    4 2    
     7    8    4 1    
     8    7    6 1    
     9    9    6 1    
    10    8    7 2    
    11   29    8 1    
    12   10    9 ar   
    13   13    9 ar   
    14   11   10 ar   
    15   30   10 1    
    16   12   11 1    
    17   16   11 ar   
    18   36   12 1    
    19   37   12 1    
    20   38   12 1    
    21   14   13 ar   
    22   31   13 1    
    23   15   14 1    
    24   16   14 ar   
    25   39   15 1    
    26   40   15 1    
    27   41   15 1    
    28   17   16 1    
    29   18   17 1    
    30   19   18 ar   
    31   20   18 ar   
    32   26   19 ar   
    33   32   19 1    
    34   21   20 ar   
    35   33   20 1    
    36   22   21 1    
    37   25   21 ar   
    38   23   22 1    
    39   24   22 1    
    40   34   22 1    
    41   42   23 1    
    42   43   23 1    
    43   44   23 1    
    44   45   24 1    
    45   46   24 1    
    46   47   24 1    
    47   26   25 ar   
    48   27   25 1    
    49   35   26 1    
    50   48   27 1    
@<TRIPOS>SUBSTRUCTURE
     1 PFA463      1 GROUP   
@<TRIPOS>SET

