#    Name: 2A8G_1_CAVITY_N1_6.mol2
#    Modification time : Tue Mar 11 00:58:00 2014

@<TRIPOS>MOLECULE
2A8G_1_CAVITY_N1_6.mol2
   83     0     5     0     0
SMALL
NO_CHARGES


@<TRIPOS>ATOM
      1 OG         11.0105    3.8986   -0.0493 O.2       1 SER1        0.0000 
      2 OG          9.6829    3.9179    0.6487 O.2       1 SER1        0.0000 
      3 CZ         11.1466    2.4351    0.2500 C.ar      3 PHE5        0.0000 
      4 CA          9.8191    2.4544    0.9481 C.3       4 GLY6        0.0000 
      5 CZ         12.6103    0.9523   -0.1488 C.ar      3 PHE5        0.0000 
      6 DU         11.2827    0.9716    0.5493 H         5 CUB7        0.0000 
      7 DU          9.9552    0.9909    1.2474 H         5 CUB7        0.0000 
      8 CA          8.6277    1.0102    1.9455 C.3       4 GLY6        0.0000 
      9 N          14.0739   -0.5305   -0.5475 N.2       2 ALA2        0.0000 
     10 DU         12.7464   -0.5112    0.1506 H         5 CUB7        0.0000 
     11 DU         10.0913   -0.4726    1.5467 H         5 CUB7        0.0000 
     12 CA          8.7638   -0.4533    2.2448 C.3       4 GLY6        0.0000 
     13 N          14.2100   -1.9940   -0.2482 N.2       2 ALA2        0.0000 
     14 CA         12.8825   -1.9747    0.4499 C.3       4 GLY6        0.0000 
     15 DU         11.5550   -1.9554    1.1480 H         5 CUB7        0.0000 
     16 DU          8.8999   -1.9168    2.5441 H         5 CUB7        0.0000 
     17 CA         13.0186   -3.4382    0.7492 C.3       4 GLY6        0.0000 
     18 DU         11.6911   -3.4189    1.4473 H         5 CUB7        0.0000 
     19 DU         10.3636   -3.3997    2.1454 H         5 CUB7        0.0000 
     20 CZ         11.8315    2.7634    1.5435 C.ar      3 PHE5        0.0000 
     21 O          10.5040    2.7827    2.2415 O.2       2 ALA2        0.0000 
     22 CZ         13.2952    1.2806    1.1447 C.ar      3 PHE5        0.0000 
     23 CZ         11.9677    1.2999    1.8428 C.ar      3 PHE5        0.0000 
     24 CZ         10.6401    1.3191    2.5409 C.ar      3 PHE5        0.0000 
     25 CA          9.3126    1.3384    3.2389 C.3       4 GLY6        0.0000 
     26 CA         14.7589   -0.2022    0.7460 C.3       4 GLY6        0.0000 
     27 OG         13.4313   -0.1830    1.4441 O.2       1 SER1        0.0000 
     28 DU         12.1038   -0.1637    2.1421 H         5 CUB7        0.0000 
     29 DU         10.7763   -0.1444    2.8402 H         5 CUB7        0.0000 
     30 CA          9.4487   -0.1251    3.5383 C.3       4 GLY6        0.0000 
     31 CA         13.5675   -1.6465    1.7434 C.3       4 GLY6        0.0000 
     32 DU         12.2399   -1.6272    2.4415 H         5 CUB7        0.0000 
     33 DU          9.5849   -1.5886    3.8376 H         5 CUB7        0.0000 
     34 CZ          8.2573   -1.5693    4.5357 C.ar      3 PHE5        0.0000 
     35 CA         13.7036   -3.1100    2.0427 C.3       4 GLY6        0.0000 
     36 DU         12.3761   -3.0907    2.7408 H         5 CUB7        0.0000 
     37 DU         11.0485   -3.0714    3.4389 H         5 CUB7        0.0000 
     38 DU          9.7210   -3.0521    4.1369 H         5 CUB7        0.0000 
     39 CZ          8.3935   -3.0328    4.8350 C.ar      3 PHE5        0.0000 
     40 CA         13.8397   -4.5735    2.3420 C.3       4 GLY6        0.0000 
     41 CA         12.5122   -4.5542    3.0401 C.3       4 GLY6        0.0000 
     42 CA         13.9758   -6.0370    2.6414 C.3       4 GLY6        0.0000 
     43 CZ         11.3251    1.6474    3.8344 C.ar      3 PHE5        0.0000 
     44 OG          9.9976    1.6667    4.5324 O.2       1 SER1        0.0000 
     45 OG         14.1163    0.1453    2.7375 O.2       1 SER1        0.0000 
     46 CZ         12.7887    0.1646    3.4356 C.ar      3 PHE5        0.0000 
     47 CZ         11.4612    0.1839    4.1337 C.ar      3 PHE5        0.0000 
     48 OG         10.1337    0.2032    4.8318 O.2       1 SER1        0.0000 
     49 CA          8.8062    0.2225    5.5298 C.3       4 GLY6        0.0000 
     50 OG         14.2524   -1.3182    3.0369 O.2       1 SER1        0.0000 
     51 DU         12.9249   -1.2989    3.7349 H         5 CUB7        0.0000 
     52 DU         11.5973   -1.2796    4.4330 H         5 CUB7        0.0000 
     53 DU         10.2698   -1.2603    5.1311 H         5 CUB7        0.0000 
     54 CZ          8.9423   -1.2410    5.8291 C.ar      3 PHE5        0.0000 
     55 CA         14.3885   -2.7817    3.3362 C.3       4 GLY6        0.0000 
     56 OG         13.0610   -2.7624    4.0343 O.2       1 SER1        0.0000 
     57 CA         11.7335   -2.7431    4.7323 C.3       4 GLY6        0.0000 
     58 CA         10.4059   -2.7238    5.4304 C.3       4 GLY6        0.0000 
     59 CA         13.1971   -4.2259    4.3336 C.3       4 GLY6        0.0000 
     60 CZ         12.1462    0.5122    5.4272 C.ar      3 PHE5        0.0000 
     61 OG         10.8186    0.5314    6.1252 O.2       1 SER1        0.0000 
     62 CZ          9.4911    0.5507    6.8233 C.ar      3 PHE5        0.0000 
     63 CZ         13.6098   -0.9707    5.0284 C.ar      3 PHE5        0.0000 
     64 DU         12.2823   -0.9514    5.7265 H         5 CUB7        0.0000 
     65 CZ         10.9548   -0.9321    6.4246 C.ar      3 PHE5        0.0000 
     66 CZ          9.6272   -0.9128    7.1226 C.ar      3 PHE5        0.0000 
     67 OG         13.7459   -2.4342    5.3278 O.2       1 SER1        0.0000 
     68 N          12.4184   -2.4149    6.0258 N.2       2 ALA2        0.0000 
     69 N          11.0909   -2.3956    6.7239 N.2       2 ALA2        0.0000 
     70 OG         12.9672   -0.6231    7.0200 O.2       1 SER1        0.0000 
     71 CZ         11.6397   -0.6038    7.7180 C.ar      3 PHE5        0.0000 
     72 OG         10.3255    3.5704   -1.3428 O.2       1 SER1        0.0000 
     73 OG          8.9980    3.5897   -0.6447 O.2       1 SER1        0.0000 
     74 CZ         10.4617    2.1068   -1.0435 C.ar      3 PHE5        0.0000 
     75 DU          9.1341    2.1261   -0.3454 H         5 CUB7        0.0000 
     76 CA          7.8066    2.1454    0.3526 C.3       4 GLY6        0.0000 
     77 CZ         11.9253    0.6240   -1.4422 C.ar      3 PHE5        0.0000 
     78 DU         10.5978    0.6433   -0.7442 H         5 CUB7        0.0000 
     79 DU          9.2703    0.6626   -0.0461 H         5 CUB7        0.0000 
     80 N          13.3890   -0.8588   -1.8410 N.2       2 ALA2        0.0000 
     81 DU         12.0614   -0.8395   -1.1429 H         5 CUB7        0.0000 
     82 N          13.5251   -2.3223   -1.5417 N.2       2 ALA2        0.0000 
     83 DU         12.1976   -2.3030   -0.8436 H         5 CUB7        0.0000 
@<TRIPOS>BOND
@<TRIPOS>SUBSTRUCTURE
     1 SER1        1 GROUP   
     2 ALA2        9 GROUP   
     3 PHE5        3 GROUP   
     4 GLY6        4 GROUP   
     5 CUB7        6 GROUP   
@<TRIPOS>SET

