#    Name: 2a8g_GNG_1_ligand
#    Modification time : Mon Mar 24 18:38:11 2014

@<TRIPOS>MOLECULE
2a8g_GNG_1_ligand
   32    34     1     0     0
SMALL
NO_CHARGES


@<TRIPOS>ATOM
      1 O5'         9.3980    3.5290    0.1720 O.3       1 GNG201      0.0000 
      2 C5'         9.7610    2.1560    0.2790 C.3       1 GNG201      0.0000 
      3 C4'        10.9090    2.1550    1.2640 C.3       1 GNG201      0.0000 
      4 O4'        10.3990    1.8720    2.5630 O.3       1 GNG201      0.0000 
      5 C1'        11.4440    1.2120    3.2680 C.3       1 GNG201      0.0000 
      6 N9         11.0050    0.6070    4.5510 N.pl3     1 GNG201      0.0000 
      7 C8          9.8890    0.9350    5.2250 C.2       1 GNG201      0.0000 
      8 N7          9.8400    0.1690    6.3250 N.2       1 GNG201      0.0000 
      9 C5         10.9410   -0.6090    6.3430 C.2       1 GNG201      0.0000 
     10 C4         11.6880   -0.3360    5.2230 C.2       1 GNG201      0.0000 
     11 N3         12.8630   -1.0100    5.0090 N.pl3     1 GNG201      0.0000 
     12 C2         13.2930   -1.9410    5.9120 C.2       1 GNG201      0.0000 
     13 N1         12.5570   -2.2150    6.9990 N.2       1 GNG201      0.0000 
     14 C6         11.4090   -1.5690    7.2070 C.2       1 GNG201      0.0000 
     15 O6         10.7720   -1.8490    8.2170 O.2       1 GNG201      0.0000 
     16 N2         14.4390   -2.6400    5.7710 N.pl3     1 GNG201      0.0000 
     17 C2'        11.9820    0.2230    2.2550 C.3       1 GNG201      0.0000 
     18 C3'        11.9530    1.0830    1.0060 C.3       1 GNG201      0.0000 
     19 O3'        13.2210    1.7220    0.9510 O.3       1 GNG201      0.0000 
     20 H          10.1112    1.7542   -0.6553 H         1 GNG201      0.0000 
     21 H           8.9645    1.5552    0.6810 H         1 GNG201      0.0000 
     22 H          11.3939    3.1142    1.2583 H         1 GNG201      0.0000 
     23 H          12.2534    1.9331    3.4540 H         1 GNG201      0.0000 
     24 H           9.2430    1.5997    4.9639 H         1 GNG201      0.0000 
     25 H          13.4239   -0.8114    4.1607 H         1 GNG201      0.0000 
     26 H          15.1142   -2.5299    6.5004 H         1 GNG201      0.0000 
     27 H          14.5110   -3.2058    4.9496 H         1 GNG201      0.0000 
     28 H          11.3207   -0.5846    2.1515 H         1 GNG201      0.0000 
     29 H          12.9707   -0.0352    2.4915 H         1 GNG201      0.0000 
     30 H          11.7165    0.5231    0.1836 H         1 GNG201      0.0000 
     31 H          10.2321    4.0350    0.3917 H         1 GNG201      0.0000 
     32 H          13.8719    1.0330    1.2697 H         1 GNG201      0.0000 
@<TRIPOS>BOND
     1    2    1 1    
     2   31    1 1    
     3    3    2 1    
     4   20    2 1    
     5   21    2 1    
     6    4    3 1    
     7   18    3 1    
     8   22    3 1    
     9    5    4 1    
    10    6    5 1    
    11   17    5 1    
    12   23    5 1    
    13    7    6 1    
    14   10    6 1    
    15    8    7 2    
    16   24    7 1    
    17    9    8 1    
    18   10    9 2    
    19   14    9 1    
    20   11   10 1    
    21   12   11 1    
    22   25   11 1    
    23   13   12 2    
    24   16   12 1    
    25   14   13 1    
    26   15   14 2    
    27   26   16 1    
    28   27   16 1    
    29   18   17 1    
    30   28   17 1    
    31   29   17 1    
    32   19   18 1    
    33   30   18 1    
    34   32   19 1    
@<TRIPOS>SUBSTRUCTURE
     1 GNG201      1 GROUP   
@<TRIPOS>SET

