#    Name: 2uvz_GVJ_1_INTS_M
#    Modification time : Tue Mar 25 00:22:58 2014

@<TRIPOS>MOLECULE
2uvz_GVJ_1_INTS_M
   70     0    12     0     0
SMALL
NO_CHARGES


@<TRIPOS>ATOM
      1 OD1        11.5235    7.8275    1.3885 O.co2     3 ASC3        0.0000 
      2 OD1        11.7140    7.5170    2.9130 O.co2    11 ASL3        0.0000 
      3 OD1        11.3330    8.1380   -0.1360 O.co2     7 ASP3        0.0000 
      4 OD1        10.9085    6.9510    1.5880 O.co2     3 ASC3        0.0000 
      5 OD1        10.1030    6.3850    0.2630 O.co2     7 ASP3        0.0000 
      6 O          11.4605    6.2440    3.5140 O.2       1 ALC1        0.0000 
      7 O          11.7140    7.5170    2.9130 O.2       9 ALL1        0.0000 
      8 O          11.2070    4.9710    4.1150 O.2       5 ALP1        0.0000 
      9 O          11.5235    7.8275    1.3885 O.2       1 ALC1        0.0000 
     10 O          11.3330    8.1380   -0.1360 O.2       5 ALP1        0.0000 
     11 O          10.9085    6.9510    1.5880 O.2       1 ALC1        0.0000 
     12 O          10.1030    6.3850    0.2630 O.2       5 ALP1        0.0000 
     13 CA          7.1975    7.6530    1.0210 C.3       4 GLC5        0.0000 
     14 CA          7.7910    8.9630    2.5400 C.3      12 GLL5        0.0000 
     15 CA          6.6040    6.3430   -0.4980 C.3       8 GLP5        0.0000 
     16 CA          7.5975   11.4615    6.0320 C.3       4 GLC5        0.0000 
     17 CA          7.9430    9.8390    4.7620 C.3      12 GLL5        0.0000 
     18 CA          7.2520   13.0840    7.3020 C.3       8 GLP5        0.0000 
     19 CA         10.5585   11.1955    5.6685 C.3       4 GLC5        0.0000 
     20 CA          9.3050    9.6150    4.7560 C.3      12 GLL5        0.0000 
     21 CA         11.8120   12.7760    6.5810 C.3       8 GLP5        0.0000 
     22 CA          8.8555   11.5170    3.7920 C.3       4 GLC5        0.0000 
     23 CA          8.4060   13.4190    2.8280 C.3       8 GLP5        0.0000 
     24 CA          4.3240   11.5110    5.8090 C.3       4 GLC5        0.0000 
     25 CA          3.7920    9.8940    4.9560 C.3      12 GLL5        0.0000 
     26 CA          4.8560   13.1280    6.6620 C.3       8 GLP5        0.0000 
     27 CA          3.4230   11.4080    3.6225 C.3       4 GLC5        0.0000 
     28 CA          3.0540   12.9220    2.2890 C.3       8 GLP5        0.0000 
     29 CA          2.3630    8.2715    4.9240 C.3       4 GLC5        0.0000 
     30 CA          0.9340    6.6490    4.8920 C.3       8 GLP5        0.0000 
     31 CA          4.5935    7.9220    4.3805 C.3       4 GLC5        0.0000 
     32 CA          5.3950    5.9500    3.8050 C.3       8 GLP5        0.0000 
     33 N           1.5355    9.4260    4.3760 N.am      2 SEC2        0.0000 
     34 N           2.9090    9.8970    3.9550 N.am     10 SEL2        0.0000 
     35 N           0.1620    8.9550    4.7970 N.am      6 SEP2        0.0000 
     36 CA          1.4580   10.4085    3.2855 C.3       4 GLC5        0.0000 
     37 CA          3.5110    9.7800    2.7610 C.3      12 GLL5        0.0000 
     38 CA         -0.5950   11.0370    3.8100 C.3       8 GLP5        0.0000 
     39 O           1.5585    9.9625    1.3880 O.2       1 ALC1        0.0000 
     40 O           2.9410    9.7460    1.5230 O.2       9 ALL1        0.0000 
     41 O           0.1760   10.1790    1.2530 O.2       5 ALP1        0.0000 
     42 CA          5.0240    7.9390    1.2675 C.3       4 GLC5        0.0000 
     43 CA          4.8750    9.6630    2.5500 C.3      12 GLL5        0.0000 
     44 CA          5.1730    6.2150   -0.0150 C.3       8 GLP5        0.0000 
     45 CA         12.7467   11.8867    4.9915 C.3       4 GLC5        0.0000 
     46 CA         13.3320   10.4660    3.6690 C.3      12 GLL5        0.0000 
     47 CA         14.3570   13.1567    3.8855 C.3       4 GLC5        0.0000 
     48 CA         14.0310   11.5290    3.1350 C.3      12 GLL5        0.0000 
     49 CA         14.8990   14.4870    5.2190 C.3       8 GLP5        0.0000 
     50 CA         12.7175   13.8972    1.9175 C.3       4 GLC5        0.0000 
     51 CA         13.5990   12.1240    1.9690 C.3      12 GLL5        0.0000 
     52 CA         12.3990   15.9050    2.1850 C.3       8 GLP5        0.0000 
     53 CA         10.6226   11.8435    1.7516 C.3       4 GLC5        0.0000 
     54 CA         12.4730   11.6550    1.3310 C.3      12 GLL5        0.0000 
     55 CA          9.0180   12.7140    1.6130 C.3       8 GLP5        0.0000 
     56 CA          8.7673    7.0705    3.7190 C.3       4 GLC5        0.0000 
     57 CA          9.1530    8.7470    2.5320 C.3      12 GLL5        0.0000 
     58 CA          7.9960    5.2330    4.3520 C.3       8 GLP5        0.0000 
     59 CA          8.8414   10.8247    2.2130 C.3       4 GLC5        0.0000 
     60 CA          9.9240    9.0690    3.6400 C.3      12 GLL5        0.0000 
     61 CA          7.0875    7.7560    4.0557 C.3       4 GLC5        0.0000 
     62 CA          6.6940    6.2650    5.0180 C.3       8 GLP5        0.0000 
     63 CA          7.2190   11.4750    3.5157 C.3       4 GLC5        0.0000 
     64 CA          7.1710    9.5310    3.6470 C.3      12 GLL5        0.0000 
     65 CA          6.8810   13.2650    2.8270 C.3       8 GLP5        0.0000 
     66 CA          7.6590    7.9960    4.8885 C.3       4 GLC5        0.0000 
     67 CA          6.0825   11.4750    2.9705 C.3       4 GLC5        0.0000 
     68 CA          5.6930    9.7070    3.6780 C.3      12 GLL5        0.0000 
     69 CA          3.7258   11.3272    2.6133 C.3       4 GLC5        0.0000 
     70 CA          4.8962    7.8413    3.3713 C.3       4 GLC5        0.0000 
@<TRIPOS>BOND
@<TRIPOS>SUBSTRUCTURE
     1 ALC1        6 GROUP        1 X    ALC  0     ROOT ALC X 1
     2 SEC2       33 GROUP        1 X    SEC  0     **** SEC X 2
     3 ASC3        1 GROUP        1 X    ASC  0     **** ASC X 3
     4 GLC5       13 GROUP        1 X    GLC  0     **** GLC X 6
     5 ALP1        8 GROUP        1 Y    ALP  0     ROOT ALP Y 8
     6 SEP2       35 GROUP        1 Y    SEP  0     **** SEP Y 9
     7 ASP3        3 GROUP        1 Y    ASP  0     **** ASP Y 10
     8 GLP5       15 GROUP        1 Y    GLP  0     **** GLP Y 13
     9 ALL1        7 GROUP        1 Z    ALL  0     ROOT ALL Z 15
    10 SEL2       34 GROUP        1 Z    SEL  0     **** SEL Z 16
    11 ASL3        2 GROUP        1 Z    ASL  0     **** ASL Z 17
    12 GLL5       14 GROUP        1 Z    GLL  0     **** GLL Z 20
@<TRIPOS>SET

