#    Name: 2uvz_GVJ_1_ligand
#    Modification time : Tue Mar 25 00:22:58 2014

@<TRIPOS>MOLECULE
2uvz_GVJ_1_ligand
   39    42     1     0     0
SMALL
NO_CHARGES


@<TRIPOS>ATOM
      1 N1         11.7140    7.5170    2.9130 N.4       1 GVJ1351     0.0000 
      2 C2         11.4220    8.8230    3.6330 C.3       1 GVJ1351     0.0000 
      3 C3         12.1910    9.9890    3.0390 C.ar      1 GVJ1351     0.0000 
      4 C4         13.3320   10.4660    3.6690 C.ar      1 GVJ1351     0.0000 
      5 C5         14.0310   11.5290    3.1350 C.ar      1 GVJ1351     0.0000 
      6 C6         13.5990   12.1240    1.9690 C.ar      1 GVJ1351     0.0000 
      7 C7         12.4730   11.6550    1.3310 C.ar      1 GVJ1351     0.0000 
      8 C8         11.7720   10.5930    1.8600 C.ar      1 GVJ1351     0.0000 
      9 C9          9.9240    9.0690    3.6400 C.ar      1 GVJ1351     0.0000 
     10 C10         9.1530    8.7470    2.5320 C.ar      1 GVJ1351     0.0000 
     11 C11         7.7910    8.9630    2.5400 C.ar      1 GVJ1351     0.0000 
     12 C12         7.1710    9.5310    3.6470 C.ar      1 GVJ1351     0.0000 
     13 C13         7.9430    9.8390    4.7620 C.ar      1 GVJ1351     0.0000 
     14 C14         9.3050    9.6150    4.7560 C.ar      1 GVJ1351     0.0000 
     15 C15         5.6930    9.7070    3.6780 C.ar      1 GVJ1351     0.0000 
     16 N16         5.1240    9.7880    4.8950 N.ar      1 GVJ1351     0.0000 
     17 C17         3.7920    9.8940    4.9560 C.ar      1 GVJ1351     0.0000 
     18 N18         2.9090    9.8970    3.9550 N.ar      1 GVJ1351     0.0000 
     19 C19         3.5110    9.7800    2.7610 C.ar      1 GVJ1351     0.0000 
     20 N20         2.9410    9.7460    1.5230 N.pl3     1 GVJ1351     0.0000 
     21 C21         3.9360    9.6180    0.6100 C.2       1 GVJ1351     0.0000 
     22 N22         5.1400    9.5670    1.1820 N.2       1 GVJ1351     0.0000 
     23 C23         4.8750    9.6630    2.5500 C.ar      1 GVJ1351     0.0000 
     24 H          11.7402    8.6992    4.6798 H         1 GVJ1351     0.0000 
     25 H          13.6568   10.0202    4.5425 H         1 GVJ1351     0.0000 
     26 H          14.8787   11.8788    3.6098 H         1 GVJ1351     0.0000 
     27 H          14.1216   12.9230    1.5741 H         1 GVJ1351     0.0000 
     28 H          12.1527   12.0990    0.4550 H         1 GVJ1351     0.0000 
     29 H          10.9274   10.2394    1.3797 H         1 GVJ1351     0.0000 
     30 H           9.6070    8.3421    1.6956 H         1 GVJ1351     0.0000 
     31 H           7.2212    8.7017    1.7171 H         1 GVJ1351     0.0000 
     32 H           7.4887   10.2389    5.6001 H         1 GVJ1351     0.0000 
     33 H           9.8712    9.8545    5.5871 H         1 GVJ1351     0.0000 
     34 H           3.3664    9.9922    5.9720 H         1 GVJ1351     0.0000 
     35 H           2.0032    9.8027    1.3353 H         1 GVJ1351     0.0000 
     36 H           3.7745    9.5691   -0.3669 H         1 GVJ1351     0.0000 
     37 H          11.2034    6.7531    3.3076 H         1 GVJ1351     0.0000 
     38 H          11.4691    7.5640    1.9446 H         1 GVJ1351     0.0000 
     39 H          12.6835    7.2763    2.9589 H         1 GVJ1351     0.0000 
@<TRIPOS>BOND
     1    2    1 1    
     2   37    1 1    
     3   38    1 1    
     4   39    1 1    
     5    3    2 1    
     6    9    2 1    
     7   24    2 1    
     8    4    3 ar   
     9    8    3 ar   
    10    5    4 ar   
    11   25    4 1    
    12    6    5 ar   
    13   26    5 1    
    14    7    6 ar   
    15   27    6 1    
    16    8    7 ar   
    17   28    7 1    
    18   29    8 1    
    19   10    9 ar   
    20   14    9 ar   
    21   11   10 ar   
    22   30   10 1    
    23   12   11 ar   
    24   31   11 1    
    25   13   12 ar   
    26   15   12 1    
    27   14   13 ar   
    28   32   13 1    
    29   33   14 1    
    30   16   15 ar   
    31   23   15 ar   
    32   17   16 ar   
    33   18   17 ar   
    34   34   17 1    
    35   19   18 ar   
    36   20   19 1    
    37   23   19 ar   
    38   21   20 1    
    39   35   20 1    
    40   22   21 2    
    41   36   21 1    
    42   23   22 1    
@<TRIPOS>SUBSTRUCTURE
     1 GVJ1351     1 GROUP   
@<TRIPOS>SET

