#    Name: 2GG9_1_CAVITY_N1_ALL.mol2
#    Modification time : Mon Mar 10 14:41:59 2014

@<TRIPOS>MOLECULE
2GG9_1_CAVITY_N1_ALL.mol2
  102     0     6     0     0
SMALL
NO_CHARGES


@<TRIPOS>ATOM
      1 O          -8.5542   -2.1385    4.0170 O.2       2 ALA2        0.0000 
      2 CZ         -9.5613   -3.1936    6.6385 C.ar      4 PHE5        0.0000 
      3 CZ        -10.0649   -3.7212    7.9492 C.ar      4 PHE5        0.0000 
      4 CZ         -8.1554   -1.0303    6.3328 C.ar      4 PHE5        0.0000 
      5 CZ         -8.6590   -1.5579    7.6435 C.ar      4 PHE5        0.0000 
      6 OG         -7.2116   -1.8836    4.6354 O.2       1 SER1        0.0000 
      7 CZ         -7.7151   -2.4112    5.9461 C.ar      4 PHE5        0.0000 
      8 CZ         -8.2187   -2.9387    7.2569 C.ar      4 PHE5        0.0000 
      9 CZ         -8.7223   -3.4663    8.5676 C.ar      4 PHE5        0.0000 
     10 DU         -7.2749   -3.7920    5.5595 H         6 CUB7        0.0000 
     11 DU         -7.7784   -4.3196    6.8703 H         6 CUB7        0.0000 
     12 O          -8.2820   -4.8471    8.1810 O.2       2 ALA2        0.0000 
     13 CZ         -7.7566    0.0778    8.6486 C.ar      4 PHE5        0.0000 
     14 CZ         -7.3164   -1.3030    8.2619 C.ar      4 PHE5        0.0000 
     15 OG         -5.8690   -1.6287    5.2538 O.2       1 SER1        0.0000 
     16 CZ         -6.3725   -2.1562    6.5646 C.ar      4 PHE5        0.0000 
     17 DU         -6.8761   -2.6838    7.8753 H         6 CUB7        0.0000 
     18 O          -7.3797   -3.2114    9.1861 O.2       2 ALA2        0.0000 
     19 DU         -5.4287   -3.0095    4.8672 H         6 CUB7        0.0000 
     20 DU         -5.9323   -3.5371    6.1779 H         6 CUB7        0.0000 
     21 O          -6.4358   -4.0646    7.4887 O.2       2 ALA2        0.0000 
     22 CZ         -5.9956   -5.4455    7.1021 C.ar      4 PHE5        0.0000 
     23 CZ         -6.8543    1.7136    9.6536 C.ar      4 PHE5        0.0000 
     24 CZ         -7.3579    1.1860   10.9644 C.ar      4 PHE5        0.0000 
     25 CZ         -5.9105    0.8603    7.9562 C.ar      4 PHE5        0.0000 
     26 CZ         -6.4140    0.3328    9.2670 C.ar      4 PHE5        0.0000 
     27 CZ         -6.9176   -0.1948   10.5777 C.ar      4 PHE5        0.0000 
     28 CZ         -5.4702   -0.5205    7.5696 C.ar      4 PHE5        0.0000 
     29 N          -5.9738   -1.0481    8.8804 N.2       2 ALA2        0.0000 
     30 O          -6.4774   -1.5756   10.1911 O.2       2 ALA2        0.0000 
     31 OG         -4.0228   -0.8462    4.5615 O.2       1 SER1        0.0000 
     32 OG         -4.5264   -1.3737    5.8722 O.2       1 SER1        0.0000 
     33 CZ         -5.0299   -1.9013    7.1830 C.ar      4 PHE5        0.0000 
     34 N          -5.5335   -2.4289    8.4937 N.2       2 ALA2        0.0000 
     35 CA         -3.0789   -1.6994    2.8641 C.3       5 GLY6        0.0000 
     36 N          -3.5825   -2.2270    4.1748 N.2       2 ALA2        0.0000 
     37 DU         -4.0861   -2.7546    5.4856 H         6 CUB7        0.0000 
     38 N          -4.5897   -3.2821    6.7963 N.2       2 ALA2        0.0000 
     39 DU         -3.1422   -3.6078    3.7882 H         6 CUB7        0.0000 
     40 DU         -3.6458   -4.1354    5.0990 H         6 CUB7        0.0000 
     41 CZ         -4.1494   -4.6630    6.4097 C.ar      4 PHE5        0.0000 
     42 CA         -5.0081    2.4961    8.9613 C.3       5 GLY6        0.0000 
     43 CA         -5.5117    1.9685   10.2720 C.3       5 GLY6        0.0000 
     44 CA         -6.0153    1.4409   11.5828 C.3       5 GLY6        0.0000 
     45 CZ         -4.0643    1.6428    7.2639 C.ar      4 PHE5        0.0000 
     46 CZ         -4.5679    1.1153    8.5747 C.ar      4 PHE5        0.0000 
     47 DU         -5.0714    0.5877    9.8854 H         6 CUB7        0.0000 
     48 CA         -5.5750    0.0601   11.1962 C.3       5 GLY6        0.0000 
     49 N          -3.6240    0.2620    6.8773 N.2       2 ALA2        0.0000 
     50 DU         -4.1276   -0.2656    8.1880 H         6 CUB7        0.0000 
     51 N          -4.6312   -0.7931    9.4988 N.2       2 ALA2        0.0000 
     52 N          -3.1838   -1.1188    6.4906 N.2       2 ALA2        0.0000 
     53 N          -3.6873   -1.6464    7.8014 N.2       2 ALA2        0.0000 
     54 N          -2.2399   -1.9721    4.7933 N.2       2 ALA2        0.0000 
     55 N          -2.7435   -2.4997    6.1040 N.2       2 ALA2        0.0000 
     56 N          -3.2471   -3.0272    7.4148 N.2       2 ALA2        0.0000 
     57 DU         -1.7996   -3.3529    4.4066 H         6 CUB7        0.0000 
     58 DU         -2.3032   -3.8805    5.7174 H         6 CUB7        0.0000 
     59 CZ         -2.8068   -4.4081    7.0281 C.ar      4 PHE5        0.0000 
     60 N          -1.3594   -4.7337    4.0200 N.2       2 ALA2        0.0000 
     61 CA         -1.8630   -5.2613    5.3308 C.3       5 GLY6        0.0000 
     62 O          -0.9191   -6.1146    3.6334 O.2       2 ALA2        0.0000 
     63 CZ         -3.2253    1.3702    9.1931 C.ar      4 PHE5        0.0000 
     64 CA         -3.7288    0.8426   10.5038 C.3       5 GLY6        0.0000 
     65 CA         -4.2324    0.3150   11.8146 C.3       5 GLY6        0.0000 
     66 N          -2.2814    0.5169    7.4957 N.2       2 ALA2        0.0000 
     67 DU         -2.7850   -0.0107    8.8065 H         6 CUB7        0.0000 
     68 N          -3.2886   -0.5382   10.1172 N.2       2 ALA2        0.0000 
     69 N          -1.8412   -0.8639    7.1091 N.2       2 ALA2        0.0000 
     70 N          -2.3447   -1.3915    8.4198 N.2       2 ALA2        0.0000 
     71 N          -0.8973   -1.7172    5.4117 N.2       2 ALA2        0.0000 
     72 N          -1.4009   -2.2447    6.7224 N.2       2 ALA2        0.0000 
     73 N          -1.9045   -2.7723    8.0332 N.2       2 ALA2        0.0000 
     74 N           0.0465   -2.5704    3.7143 N.2       2 ALA2        0.0000 
     75 N          -0.4570   -3.0980    5.0251 N.2       2 ALA2        0.0000 
     76 N          -0.9606   -3.6256    6.3358 N.2       2 ALA2        0.0000 
     77 CA         -1.4642   -4.1531    7.6466 C.3       5 GLY6        0.0000 
     78 CZ         -1.9678   -4.6807    8.9573 C.ar      4 PHE5        0.0000 
     79 N          -0.5204   -5.0064    5.9492 N.2       2 ALA2        0.0000 
     80 CZ         -1.8827    1.6251    9.8115 C.ar      4 PHE5        0.0000 
     81 NZ         -2.3862    1.0975   11.1223 N.2       3 LYS4        0.0000 
     82 CA         -2.8898    0.5699   12.4330 C.3       5 GLY6        0.0000 
     83 N          -0.9388    0.7718    8.1141 N.2       2 ALA2        0.0000 
     84 NZ         -1.4424    0.2443    9.4249 N.2       3 LYS4        0.0000 
     85 NZ         -1.9460   -0.2833   10.7356 N.2       3 LYS4        0.0000 
     86 CA         -2.4496   -0.8109   12.0464 C.3       5 GLY6        0.0000 
     87 N          -0.4986   -0.6090    7.7275 N.2       2 ALA2        0.0000 
     88 NZ         -1.0021   -1.1366    9.0382 N.2       3 LYS4        0.0000 
     89 N          -1.5057   -1.6641   10.3490 N.2       2 ALA2        0.0000 
     90 CA          0.4453   -1.4622    6.0301 C.3       5 GLY6        0.0000 
     91 NZ         -0.0583   -1.9898    7.3409 N.2       3 LYS4        0.0000 
     92 NZ         -0.5619   -2.5174    8.6516 N.2       3 LYS4        0.0000 
     93 N          -1.0655   -3.0450    9.9624 N.2       2 ALA2        0.0000 
     94 N           0.3820   -3.3706    6.9542 N.2       2 ALA2        0.0000 
     95 N          -0.1216   -3.8982    8.2650 N.2       2 ALA2        0.0000 
     96 CA         -0.6252   -4.4258    9.5757 C.3       5 GLY6        0.0000 
     97 NZ         -0.1631   -1.4092   10.9674 N.2       3 LYS4        0.0000 
     98 NZ         -0.6667   -1.9368   12.2782 N.2       3 LYS4        0.0000 
     99 NZ          0.2771   -2.7900   10.5808 N.2       3 LYS4        0.0000 
    100 CA         -0.2264   -3.3176   11.8915 C.3       5 GLY6        0.0000 
    101 NZ          1.2210   -3.6433    8.8834 N.2       3 LYS4        0.0000 
    102 O           0.7174   -4.1709   10.1941 O.2       2 ALA2        0.0000 
@<TRIPOS>BOND
@<TRIPOS>SUBSTRUCTURE
     1 SER1        6 GROUP   
     2 ALA2        1 GROUP   
     3 LYS4       81 GROUP   
     4 PHE5        2 GROUP   
     5 GLY6       35 GROUP   
     6 CUB7       10 GROUP   
@<TRIPOS>SET

