#    Name: 2gg9_U16_1_INTS_M
#    Modification time : Tue Mar 25 14:24:06 2014

@<TRIPOS>MOLECULE
2gg9_U16_1_INTS_M
   62     0    12     0     0
SMALL
NO_CHARGES


@<TRIPOS>ATOM
      1 Zn          1.0420    0.4985    7.2780 Zn        3 ZIC7        0.0000 
      2 Zn         -0.0060    0.0110    6.9890 Zn       11 ZIL7        0.0000 
      3 Zn          2.0900    0.9860    7.5670 Zn        7 ZIP7        0.0000 
      4 N          -0.8300    0.4300    5.9330 N.am      2 SEC2        0.0000 
      5 N          -0.0060    0.0110    6.9890 N.am     10 SEL2        0.0000 
      6 N          -1.6540    0.8490    4.8770 N.am      6 SEP2        0.0000 
      7 CA         -1.8345    2.7525    8.5260 C.3       4 GLC5        0.0000 
      8 CA         -1.0730    1.3530    9.4450 C.3      12 GLL5        0.0000 
      9 CA         -2.5960    4.1520    7.6070 C.3       8 GLP5        0.0000 
     10 CA         -8.8270    1.5285   10.6195 C.3       4 GLC5        0.0000 
     11 CA         -7.4110    0.9820    9.8930 C.3      12 GLL5        0.0000 
     12 CA        -10.2430    2.0750   11.3460 C.3       8 GLP5        0.0000 
     13 CA         -8.1515   -0.2575   12.1410 C.3       4 GLC5        0.0000 
     14 CA         -6.8710   -1.0930   11.0650 C.3      12 GLL5        0.0000 
     15 CA         -9.4320    0.5780   13.2170 C.3       8 GLP5        0.0000 
     16 CA         -5.8395   -0.2540   12.6880 C.3       4 GLC5        0.0000 
     17 CA         -4.8080    0.5850   14.3110 C.3       8 GLP5        0.0000 
     18 CA         -6.0900   -2.5165   11.6790 C.3       4 GLC5        0.0000 
     19 CA         -5.3090   -3.9400   12.2930 C.3       8 GLP5        0.0000 
     20 CA         -3.8120    2.6615    9.8270 C.3       4 GLC5        0.0000 
     21 CA         -3.3750    1.0120    8.4560 C.3      12 GLL5        0.0000 
     22 CA         -4.2490    4.3110   11.1980 C.3       8 GLP5        0.0000 
     23 Zn          0.5130    2.0595   10.6105 Zn        3 ZIC7        0.0000 
     24 Zn         -0.5350    2.2320   10.5000 Zn       11 ZIL7        0.0000 
     25 Zn          1.5610    1.8870   10.7210 Zn        7 ZIP7        0.0000 
     26 Zn          1.6540    0.7130    8.4480 Zn        3 ZIC7        0.0000 
     27 Zn          1.2180    0.4400    9.3290 Zn       11 ZIL7        0.0000 
     28 Zn          1.3895    1.1635   10.0250 Zn        3 ZIC7        0.0000 
     29 O           1.9590   -0.6075    9.4050 O.2       1 ALC1        0.0000 
     30 O           1.2180    0.4400    9.3290 O.2       9 ALL1        0.0000 
     31 O           2.7000   -1.6550    9.4810 O.2       5 ALP1        0.0000 
     32 CA         -1.3720   -0.8355    5.1790 C.3       4 GLC5        0.0000 
     33 CA         -1.6310   -2.2510    6.7100 C.3      12 GLL5        0.0000 
     34 CA         -1.1130    0.5800    3.6480 C.3       8 GLP5        0.0000 
     35 CA         -0.4490   -5.1705    7.2370 C.3       4 GLC5        0.0000 
     36 CA         -0.5400   -3.2000    6.2370 C.3      12 GLL5        0.0000 
     37 CA         -0.3580   -7.1410    8.2370 C.3       8 GLP5        0.0000 
     38 CA          0.8655   -1.6355    5.4510 C.3       4 GLC5        0.0000 
     39 CA          2.2710   -0.0710    4.6650 C.3       8 GLP5        0.0000 
     40 CA         -9.6240   -1.2920    5.3610 C.3       4 GLC5        0.0000 
     41 CA         -8.4440   -2.7550    6.2780 C.3      12 GLL5        0.0000 
     42 CA        -10.8040    0.1710    4.4440 C.3       8 GLP5        0.0000 
     43 CA         -9.3180   -2.3675    8.1945 C.3       4 GLC5        0.0000 
     44 CA        -10.1920   -1.9800   10.1110 C.3       8 GLP5        0.0000 
     45 CA         -4.8675   -7.5925    6.5890 C.3       4 GLC5        0.0000 
     46 CA         -5.6450   -7.3930    4.5610 C.3      12 GLL5        0.0000 
     47 CA         -4.0900   -7.7920    8.6170 C.3       8 GLP5        0.0000 
     48 CA         -4.2315    0.4050   12.5613 C.3       4 GLC5        0.0000 
     49 CA         -2.9930    0.4230   10.7620 C.3      12 GLL5        0.0000 
     50 CA         -3.9050   -1.5520   11.3688 C.3       4 GLC5        0.0000 
     51 CA         -4.3170    0.0270   10.8610 C.3      12 GLL5        0.0000 
     52 CA         -4.1550   -3.3290   11.9260 C.3       8 GLP5        0.0000 
     53 CA         -3.8915    2.3330   10.8553 C.3       4 GLC5        0.0000 
     54 CA         -5.0093   -1.7040   10.8637 C.3       4 GLC5        0.0000 
     55 CA         -5.1570    0.1200    9.7620 C.3      12 GLL5        0.0000 
     56 CA         -7.3287    1.1855    8.2065 C.3       4 GLC5        0.0000 
     57 CA         -6.5700   -0.2780    9.8410 C.3      12 GLL5        0.0000 
     58 CA         -7.6670    2.0190    6.5460 C.3       8 GLP5        0.0000 
     59 CA         -8.5614   -1.1753   10.2885 C.3       4 GLC5        0.0000 
     60 CA         -7.0926   -0.5414    5.5695 C.3       4 GLC5        0.0000 
     61 CA         -6.6260   -1.9710    4.7520 C.3      12 GLL5        0.0000 
     62 CA         -7.0200    1.1880    5.6480 C.3       8 GLP5        0.0000 
@<TRIPOS>BOND
@<TRIPOS>SUBSTRUCTURE
     1 ALC1       29 GROUP        1 X    ALC  0     ROOT ALC X 1
     2 SEC2        4 GROUP        1 X    SEC  0     **** SEC X 2
     3 ZIC7        1 GROUP        1 X    ZIC  0     **** ZIC X 5
     4 GLC5        7 GROUP        1 X    GLC  0     **** GLC X 6
     5 ALP1       31 GROUP        1 Y    ALP  0     ROOT ALP Y 8
     6 SEP2        6 GROUP        1 Y    SEP  0     **** SEP Y 9
     7 ZIP7        3 GROUP        1 Y    ZIP  0     **** ZIP Y 12
     8 GLP5        9 GROUP        1 Y    GLP  0     **** GLP Y 13
     9 ALL1       30 GROUP        1 Z    ALL  0     ROOT ALL Z 15
    10 SEL2        5 GROUP        1 Z    SEL  0     **** SEL Z 16
    11 ZIL7        2 GROUP        1 Z    ZIL  0     **** ZIL Z 19
    12 GLL5        8 GROUP        1 Z    GLL  0     **** GLL Z 20
@<TRIPOS>SET

