#    Name: 2gg9_U16_1_ligand
#    Modification time : Tue Mar 25 14:24:06 2014

@<TRIPOS>MOLECULE
2gg9_U16_1_ligand
   65    65     1     0     0
SMALL
NO_CHARGES


@<TRIPOS>ATOM
      1 O31        -0.0060    0.0110    6.9890 O.2       1 U16801      0.0000 
      2 C25        -0.4730   -0.5270    7.9850 C.2       1 U16801      0.0000 
      3 C23        -0.1860    0.0890    9.3230 C.3       1 U16801      0.0000 
      4 C11        -1.0730    1.3530    9.4450 C.3       1 U16801      0.0000 
      5 C7         -2.5090    0.9430    9.5660 C.ar      1 U16801      0.0000 
      6 C3         -2.9930    0.4230   10.7620 C.ar      1 U16801      0.0000 
      7 C6         -4.3170    0.0270   10.8610 C.ar      1 U16801      0.0000 
      8 C5         -5.1570    0.1200    9.7620 C.ar      1 U16801      0.0000 
      9 C9         -6.5700   -0.2780    9.8410 C.3       1 U16801      0.0000 
     10 C14        -7.4110    0.9820    9.8930 C.3       1 U16801      0.0000 
     11 C15        -6.8710   -1.0930   11.0650 C.3       1 U16801      0.0000 
     12 C2         -4.7070    0.6200    8.5550 C.ar      1 U16801      0.0000 
     13 C4         -3.3750    1.0120    8.4560 C.ar      1 U16801      0.0000 
     14 N24        -0.5350    2.2320   10.5000 N.3       1 U16801      0.0000 
     15 O27         1.2180    0.4400    9.3290 O.3       1 U16801      0.0000 
     16 N32        -1.2480   -1.6000    7.9580 N.am      1 U16801      0.0000 
     17 C33        -1.6310   -2.2510    6.7100 C.3       1 U16801      0.0000 
     18 C37        -0.5400   -3.2000    6.2370 C.3       1 U16801      0.0000 
     19 C36        -2.8930   -3.0310    6.8870 C.2       1 U16801      0.0000 
     20 O41        -3.1450   -3.6000    7.9260 O.2       1 U16801      0.0000 
     21 N42        -3.7050   -3.0980    5.8420 N.am      1 U16801      0.0000 
     22 C43        -4.9110   -3.8740    5.8500 C.3       1 U16801      0.0000 
     23 C45        -6.0690   -3.4850    6.7520 C.3       1 U16801      0.0000 
     24 C49        -6.9650   -2.3860    6.1820 C.3       1 U16801      0.0000 
     25 C52        -8.4440   -2.7550    6.2780 C.3       1 U16801      0.0000 
     26 C53        -6.6260   -1.9710    4.7520 C.3       1 U16801      0.0000 
     27 C47        -4.6380   -5.2650    5.3830 C.2       1 U16801      0.0000 
     28 O60        -3.5320   -5.5510    4.9300 O.2       1 U16801      0.0000 
     29 O61        -5.6630   -6.2860    5.4620 O.3       1 U16801      0.0000 
     30 C62        -5.6450   -7.3930    4.5610 C.3       1 U16801      0.0000 
     31 H          -0.4382   -0.5876   10.0873 H         1 U16801      0.0000 
     32 H          -0.9514    1.8718    8.4588 H         1 U16801      0.0000 
     33 H          -2.3650    0.3333   11.5727 H         1 U16801      0.0000 
     34 H          -4.6792   -0.3382   11.7549 H         1 U16801      0.0000 
     35 H          -6.8558   -0.8293    8.9628 H         1 U16801      0.0000 
     36 H          -5.3310    0.7016    7.7544 H         1 U16801      0.0000 
     37 H          -3.0071    1.3611    7.5556 H         1 U16801      0.0000 
     38 H          -1.6269   -2.0383    8.8280 H         1 U16801      0.0000 
     39 H          -1.7876   -1.5127    5.9319 H         1 U16801      0.0000 
     40 H          -3.4979   -2.5793    4.9517 H         1 U16801      0.0000 
     41 H          -5.3939   -3.4271    4.7232 H         1 U16801      0.0000 
     42 H          -5.6716   -3.1489    7.7260 H         1 U16801      0.0000 
     43 H          -6.6870   -4.3780    6.9525 H         1 U16801      0.0000 
     44 H          -6.8293   -1.4817    6.8218 H         1 U16801      0.0000 
     45 H          -7.1873    1.5453   10.6884 H         1 U16801      0.0000 
     46 H          -7.2761    1.5523    9.0827 H         1 U16801      0.0000 
     47 H          -8.3878    0.7746    9.9461 H         1 U16801      0.0000 
     48 H          -6.3321   -1.9349   11.0923 H         1 U16801      0.0000 
     49 H          -6.6704   -0.5892   11.9052 H         1 U16801      0.0000 
     50 H          -7.8339   -1.3598   11.1060 H         1 U16801      0.0000 
     51 H          -0.7275    3.1956   10.3145 H         1 U16801      0.0000 
     52 H          -0.9282    2.0215   11.3950 H         1 U16801      0.0000 
     53 H           0.3247   -2.7229    6.0796 H         1 U16801      0.0000 
     54 H          -0.3594   -3.9211    6.9059 H         1 U16801      0.0000 
     55 H          -0.7863   -3.6510    5.3791 H         1 U16801      0.0000 
     56 H          -8.6508   -3.5942    5.7751 H         1 U16801      0.0000 
     57 H          -8.7291   -2.9030    7.2250 H         1 U16801      0.0000 
     58 H          -9.0310   -2.0370    5.9040 H         1 U16801      0.0000 
     59 H          -5.6934   -1.6176    4.6790 H         1 U16801      0.0000 
     60 H          -6.6992   -2.7386    4.1153 H         1 U16801      0.0000 
     61 H          -7.2381   -1.2540    4.4184 H         1 U16801      0.0000 
     62 H          -4.8040   -7.9274    4.6459 H         1 U16801      0.0000 
     63 H          -6.4076   -8.0185    4.7259 H         1 U16801      0.0000 
     64 H          -5.7093   -7.0972    3.6079 H         1 U16801      0.0000 
     65 H           1.6631   -0.2828    9.8577 H         1 U16801      0.0000 
@<TRIPOS>BOND
     1    2    1 2    
     2    3    2 1    
     3   16    2 am   
     4    4    3 1    
     5   15    3 1    
     6   31    3 1    
     7    5    4 1    
     8   14    4 1    
     9   32    4 1    
    10    6    5 ar   
    11   13    5 ar   
    12    7    6 ar   
    13   33    6 1    
    14    8    7 ar   
    15   34    7 1    
    16    9    8 1    
    17   12    8 ar   
    18   10    9 1    
    19   11    9 1    
    20   35    9 1    
    21   45   10 1    
    22   46   10 1    
    23   47   10 1    
    24   48   11 1    
    25   49   11 1    
    26   50   11 1    
    27   13   12 ar   
    28   36   12 1    
    29   37   13 1    
    30   51   14 1    
    31   52   14 1    
    32   65   15 1    
    33   17   16 1    
    34   38   16 1    
    35   18   17 1    
    36   19   17 1    
    37   39   17 1    
    38   53   18 1    
    39   54   18 1    
    40   55   18 1    
    41   20   19 2    
    42   21   19 am   
    43   22   21 1    
    44   40   21 1    
    45   23   22 1    
    46   27   22 1    
    47   41   22 1    
    48   24   23 1    
    49   42   23 1    
    50   43   23 1    
    51   25   24 1    
    52   26   24 1    
    53   44   24 1    
    54   56   25 1    
    55   57   25 1    
    56   58   25 1    
    57   59   26 1    
    58   60   26 1    
    59   61   26 1    
    60   28   27 2    
    61   29   27 1    
    62   30   29 1    
    63   62   30 1    
    64   63   30 1    
    65   64   30 1    
@<TRIPOS>SUBSTRUCTURE
     1 U16801      1 GROUP   
@<TRIPOS>SET

