#    Name: 1yin_CM3_1_INTS_M
#    Modification time : Tue Mar 25 11:05:14 2014

@<TRIPOS>MOLECULE
1yin_CM3_1_INTS_M
  109     0    12     0     0
SMALL
NO_CHARGES


@<TRIPOS>ATOM
      1 CA         30.6080   -3.8220   28.7940 C.3       4 GLC5        0.0000 
      2 CA         29.4410   -2.2870   27.9800 C.3      12 GLL5        0.0000 
      3 CA         31.7750   -5.3570   29.6080 C.3       8 GLP5        0.0000 
      4 CA         29.7110   -4.8570   28.3355 C.3       4 GLC5        0.0000 
      5 CA         28.4330   -3.2210   27.7310 C.3      12 GLL5        0.0000 
      6 CA         30.9890   -6.4930   28.9400 C.3       8 GLP5        0.0000 
      7 CA         27.7475   -5.2595   27.4285 C.3       4 GLC5        0.0000 
      8 CA         27.0620   -7.2980   27.1260 C.3       8 GLP5        0.0000 
      9 CA         26.4190   -4.7615   27.4060 C.3       4 GLC5        0.0000 
     10 CA         27.1510   -2.8180   27.3690 C.3      12 GLL5        0.0000 
     11 CA         25.6870   -6.7050   27.4430 C.3       8 GLP5        0.0000 
     12 CA         27.6465   -3.7510   25.5815 C.3       4 GLC5        0.0000 
     13 CA         28.1420   -4.6840   23.7940 C.3       8 GLP5        0.0000 
     14 N          24.4265   -1.5265   27.9255 N.am      2 SEC2        0.0000 
     15 N          25.6620   -0.9880   26.9460 N.am     10 SEL2        0.0000 
     16 N          23.1910   -2.0650   28.9050 N.am      6 SEP2        0.0000 
     17 N          24.0885   -0.4745   26.4180 N.am      2 SEC2        0.0000 
     18 N          22.5150    0.0390   25.8900 N.am      6 SEP2        0.0000 
     19 O          25.2160   -2.1775   26.3765 O.2       1 ALC1        0.0000 
     20 O          25.6620   -0.9880   26.9460 O.2       9 ALL1        0.0000 
     21 O          24.7700   -3.3670   25.8070 O.2       5 ALP1        0.0000 
     22 CA         27.3515    0.4375   29.2975 C.3       4 GLC5        0.0000 
     23 CA         27.8990   -0.5180   27.5150 C.3      12 GLL5        0.0000 
     24 CA         26.8040    1.3930   31.0800 C.3       8 GLP5        0.0000 
     25 CA         26.8605    2.5525   27.0570 C.3       4 GLC5        0.0000 
     26 CA         27.5490    0.7480   27.2810 C.3      12 GLL5        0.0000 
     27 CA         26.1720    4.3570   26.8330 C.3       8 GLP5        0.0000 
     28 CA         26.1350    1.2195   28.5105 C.3       4 GLC5        0.0000 
     29 CA         24.7210    1.6910   29.7400 C.3       8 GLP5        0.0000 
     30 CA         29.4020    2.9740   28.0490 C.3       4 GLC5        0.0000 
     31 CA         30.0890    1.2720   29.1370 C.3      12 GLL5        0.0000 
     32 CA         28.7150    4.6760   26.9610 C.3       8 GLP5        0.0000 
     33 CA         28.4465    1.3325   30.1085 C.3       4 GLC5        0.0000 
     34 CA         29.9095    2.5210   30.4245 C.3       4 GLC5        0.0000 
     35 CA         29.7300    3.7700   31.7120 C.3       8 GLP5        0.0000 
     36 CA         31.9220    1.7930   25.5860 C.3       4 GLC5        0.0000 
     37 CA         33.0590    1.0830   27.3400 C.3      12 GLL5        0.0000 
     38 CA         30.7850    2.5030   23.8320 C.3       8 GLP5        0.0000 
     39 CA         37.2565    2.2800   27.9415 C.3       4 GLC5        0.0000 
     40 CA         35.2990    1.6110   28.1500 C.3      12 GLL5        0.0000 
     41 CA         39.2140    2.9490   27.7330 C.3       8 GLP5        0.0000 
     42 O          37.4600    1.6905   28.6465 O.2       1 ALC1        0.0000 
     43 O          36.4490    2.2950   28.0270 O.2       9 ALL1        0.0000 
     44 O          38.4710    1.0860   29.2660 O.2       5 ALP1        0.0000 
     45 CA         35.5575    2.5600   30.1910 C.3       4 GLC5        0.0000 
     46 CA         35.1090    0.7340   29.2160 C.3      12 GLL5        0.0000 
     47 CA         36.0060    4.3860   31.1660 C.3       8 GLP5        0.0000 
     48 CA         37.2535    1.3880   29.0605 C.3       4 GLC5        0.0000 
     49 CA         39.3980    2.0420   28.9050 C.3       8 GLP5        0.0000 
     50 CA         34.6875   -3.7400   27.2380 C.3       4 GLC5        0.0000 
     51 CA         33.1300   -3.0690   26.2250 C.3      12 GLL5        0.0000 
     52 CA         36.2450   -4.4110   28.2510 C.3       8 GLP5        0.0000 
     53 CA         34.0430   -5.6060   22.9375 C.3       4 GLC5        0.0000 
     54 CA         33.8820   -3.8390   22.1460 C.3      12 GLL5        0.0000 
     55 CA         34.2040   -7.3730   23.7290 C.3       8 GLP5        0.0000 
     56 CA         34.5465   -1.8820   22.5155 C.3       4 GLC5        0.0000 
     57 CA         35.2110    0.0750   22.8850 C.3       8 GLP5        0.0000 
     58 OD1        32.0010   -5.1960   19.7155 O.co2     3 ASC3        0.0000 
     59 OD1        32.9400   -4.2260   19.8050 O.co2    11 ASL3        0.0000 
     60 OD1        31.0620   -6.1660   19.6260 O.co2     7 ASP3        0.0000 
     61 OD1        32.4410   -6.1165   20.1185 O.co2     3 ASC3        0.0000 
     62 OD1        31.9420   -8.0070   20.4320 O.co2     7 ASP3        0.0000 
     63 O          32.0010   -5.1960   19.7155 O.2       1 ALC1        0.0000 
     64 O          32.9400   -4.2260   19.8050 O.2       9 ALL1        0.0000 
     65 O          31.0620   -6.1660   19.6260 O.2       5 ALP1        0.0000 
     66 CA         30.8475   -1.6150   19.8210 C.3       4 GLC5        0.0000 
     67 CA         30.8770   -3.1910   18.7650 C.3      12 GLL5        0.0000 
     68 CA         30.8180   -0.0390   20.8770 C.3       8 GLP5        0.0000 
     69 CA         32.0670   -1.4890   20.3045 C.3       4 GLC5        0.0000 
     70 CA         31.9440   -3.1510   19.8850 C.3      12 GLL5        0.0000 
     71 CA         32.1900    0.1730   20.7240 C.3       8 GLP5        0.0000 
     72 CA         29.2015   -3.3605   25.9252 C.3       4 GLC5        0.0000 
     73 CA         29.4660   -3.9670   23.9950 C.3       8 GLP5        0.0000 
     74 CA         26.9769    0.5966   25.5640 C.3       4 GLC5        0.0000 
     75 CA         26.4860    1.3120   23.7850 C.3       8 GLP5        0.0000 
     76 CA         29.5659   -0.5426   30.1901 C.3       4 GLC5        0.0000 
     77 CA         30.3160    0.0960   28.1990 C.3      12 GLL5        0.0000 
     78 CA         28.6030   -1.5900   31.6020 C.3       8 GLP5        0.0000 
     79 CA         32.5382    3.1695   27.2720 C.3       4 GLC5        0.0000 
     80 CA         31.4160    4.9120   27.2630 C.3       8 GLP5        0.0000 
     81 CA         35.4303    3.2930   28.7150 C.3       4 GLC5        0.0000 
     82 CA         34.2620    1.7710   27.2220 C.3      12 GLL5        0.0000 
     83 CA         36.0800    4.8950   29.7440 C.3       8 GLP5        0.0000 
     84 CA         35.2582    3.3815   26.8455 C.3       4 GLC5        0.0000 
     85 CA         35.7360    5.0720   26.0050 C.3       8 GLP5        0.0000 
     86 CA         35.5962    0.4680   26.3015 C.3       4 GLC5        0.0000 
     87 CA         36.4120   -0.7550   24.9170 C.3       8 GLP5        0.0000 
     88 CA         34.7908   -0.4793   30.9552 C.3       4 GLC5        0.0000 
     89 CA         35.0690   -1.3440   32.6360 C.3       8 GLP5        0.0000 
     90 CA         31.0550   -3.2840   25.2030 C.3       4 GLC5        0.0000 
     91 CA         32.1580   -2.1330   26.5970 C.3      12 GLL5        0.0000 
     92 CA         32.1689   -3.9654   28.1925 C.3       4 GLC5        0.0000 
     93 CA         32.8755   -5.0480   25.5037 C.3       4 GLC5        0.0000 
     94 CA         32.4520   -6.9290   25.4550 C.3       8 GLP5        0.0000 
     95 CA         34.8555   -1.9610   25.2347 C.3       4 GLC5        0.0000 
     96 CA         33.4680   -3.2650   24.8800 C.3      12 GLL5        0.0000 
     97 CA         31.3293   -3.4173   24.1830 C.3       4 GLC5        0.0000 
     98 CA         33.8182   -0.9655   23.4657 C.3       4 GLC5        0.0000 
     99 CA         32.9170   -2.4700   23.8620 C.3      12 GLL5        0.0000 
    100 CA         30.6055   -2.7208   24.4443 C.3       4 GLC5        0.0000 
    101 CA         31.9340   -1.5420   24.2310 C.3      12 GLL5        0.0000 
    102 CA         31.2650    0.5143   24.3628 C.3       4 GLC5        0.0000 
    103 CA         31.9962   -3.0468   15.9958 C.3       4 GLC5        0.0000 
    104 CA         31.4390   -3.5320   17.3630 C.3      12 GLL5        0.0000 
    105 CA         32.0940   -1.9550   14.5390 C.3       8 GLP5        0.0000 
    106 CA         31.4572   -5.0107   15.5868 C.3       4 GLC5        0.0000 
    107 CA         31.0160   -5.8830   13.7210 C.3       8 GLP5        0.0000 
    108 CA         29.6905   -3.4123   17.0955 C.3       4 GLC5        0.0000 
    109 CA         28.2230   -3.4630   16.1270 C.3       8 GLP5        0.0000 
@<TRIPOS>BOND
@<TRIPOS>SUBSTRUCTURE
     1 ALC1       19 GROUP        1 X    ALC  0     ROOT ALC X 1
     2 SEC2       14 GROUP        1 X    SEC  0     **** SEC X 2
     3 ASC3       58 GROUP        1 X    ASC  0     **** ASC X 3
     4 GLC5        1 GROUP        1 X    GLC  0     **** GLC X 6
     5 ALP1       21 GROUP        1 Y    ALP  0     ROOT ALP Y 8
     6 SEP2       16 GROUP        1 Y    SEP  0     **** SEP Y 9
     7 ASP3       60 GROUP        1 Y    ASP  0     **** ASP Y 10
     8 GLP5        3 GROUP        1 Y    GLP  0     **** GLP Y 13
     9 ALL1       20 GROUP        1 Z    ALL  0     ROOT ALL Z 15
    10 SEL2       15 GROUP        1 Z    SEL  0     **** SEL Z 16
    11 ASL3       59 GROUP        1 Z    ASL  0     **** ASL Z 17
    12 GLL5        2 GROUP        1 Z    GLL  0     **** GLL Z 20
@<TRIPOS>SET

