#    Name: 1yin_CM3_1_ligand
#    Modification time : Tue Mar 25 11:05:14 2014

@<TRIPOS>MOLECULE
1yin_CM3_1_ligand
   68    72     1     0     0
SMALL
NO_CHARGES


@<TRIPOS>ATOM
      1 C1         31.6210   -0.6210   28.6400 C.3       1 CM3600      0.0000 
      2 C2         31.8330   -2.0240   28.0610 C.3       1 CM3600      0.0000 
      3 O3         30.6400   -2.7870   28.3210 O.3       1 CM3600      0.0000 
      4 C4         29.4410   -2.2870   27.9800 C.ar      1 CM3600      0.0000 
      5 C5         28.4330   -3.2210   27.7310 C.ar      1 CM3600      0.0000 
      6 C6         27.1510   -2.8180   27.3690 C.ar      1 CM3600      0.0000 
      7 C7         26.8740   -1.4530   27.2950 C.ar      1 CM3600      0.0000 
      8 O8         25.6620   -0.9880   26.9460 O.3       1 CM3600      0.0000 
      9 C9         27.8990   -0.5180   27.5150 C.ar      1 CM3600      0.0000 
     10 F10        27.5490    0.7480   27.2810 F         1 CM3600      0.0000 
     11 C11        29.1880   -0.8950   27.9400 C.ar      1 CM3600      0.0000 
     12 C12        30.3160    0.0960   28.1990 C.3       1 CM3600      0.0000 
     13 C13        30.0890    1.2720   29.1370 C.3       1 CM3600      0.0000 
     14 C14        32.8780    0.1900   28.4110 C.ar      1 CM3600      0.0000 
     15 C15        33.0590    1.0830   27.3400 C.ar      1 CM3600      0.0000 
     16 C16        34.2620    1.7710   27.2220 C.ar      1 CM3600      0.0000 
     17 C17        35.2990    1.6110   28.1500 C.ar      1 CM3600      0.0000 
     18 O18        36.4490    2.2950   28.0270 O.3       1 CM3600      0.0000 
     19 C19        35.1090    0.7340   29.2160 C.ar      1 CM3600      0.0000 
     20 C20        33.9160    0.0370   29.3330 C.ar      1 CM3600      0.0000 
     21 C21        32.1580   -2.1330   26.5970 C.ar      1 CM3600      0.0000 
     22 C22        33.1300   -3.0690   26.2250 C.ar      1 CM3600      0.0000 
     23 C23        33.4680   -3.2650   24.8800 C.ar      1 CM3600      0.0000 
     24 C24        32.9170   -2.4700   23.8620 C.ar      1 CM3600      0.0000 
     25 C25        31.9340   -1.5420   24.2310 C.ar      1 CM3600      0.0000 
     26 C26        31.5560   -1.4070   25.5560 C.ar      1 CM3600      0.0000 
     27 O27        33.2650   -2.6090   22.5640 O.3       1 CM3600      0.0000 
     28 C28        33.8820   -3.8390   22.1460 C.3       1 CM3600      0.0000 
     29 C29        34.1240   -3.9240   20.6370 C.3       1 CM3600      0.0000 
     30 N30        32.9400   -4.2260   19.8050 N.4       1 CM3600      0.0000 
     31 C31        33.4730   -4.2610   18.4430 C.3       1 CM3600      0.0000 
     32 C32        32.3580   -4.7450   17.5420 C.3       1 CM3600      0.0000 
     33 C33        31.4390   -3.5320   17.3630 C.3       1 CM3600      0.0000 
     34 C34        30.8770   -3.1910   18.7650 C.3       1 CM3600      0.0000 
     35 C35        31.9440   -3.1510   19.8850 C.3       1 CM3600      0.0000 
     36 H          31.5467   -0.7619   29.7592 H         1 CM3600      0.0000 
     37 H          32.6580   -2.4918   28.6345 H         1 CM3600      0.0000 
     38 H          28.6453   -4.2306   27.8178 H         1 CM3600      0.0000 
     39 H          26.4285   -3.5050   27.1620 H         1 CM3600      0.0000 
     40 H          30.5976    0.5497   27.1901 H         1 CM3600      0.0000 
     41 H          32.3105    1.2202   26.6592 H         1 CM3600      0.0000 
     42 H          34.3996    2.4232   26.4243 H         1 CM3600      0.0000 
     43 H          35.8535    0.6061   29.9127 H         1 CM3600      0.0000 
     44 H          33.7860   -0.6206   30.1299 H         1 CM3600      0.0000 
     45 H          33.6060   -3.6245   26.9540 H         1 CM3600      0.0000 
     46 H          34.1387   -4.0121   24.6292 H         1 CM3600      0.0000 
     47 H          31.4929   -0.9583   23.5041 H         1 CM3600      0.0000 
     48 H          30.7896   -0.7374   25.8012 H         1 CM3600      0.0000 
     49 H          33.2617   -4.7152   22.4333 H         1 CM3600      0.0000 
     50 H          34.8621   -3.9857   22.6489 H         1 CM3600      0.0000 
     51 H          34.9162   -4.6917   20.4613 H         1 CM3600      0.0000 
     52 H          34.5806   -2.9584   20.3099 H         1 CM3600      0.0000 
     53 H          32.5374   -5.1616   20.0624 H         1 CM3600      0.0000 
     54 H          34.3062   -4.9480   18.3707 H         1 CM3600      0.0000 
     55 H          33.7806   -3.2742   18.1219 H         1 CM3600      0.0000 
     56 H          31.8173   -5.5319   18.0161 H         1 CM3600      0.0000 
     57 H          32.7505   -5.0348   16.5942 H         1 CM3600      0.0000 
     58 H          30.6297   -3.7831   16.7118 H         1 CM3600      0.0000 
     59 H          32.0028   -2.7004   16.9989 H         1 CM3600      0.0000 
     60 H          30.1138   -3.9365   19.0301 H         1 CM3600      0.0000 
     61 H          30.3781   -2.2126   18.7168 H         1 CM3600      0.0000 
     62 H          32.4362   -2.1591   19.8399 H         1 CM3600      0.0000 
     63 H          31.4092   -3.1862   20.8550 H         1 CM3600      0.0000 
     64 H          30.8483    1.9221   29.1080 H         1 CM3600      0.0000 
     65 H          29.2597    1.7792   28.9027 H         1 CM3600      0.0000 
     66 H          29.9928    0.9759   30.0873 H         1 CM3600      0.0000 
     67 H          25.2074   -1.7593   26.5006 H         1 CM3600      0.0000 
     68 H          37.1632    1.6522   28.3040 H         1 CM3600      0.0000 
@<TRIPOS>BOND
     1    2    1 1    
     2   12    1 1    
     3   14    1 1    
     4   36    1 1    
     5    3    2 1    
     6   21    2 1    
     7   37    2 1    
     8    4    3 1    
     9    5    4 ar   
    10   11    4 ar   
    11    6    5 ar   
    12   38    5 1    
    13    7    6 ar   
    14   39    6 1    
    15    8    7 1    
    16    9    7 ar   
    17   67    8 1    
    18   10    9 1    
    19   11    9 ar   
    20   12   11 1    
    21   13   12 1    
    22   40   12 1    
    23   64   13 1    
    24   65   13 1    
    25   66   13 1    
    26   15   14 ar   
    27   20   14 ar   
    28   16   15 ar   
    29   41   15 1    
    30   17   16 ar   
    31   42   16 1    
    32   18   17 1    
    33   19   17 ar   
    34   68   18 1    
    35   20   19 ar   
    36   43   19 1    
    37   44   20 1    
    38   22   21 ar   
    39   26   21 ar   
    40   23   22 ar   
    41   45   22 1    
    42   24   23 ar   
    43   46   23 1    
    44   25   24 ar   
    45   27   24 1    
    46   26   25 ar   
    47   47   25 1    
    48   48   26 1    
    49   28   27 1    
    50   29   28 1    
    51   49   28 1    
    52   50   28 1    
    53   30   29 1    
    54   51   29 1    
    55   52   29 1    
    56   31   30 1    
    57   35   30 1    
    58   53   30 1    
    59   32   31 1    
    60   54   31 1    
    61   55   31 1    
    62   33   32 1    
    63   56   32 1    
    64   57   32 1    
    65   34   33 1    
    66   58   33 1    
    67   59   33 1    
    68   35   34 1    
    69   60   34 1    
    70   61   34 1    
    71   62   35 1    
    72   63   35 1    
@<TRIPOS>SUBSTRUCTURE
     1 CM3600      1 GROUP   
@<TRIPOS>SET

