#    Name: 4djv_0KM_1_INTS_M
#    Modification time : Tue Mar 25 09:45:06 2014

@<TRIPOS>MOLECULE
4djv_0KM_1_INTS_M
   51     0     9     0     0
SMALL
NO_CHARGES


@<TRIPOS>ATOM
      1 O          22.4030    8.0590   22.1820 O.2       1 ALC1        0.0000 
      2 O          22.6980    9.3620   22.3290 O.2       7 ALL1        0.0000 
      3 O          22.1080    6.7560   22.0350 O.2       4 ALP1        0.0000 
      4 OD1        23.0490    7.6345   24.3000 O.co2     2 ASC3        0.0000 
      5 OD1        22.8530    9.7820   23.5950 O.co2     8 ASL3        0.0000 
      6 OD1        23.1190    6.2810   23.9430 O.co2     5 ASP3        0.0000 
      7 OD1        22.4805    8.2690   22.8150 O.co2     2 ASC3        0.0000 
      8 OD1        22.1080    6.7560   22.0350 O.co2     5 ASP3        0.0000 
      9 OD1        23.2815    9.2055   25.9985 O.co2     2 ASC3        0.0000 
     10 OD1        23.5840    9.4230   27.3400 O.co2     5 ASP3        0.0000 
     11 O          23.0490    7.6345   24.3000 O.2       1 ALC1        0.0000 
     12 O          22.9790    8.9880   24.6570 O.2       7 ALL1        0.0000 
     13 O          23.1190    6.2810   23.9430 O.2       4 ALP1        0.0000 
     14 O          23.2815    9.2055   25.9985 O.2       1 ALC1        0.0000 
     15 O          23.5840    9.4230   27.3400 O.2       4 ALP1        0.0000 
     16 CA         16.6395   11.2455   19.2985 C.3       3 GLC5        0.0000 
     17 CA         18.4810   10.6590   19.8700 C.3       9 GLL5        0.0000 
     18 CA         14.7980   11.8320   18.7270 C.3       6 GLP5        0.0000 
     19 CA         28.5850    7.7540   20.7510 C.3       3 GLC5        0.0000 
     20 CA         29.0400    9.5690   21.8180 C.3       9 GLL5        0.0000 
     21 CA         28.1300    5.9390   19.6840 C.3       6 GLP5        0.0000 
     22 CA         30.9000    7.8715   21.9620 C.3       3 GLC5        0.0000 
     23 CA         30.4090    8.6530   23.5740 C.3       9 GLL5        0.0000 
     24 CA         31.3910    7.0900   20.3500 C.3       6 GLP5        0.0000 
     25 CA         28.3270    8.1465   23.9575 C.3       3 GLC5        0.0000 
     26 CA         26.2450    7.6400   24.3410 C.3       6 GLP5        0.0000 
     27 CA         30.7695   10.1270   24.9670 C.3       3 GLC5        0.0000 
     28 CA         31.1300   11.6010   26.3600 C.3       6 GLP5        0.0000 
     29 CA         31.2845    8.0350   25.2595 C.3       3 GLC5        0.0000 
     30 CA         32.1600    7.4170   26.9450 C.3       6 GLP5        0.0000 
     31 CA         19.1805    8.0975   21.6567 C.3       3 GLC5        0.0000 
     32 CA         20.3420    9.4330   20.7660 C.3       9 GLL5        0.0000 
     33 CA         18.6700    6.7450   22.7960 C.3       6 GLP5        0.0000 
     34 CA         20.2392    8.3314   19.4509 C.3       3 GLC5        0.0000 
     35 CA         19.0400    9.4670   20.2690 C.3       9 GLL5        0.0000 
     36 CA         20.5980    6.9220   18.3600 C.3       6 GLP5        0.0000 
     37 CA         25.0502    8.6638   20.0598 C.3       3 GLC5        0.0000 
     38 CA         23.6440   10.6010   20.3640 C.3       9 GLL5        0.0000 
     39 CA         25.7900    6.7960   19.5620 C.3       6 GLP5        0.0000 
     40 CA         25.8222    8.7980   19.3643 C.3       3 GLC5        0.0000 
     41 CA         26.0150   10.6440   19.8290 C.3       9 GLL5        0.0000 
     42 CA         31.4663   10.5740   19.9525 C.3       3 GLC5        0.0000 
     43 CA         29.6820   11.4000   20.4130 C.3       9 GLL5        0.0000 
     44 CA         33.0930   10.2010   18.9910 C.3       6 GLP5        0.0000 
     45 CA         30.0184    8.4469   20.8906 C.3       3 GLC5        0.0000 
     46 CA         29.9970   10.4940   21.4150 C.3       9 GLL5        0.0000 
     47 CA         26.6955    8.4210   20.1608 C.3       3 GLC5        0.0000 
     48 CA         27.7730    9.5760   21.2460 C.3       9 GLL5        0.0000 
     49 CA         27.3257    8.6062   22.9365 C.3       3 GLC5        0.0000 
     50 CA         29.3656   11.9140   18.7181 C.3       3 GLC5        0.0000 
     51 CA         29.9300   12.6460   17.2000 C.3       6 GLP5        0.0000 
@<TRIPOS>BOND
@<TRIPOS>SUBSTRUCTURE
     1 ALC1        1 GROUP        1 X    ALC  0     ROOT ALC X 1
     2 ASC3        4 GROUP        1 X    ASC  0     **** ASC X 3
     3 GLC5       16 GROUP        1 X    GLC  0     **** GLC X 6
     4 ALP1        3 GROUP        1 Y    ALP  0     ROOT ALP Y 8
     5 ASP3        6 GROUP        1 Y    ASP  0     **** ASP Y 10
     6 GLP5       18 GROUP        1 Y    GLP  0     **** GLP Y 13
     7 ALL1        2 GROUP        1 Z    ALL  0     ROOT ALL Z 15
     8 ASL3        5 GROUP        1 Z    ASL  0     **** ASL Z 17
     9 GLL5       17 GROUP        1 Z    GLL  0     **** GLL Z 20
@<TRIPOS>SET

