#    Name: 4djv_0KM_1_ligand
#    Modification time : Tue Mar 25 09:45:06 2014

@<TRIPOS>MOLECULE
4djv_0KM_1_ligand
   50    53     1     0     0
SMALL
NO_CHARGES


@<TRIPOS>ATOM
      1 O1         22.8640   12.9180   22.1510 O.2       1 0KM501      0.0000 
      2 C1         22.7760   11.7400   22.4370 C.2       1 0KM501      0.0000 
      3 C2         22.5330   10.5520   21.4300 C.3       1 0KM501      0.0000 
      4 N1         22.6980    9.3620   22.3290 N.pl3     1 0KM501      0.0000 
      5 C3         22.8530    9.7820   23.5950 C.cat     1 0KM501      0.0000 
      6 N2         22.9440   11.2000   23.6910 N.am      1 0KM501      0.0000 
      7 N3         22.9790    8.9880   24.6570 N.pl3     1 0KM501      0.0000 
      8 C4         23.1800   11.9990   24.9000 C.3       1 0KM501      0.0000 
      9 C5         21.1000   10.5960   20.8630 C.ar      1 0KM501      0.0000 
     10 C6         20.3420    9.4330   20.7660 C.ar      1 0KM501      0.0000 
     11 C7         19.0400    9.4670   20.2690 C.ar      1 0KM501      0.0000 
     12 C8         18.4810   10.6590   19.8700 C.ar      1 0KM501      0.0000 
     13 C9         19.2200   11.8240   19.9540 C.ar      1 0KM501      0.0000 
     14 C10        20.5250   11.7940   20.4410 C.ar      1 0KM501      0.0000 
     15 C11        23.6440   10.6010   20.3640 C.ar      1 0KM501      0.0000 
     16 C12        23.3550   10.8820   19.0310 C.ar      1 0KM501      0.0000 
     17 C13        24.3740   11.0650   18.1080 C.ar      1 0KM501      0.0000 
     18 C14        25.6940   10.9560   18.5040 C.ar      1 0KM501      0.0000 
     19 C15        26.0150   10.6440   19.8290 C.ar      1 0KM501      0.0000 
     20 C16        24.9770   10.4620   20.7510 C.ar      1 0KM501      0.0000 
     21 C17        29.9970   10.4940   21.4150 C.ar      1 0KM501      0.0000 
     22 C18        27.7730    9.5760   21.2460 C.ar      1 0KM501      0.0000 
     23 C19        27.4290   10.5160   20.2730 C.ar      1 0KM501      0.0000 
     24 C20        28.4120   11.4120   19.8460 C.ar      1 0KM501      0.0000 
     25 C21        29.6820   11.4000   20.4130 C.ar      1 0KM501      0.0000 
     26 C22        29.0400    9.5690   21.8180 C.ar      1 0KM501      0.0000 
     27 O2         29.2030    8.6170   22.7950 O.3       1 0KM501      0.0000 
     28 C23        30.4090    8.6530   23.5740 C.3       1 0KM501      0.0000 
     29 H          22.6824    8.4856   21.9732 H         1 0KM501      0.0000 
     30 H          22.9910    8.0052   24.4727 H         1 0KM501      0.0000 
     31 H          23.0503    9.4462   25.5430 H         1 0KM501      0.0000 
     32 H          20.7488    8.5314   21.0662 H         1 0KM501      0.0000 
     33 H          18.5000    8.5899   20.2033 H         1 0KM501      0.0000 
     34 H          17.5163   10.6863   19.5099 H         1 0KM501      0.0000 
     35 H          18.8084   12.7212   19.6563 H         1 0KM501      0.0000 
     36 H          21.0723   12.6677   20.4901 H         1 0KM501      0.0000 
     37 H          22.3692   10.9545   18.7285 H         1 0KM501      0.0000 
     38 H          24.1449   11.2822   17.1271 H         1 0KM501      0.0000 
     39 H          26.4540   11.1048   17.8217 H         1 0KM501      0.0000 
     40 H          25.2034   10.2220   21.7287 H         1 0KM501      0.0000 
     41 H          30.9215   10.5048   21.8531 H         1 0KM501      0.0000 
     42 H          27.0730    8.8753   21.5441 H         1 0KM501      0.0000 
     43 H          28.1903   12.0909   19.0997 H         1 0KM501      0.0000 
     44 H          30.3943   12.0710   20.0845 H         1 0KM501      0.0000 
     45 H          23.2763   11.4238   25.7123 H         1 0KM501      0.0000 
     46 H          24.0144   12.5454   24.8271 H         1 0KM501      0.0000 
     47 H          22.4284   12.6341   25.0780 H         1 0KM501      0.0000 
     48 H          31.2234    8.5516   23.0026 H         1 0KM501      0.0000 
     49 H          30.5049    9.5158   24.0704 H         1 0KM501      0.0000 
     50 H          30.4344    7.9196   24.2533 H         1 0KM501      0.0000 
@<TRIPOS>BOND
     1    2    1 2    
     2    3    2 1    
     3    6    2 am   
     4    4    3 1    
     5    9    3 1    
     6   15    3 1    
     7    5    4 ar   
     8   29    4 1    
     9    6    5 ar   
    10    7    5 ar   
    11    8    6 1    
    12   30    7 1    
    13   31    7 1    
    14   45    8 1    
    15   46    8 1    
    16   47    8 1    
    17   10    9 ar   
    18   14    9 ar   
    19   11   10 ar   
    20   32   10 1    
    21   12   11 ar   
    22   33   11 1    
    23   13   12 ar   
    24   34   12 1    
    25   14   13 ar   
    26   35   13 1    
    27   36   14 1    
    28   16   15 ar   
    29   20   15 ar   
    30   17   16 ar   
    31   37   16 1    
    32   18   17 ar   
    33   38   17 1    
    34   19   18 ar   
    35   39   18 1    
    36   20   19 ar   
    37   23   19 1    
    38   40   20 1    
    39   25   21 ar   
    40   26   21 ar   
    41   41   21 1    
    42   23   22 ar   
    43   26   22 ar   
    44   42   22 1    
    45   24   23 ar   
    46   25   24 ar   
    47   43   24 1    
    48   44   25 1    
    49   27   26 1    
    50   28   27 1    
    51   48   28 1    
    52   49   28 1    
    53   50   28 1    
@<TRIPOS>SUBSTRUCTURE
     1 0KM501      1 GROUP   
@<TRIPOS>SET

