#    Name: 3rlq_3RQ_1_INTS_M
#    Modification time : Tue Mar 25 11:39:12 2014

@<TRIPOS>MOLECULE
3rlq_3RQ_1_INTS_M
   57     0     9     0     0
SMALL
NO_CHARGES


@<TRIPOS>ATOM
      1 O          18.5415    0.4525   48.4275 O.2       1 ALC1        0.0000 
      2 O          17.5210    0.0570   49.1460 O.2       7 ALL1        0.0000 
      3 O          19.5620    0.8480   47.7090 O.2       4 ALP1        0.0000 
      4 CA         14.5435   -2.9625   49.6635 C.3       3 GLC5        0.0000 
      5 CA         15.1050   -1.6430   51.1220 C.3       9 GLL5        0.0000 
      6 CA         13.9820   -4.2820   48.2050 C.3       6 GLP5        0.0000 
      7 CA         18.9520   -5.4780   50.8165 C.3       3 GLC5        0.0000 
      8 CA         17.4080   -4.5430   50.7030 C.3       9 GLL5        0.0000 
      9 CA         20.4960   -6.4130   50.9300 C.3       6 GLP5        0.0000 
     10 CA         18.1890   -5.4430   48.8500 C.3       3 GLC5        0.0000 
     11 CA         18.9700   -6.3430   46.9970 C.3       6 GLP5        0.0000 
     12 CA         16.1790   -5.6325   49.8885 C.3       3 GLC5        0.0000 
     13 CA         14.9500   -6.7220   49.0740 C.3       6 GLP5        0.0000 
     14 CA         13.6470    3.5820   50.3955 C.3       3 GLC5        0.0000 
     15 CA         14.5520    1.6520   50.4270 C.3       9 GLL5        0.0000 
     16 CA         12.7420    5.5120   50.3640 C.3       6 GLP5        0.0000 
     17 CA         12.4005    1.8790   50.3560 C.3       3 GLC5        0.0000 
     18 CA         10.2490    2.1060   50.2850 C.3       6 GLP5        0.0000 
     19 CA         18.3950    1.6505   50.1205 C.3       3 GLC5        0.0000 
     20 CA         16.6970    1.1470   49.2930 C.3       9 GLL5        0.0000 
     21 CA         20.0930    2.1540   50.9480 C.3       6 GLP5        0.0000 
     22 CA         16.2155   -0.0800   47.6205 C.3       3 GLC5        0.0000 
     23 CA         15.7340   -1.3070   45.9480 C.3       6 GLP5        0.0000 
     24 CA         18.7280   -1.6230   50.5060 C.3       3 GLC5        0.0000 
     25 CA         16.9940   -1.0140   49.8040 C.3       9 GLL5        0.0000 
     26 CA         20.4620   -2.2320   51.2080 C.3       6 GLP5        0.0000 
     27 CA         17.1000   -1.3905   47.8665 C.3       3 GLC5        0.0000 
     28 CA         17.2060   -1.7670   45.9290 C.3       6 GLP5        0.0000 
     29 CA         15.4170   -3.7170   49.3900 C.3       3 GLC5        0.0000 
     30 CA         16.8520   -3.1520   50.5750 C.3       9 GLL5        0.0000 
     31 N          13.7810    2.2750   52.4140 N.am      2 SEC2        0.0000 
     32 N          13.6860    2.3450   50.7550 N.am      8 SEL2        0.0000 
     33 N          13.8760    2.2050   54.0730 N.am      5 SEP2        0.0000 
     34 CA         10.9145   -1.9125   48.9850 C.3       3 GLC5        0.0000 
     35 CA         12.5000   -0.9690   49.4020 C.3       9 GLL5        0.0000 
     36 CA          9.3290   -2.8560   48.5680 C.3       6 GLP5        0.0000 
     37 CA         11.3745    0.5685   49.8435 C.3       3 GLC5        0.0000 
     38 CA         12.3575   -1.3590   47.3920 C.3       3 GLC5        0.0000 
     39 CA         12.2150   -1.7490   45.3820 C.3       6 GLP5        0.0000 
     40 CA          7.9375   -0.5095   54.3355 C.3       3 GLC5        0.0000 
     41 CA          9.7980   -1.1840   53.9980 C.3       9 GLL5        0.0000 
     42 CA          6.0770    0.1650   54.6730 C.3       6 GLP5        0.0000 
     43 CA         13.2617   -2.6883   49.2332 C.3       3 GLC5        0.0000 
     44 CA         12.5830   -1.2200   51.1210 C.3       9 GLL5        0.0000 
     45 CA         11.0813    0.4545   52.1402 C.3       3 GLC5        0.0000 
     46 CA         11.3640   -1.1260   51.8280 C.3       9 GLL5        0.0000 
     47 CA         10.1890    2.0820   52.8060 C.3       6 GLP5        0.0000 
     48 CA         10.9101   -2.7298   51.4266 C.3       3 GLC5        0.0000 
     49 CA         11.3350   -1.3100   53.2260 C.3       9 GLL5        0.0000 
     50 CA         10.1660   -4.2180   50.5030 C.3       6 GLP5        0.0000 
     51 CA         10.3778    0.4175   53.2090 C.3       3 GLC5        0.0000 
     52 CA         18.7960   -3.0398   50.9235 C.3       3 GLC5        0.0000 
     53 CA         14.8730    1.7944   48.2235 C.3       3 GLC5        0.0000 
     54 CA         13.8550    2.4100   46.6790 C.3       6 GLP5        0.0000 
     55 CA         16.0177    1.2114   51.7110 C.3       3 GLC5        0.0000 
     56 CA         15.6180    0.7690   50.0590 C.3       9 GLL5        0.0000 
     57 CA         16.1980    2.1400   53.3400 C.3       6 GLP5        0.0000 
@<TRIPOS>BOND
@<TRIPOS>SUBSTRUCTURE
     1 ALC1        1 GROUP        1 X    ALC  0     ROOT ALC X 1
     2 SEC2       31 GROUP        1 X    SEC  0     **** SEC X 2
     3 GLC5        4 GROUP        1 X    GLC  0     **** GLC X 6
     4 ALP1        3 GROUP        1 Y    ALP  0     ROOT ALP Y 8
     5 SEP2       33 GROUP        1 Y    SEP  0     **** SEP Y 9
     6 GLP5        6 GROUP        1 Y    GLP  0     **** GLP Y 13
     7 ALL1        2 GROUP        1 Z    ALL  0     ROOT ALL Z 15
     8 SEL2       32 GROUP        1 Z    SEL  0     **** SEL Z 16
     9 GLL5        5 GROUP        1 Z    GLL  0     **** GLL Z 20
@<TRIPOS>SET

