#    Name: 3rlq_3RQ_1_ligand
#    Modification time : Tue Mar 25 11:39:12 2014

@<TRIPOS>MOLECULE
3rlq_3RQ_1_ligand
   32    34     1     0     0
SMALL
NO_CHARGES


@<TRIPOS>ATOM
      1 N1         17.5740   -2.2510   49.8550 N.ar      1 3RQ901      0.0000 
      2 N3         17.5210    0.0570   49.1460 N.pl3     1 3RQ901      0.0000 
      3 C4         12.5830   -1.2200   51.1210 C.ar      1 3RQ901      0.0000 
      4 C5         11.3640   -1.1260   51.8280 C.ar      1 3RQ901      0.0000 
      5 C6         11.3350   -1.3100   53.2260 C.ar      1 3RQ901      0.0000 
      6 C7         13.5310   -2.0160   56.1540 C.3       1 3RQ901      0.0000 
      7 C8         15.1050   -1.6430   51.1220 C.ar      1 3RQ901      0.0000 
      8 C10        17.4080   -4.5430   50.7030 C.3       1 3RQ901      0.0000 
      9 C13        15.6180    0.7690   50.0590 C.2       1 3RQ901      0.0000 
     10 C15        14.5520    1.6520   50.4270 C.1       1 3RQ901      0.0000 
     11 C2         13.7680   -1.6870   53.2290 C.ar      1 3RQ901      0.0000 
     12 C14        16.6970    1.1470   49.2930 C.2       1 3RQ901      0.0000 
     13 C12        15.7840   -0.6130   50.3960 C.ar      1 3RQ901      0.0000 
     14 C3         13.8200   -1.5110   51.8130 C.ar      1 3RQ901      0.0000 
     15 C1         12.5330   -1.5880   53.9620 C.ar      1 3RQ901      0.0000 
     16 C11        16.9940   -1.0140   49.8040 C.ar      1 3RQ901      0.0000 
     17 C9         16.8520   -3.1520   50.5750 C.ar      1 3RQ901      0.0000 
     18 N4         13.6860    2.3450   50.7550 N.1       1 3RQ901      0.0000 
     19 N2         15.6670   -2.9090   51.1960 N.ar      1 3RQ901      0.0000 
     20 O1         12.3870   -1.7390   55.3340 O.3       1 3RQ901      0.0000 
     21 CL2        12.5000   -0.9690   49.4020 Cl        1 3RQ901      0.0000 
     22 CL1         9.7980   -1.1840   53.9980 Cl        1 3RQ901      0.0000 
     23 H          18.3506    0.0564   48.6481 H         1 3RQ901      0.0000 
     24 H          10.4972   -0.9232   51.3222 H         1 3RQ901      0.0000 
     25 H          14.6336   -1.8902   53.7437 H         1 3RQ901      0.0000 
     26 H          16.8461    2.0156   48.9278 H         1 3RQ901      0.0000 
     27 H          13.9766   -2.8723   55.8928 H         1 3RQ901      0.0000 
     28 H          14.2200   -1.2945   56.0862 H         1 3RQ901      0.0000 
     29 H          13.2849   -2.0964   57.1199 H         1 3RQ901      0.0000 
     30 H          18.3068   -4.5448   51.1413 H         1 3RQ901      0.0000 
     31 H          16.8135   -5.1316   51.2509 H         1 3RQ901      0.0000 
     32 H          17.5157   -4.9834   49.8117 H         1 3RQ901      0.0000 
@<TRIPOS>BOND
     1   16    1 ar   
     2   17    1 ar   
     3   12    2 1    
     4   16    2 1    
     5   23    2 1    
     6    4    3 ar   
     7   14    3 ar   
     8   21    3 1    
     9    5    4 ar   
    10   24    4 1    
    11   15    5 ar   
    12   22    5 1    
    13   20    6 1    
    14   27    6 1    
    15   28    6 1    
    16   29    6 1    
    17   13    7 ar   
    18   14    7 1    
    19   19    7 ar   
    20   17    8 1    
    21   30    8 1    
    22   31    8 1    
    23   32    8 1    
    24   10    9 1    
    25   12    9 2    
    26   13    9 1    
    27   18   10 3    
    28   14   11 ar   
    29   15   11 ar   
    30   25   11 1    
    31   26   12 1    
    32   16   13 ar   
    33   20   15 1    
    34   19   17 ar   
@<TRIPOS>SUBSTRUCTURE
     1 3RQ901      1 GROUP   
@<TRIPOS>SET

