#    Name: 1t46_STI_1_INTS_M
#    Modification time : Tue Mar 25 04:19:56 2014

@<TRIPOS>MOLECULE
1t46_STI_1_INTS_M
  103     0     9     0     0
SMALL
NO_CHARGES


@<TRIPOS>ATOM
      1 CA         29.5035   21.8365   47.7790 C.3       3 GLC5        0.0000 
      2 CA         30.2890   23.5400   46.7930 C.3       9 GLL5        0.0000 
      3 CA         28.7180   20.1330   48.7650 C.3       6 GLP5        0.0000 
      4 CA         31.2550   21.7710   46.1950 C.3       3 GLC5        0.0000 
      5 CA         32.2210   20.0020   45.5970 C.3       6 GLP5        0.0000 
      6 N          31.0100   21.4610   47.6085 N.am      2 SEC2        0.0000 
      7 N          31.1560   22.8770   47.5750 N.am      8 SEL2        0.0000 
      8 N          30.8640   20.0450   47.6420 N.am      5 SEP2        0.0000 
      9 CA         32.1650   21.4125   47.4675 C.3       3 GLC5        0.0000 
     10 CA         32.3300   23.4240   47.9550 C.3       9 GLL5        0.0000 
     11 CA         32.0000   19.4010   46.9800 C.3       6 GLP5        0.0000 
     12 CA         27.9200   28.5845   45.0345 C.3       3 GLC5        0.0000 
     13 CA         29.0340   27.3880   44.0930 C.3       9 GLL5        0.0000 
     14 CA         26.8060   29.7810   45.9760 C.3       6 GLP5        0.0000 
     15 CA         27.5465   26.8500   46.0520 C.3       3 GLC5        0.0000 
     16 CA         27.5660   25.5940   44.4210 C.3       9 GLL5        0.0000 
     17 CA         27.5270   28.1060   47.6830 C.3       6 GLP5        0.0000 
     18 CA         27.1845   24.8585   46.3465 C.3       3 GLC5        0.0000 
     19 CA         26.8030   24.1230   48.2720 C.3       6 GLP5        0.0000 
     20 CA         29.1690   24.3565   43.7930 C.3       3 GLC5        0.0000 
     21 CA         30.7720   23.1190   43.1650 C.3       6 GLP5        0.0000 
     22 O          25.6980   23.8125   44.8130 O.2       1 ALC1        0.0000 
     23 O          26.4040   24.9540   44.2010 O.2       7 ALL1        0.0000 
     24 O          24.9920   22.6710   45.4250 O.2       4 ALP1        0.0000 
     25 CA         22.1300   27.5345   40.5385 C.3       3 GLC5        0.0000 
     26 CA         23.1490   26.6030   42.2330 C.3       9 GLL5        0.0000 
     27 CA         21.1110   28.4660   38.8440 C.3       6 GLP5        0.0000 
     28 CA         24.1650   23.9635   32.3575 C.3       3 GLC5        0.0000 
     29 CA         23.7080   25.6150   33.6100 C.3       9 GLL5        0.0000 
     30 CA         24.6220   22.3120   31.1050 C.3       6 GLP5        0.0000 
     31 CA         25.8995   28.1005   34.8905 C.3       3 GLC5        0.0000 
     32 CA         24.7780   27.8090   33.1870 C.3       9 GLL5        0.0000 
     33 CA         27.0210   28.3920   36.5940 C.3       6 GLP5        0.0000 
     34 O          24.3460   28.5370   30.1585 O.2       1 ALC1        0.0000 
     35 O          23.8580   29.1530   31.4220 O.2       7 ALL1        0.0000 
     36 O          24.8340   27.9210   28.8950 O.2       4 ALP1        0.0000 
     37 CA         25.1145   31.0735   29.4265 C.3       3 GLC5        0.0000 
     38 CA         23.8300   30.4370   30.7290 C.3       9 GLL5        0.0000 
     39 CA         26.3990   31.7100   28.1240 C.3       6 GLP5        0.0000 
     40 CA         21.4230   26.1105   32.6720 C.3       3 GLC5        0.0000 
     41 CA         22.9660   26.9000   31.7180 C.3       9 GLL5        0.0000 
     42 CA         19.8800   25.3210   33.6260 C.3       6 GLP5        0.0000 
     43 N          27.1250   26.0980   38.9045 N.am      2 SEC2        0.0000 
     44 N          26.0670   25.2150   39.5910 N.am      8 SEL2        0.0000 
     45 N          28.1830   26.9810   38.2180 N.am      5 SEP2        0.0000 
     46 CA         25.9260   27.0950   46.7445 C.3       3 GLC5        0.0000 
     47 CA         24.3250   26.0840   45.8060 C.3       9 GLL5        0.0000 
     48 CA         25.5640   25.1035   47.0390 C.3       3 GLC5        0.0000 
     49 CA         23.7825   26.3940   47.6960 C.3       3 GLC5        0.0000 
     50 CA         23.2400   26.7040   49.5860 C.3       6 GLP5        0.0000 
     51 CA         34.3010   23.5385   47.2335 C.3       3 GLC5        0.0000 
     52 CA         32.6960   24.7000   47.5410 C.3       9 GLL5        0.0000 
     53 CA         36.0890   23.0150   46.7190 C.3       6 GLP5        0.0000 
     54 CA         32.5810   24.7503   45.1015 C.3       3 GLC5        0.0000 
     55 CA         32.9050   24.4460   43.0730 C.3       6 GLP5        0.0000 
     56 CA         30.3145   25.1865   48.3015 C.3       3 GLC5        0.0000 
     57 CA         30.6070   24.8220   46.3550 C.3       9 GLL5        0.0000 
     58 CA         30.1810   26.1920   50.0290 C.3       6 GLP5        0.0000 
     59 CA         30.6100   23.6500   44.8695 C.3       3 GLC5        0.0000 
     60 CA         31.2372   25.2156   48.7858 C.3       3 GLC5        0.0000 
     61 CA         31.8180   25.4090   46.7190 C.3       9 GLL5        0.0000 
     62 CA         28.6707   27.1343   46.4428 C.3       3 GLC5        0.0000 
     63 CA         29.6570   25.5420   45.4790 C.3       9 GLL5        0.0000 
     64 CA         28.4277   24.4923   47.1493 C.3       3 GLC5        0.0000 
     65 CA         30.2933   24.6408   44.1838 C.3       3 GLC5        0.0000 
     66 CA         25.7145   23.5522   42.5453 C.3       3 GLC5        0.0000 
     67 CA         25.3470   25.5110   43.5600 C.3       9 GLL5        0.0000 
     68 CA         26.1140   21.6040   42.2280 C.3       6 GLP5        0.0000 
     69 CA         21.3245   26.1893   43.4402 C.3       3 GLC5        0.0000 
     70 CA         23.2070   26.6100   43.6280 C.3       9 GLL5        0.0000 
     71 CA         19.4710   25.7720   43.9500 C.3       6 GLP5        0.0000 
     72 CA         23.1285   24.7782   43.4917 C.3       3 GLC5        0.0000 
     73 CA         23.0790   22.9500   44.0530 C.3       6 GLP5        0.0000 
     74 CA         24.1380   28.1257   42.3970 C.3       3 GLC5        0.0000 
     75 CA         24.6040   29.9230   42.9300 C.3       6 GLP5        0.0000 
     76 CA         22.5165   25.2212   41.0290 C.3       3 GLC5        0.0000 
     77 CA         21.3610   24.1140   40.1940 C.3       6 GLP5        0.0000 
     78 CA         23.9090   24.3610   42.9415 C.3       3 GLC5        0.0000 
     79 CA         24.1950   26.0540   41.4950 C.3       9 GLL5        0.0000 
     80 CA         26.9913   24.9730   37.8257 C.3       3 GLC5        0.0000 
     81 CA         24.6520   25.6310   37.7790 C.3       9 GLL5        0.0000 
     82 CA         28.9350   24.6830   38.3140 C.3       6 GLP5        0.0000 
     83 CA         26.0343   26.8275   36.9657 C.3       3 GLC5        0.0000 
     84 CA         25.4430   24.8950   36.8960 C.3       9 GLL5        0.0000 
     85 CA         23.7196   23.9800   37.3456 C.3       3 GLC5        0.0000 
     86 CA         22.3480   22.8800   38.2530 C.3       6 GLP5        0.0000 
     87 CA         25.8043   26.8275   35.9520 C.3       3 GLC5        0.0000 
     88 CA         25.1350   24.8970   35.5390 C.3       9 GLL5        0.0000 
     89 CA         23.0220   23.7320   33.9917 C.3       3 GLC5        0.0000 
     90 CA         22.1700   21.8420   33.6380 C.3       6 GLP5        0.0000 
     91 CA         22.2542   27.4095   37.7418 C.3       3 GLC5        0.0000 
     92 CA         23.2420   26.3570   35.9610 C.3       9 GLL5        0.0000 
     93 CA         22.8727   24.6165   37.4462 C.3       3 GLC5        0.0000 
     94 CA         23.5530   26.3490   37.3180 C.3       9 GLL5        0.0000 
     95 CA         25.2093   27.3725   36.6168 C.3       3 GLC5        0.0000 
     96 CA         21.7772   25.5625   34.0957 C.3       3 GLC5        0.0000 
     97 CA         24.0400   25.6290   35.0810 C.3       9 GLL5        0.0000 
     98 CA         25.9743   28.0085   31.4360 C.3       3 GLC5        0.0000 
     99 CA         27.3560   27.5000   29.8940 C.3       6 GLP5        0.0000 
    100 CA         23.4945   27.8439   45.2732 C.3       3 GLC5        0.0000 
    101 CA         24.2990   26.0650   44.2940 C.3       9 GLL5        0.0000 
    102 CA         22.9500   29.4770   45.6630 C.3       6 GLP5        0.0000 
    103 CA         23.8265   24.4430   44.4597 C.3       3 GLC5        0.0000 
@<TRIPOS>BOND
@<TRIPOS>SUBSTRUCTURE
     1 ALC1       22 GROUP        1 X    ALC  0     ROOT ALC X 1
     2 SEC2        6 GROUP        1 X    SEC  0     **** SEC X 2
     3 GLC5        1 GROUP        1 X    GLC  0     **** GLC X 6
     4 ALP1       24 GROUP        1 Y    ALP  0     ROOT ALP Y 8
     5 SEP2        8 GROUP        1 Y    SEP  0     **** SEP Y 9
     6 GLP5        3 GROUP        1 Y    GLP  0     **** GLP Y 13
     7 ALL1       23 GROUP        1 Z    ALL  0     ROOT ALL Z 15
     8 SEL2        7 GROUP        1 Z    SEL  0     **** SEL Z 16
     9 GLL5        2 GROUP        1 Z    GLL  0     **** GLL Z 20
@<TRIPOS>SET

