#    Name: 1t46_STI_1_ligand
#    Modification time : Tue Mar 25 04:19:56 2014

@<TRIPOS>MOLECULE
1t46_STI_1_ligand
   69    73     1     0     0
SMALL
NO_CHARGES


@<TRIPOS>ATOM
      1 C1         32.6960   24.7000   47.5410 C.ar      1 STI3        0.0000 
      2 C6         31.8180   25.4090   46.7190 C.ar      1 STI3        0.0000 
      3 C5         30.6070   24.8220   46.3550 C.ar      1 STI3        0.0000 
      4 C4         30.2890   23.5400   46.7930 C.ar      1 STI3        0.0000 
      5 N3         31.1560   22.8770   47.5750 N.ar      1 STI3        0.0000 
      6 C2         32.3300   23.4240   47.9550 C.ar      1 STI3        0.0000 
      7 C7         29.6570   25.5420   45.4790 C.ar      1 STI3        0.0000 
      8 C12        29.9720   26.7830   44.9260 C.ar      1 STI3        0.0000 
      9 C11        29.0340   27.3880   44.0930 C.ar      1 STI3        0.0000 
     10 N10        27.8540   26.7890   43.8490 N.ar      1 STI3        0.0000 
     11 C9         27.5660   25.5940   44.4210 C.ar      1 STI3        0.0000 
     12 N8         28.4650   24.9750   45.2160 N.ar      1 STI3        0.0000 
     13 N13        26.4040   24.9540   44.2010 N.pl3     1 STI3        0.0000 
     14 C14        25.3470   25.5110   43.5600 C.ar      1 STI3        0.0000 
     15 C19        24.2990   26.0650   44.2940 C.ar      1 STI3        0.0000 
     16 C18        23.2070   26.6100   43.6280 C.ar      1 STI3        0.0000 
     17 C17        23.1490   26.6030   42.2330 C.ar      1 STI3        0.0000 
     18 C16        24.1950   26.0540   41.4950 C.ar      1 STI3        0.0000 
     19 C15        25.2830   25.4900   42.1650 C.ar      1 STI3        0.0000 
     20 N21        24.0610   26.0500   40.0970 N.am      1 STI3        0.0000 
     21 C22        24.9820   25.6240   39.2380 C.2       1 STI3        0.0000 
     22 C23        24.6520   25.6310   37.7790 C.ar      1 STI3        0.0000 
     23 C25        25.4430   24.8950   36.8960 C.ar      1 STI3        0.0000 
     24 C26        25.1350   24.8970   35.5390 C.ar      1 STI3        0.0000 
     25 C27        24.0400   25.6290   35.0810 C.ar      1 STI3        0.0000 
     26 C28        23.2420   26.3570   35.9610 C.ar      1 STI3        0.0000 
     27 C29        23.5530   26.3490   37.3180 C.ar      1 STI3        0.0000 
     28 C46        23.7080   25.6150   33.6100 C.3       1 STI3        0.0000 
     29 N48        23.6120   26.9460   33.0270 N.3       1 STI3        0.0000 
     30 C53        24.7780   27.8090   33.1870 C.3       1 STI3        0.0000 
     31 C52        24.4070   29.2250   32.7690 C.3       1 STI3        0.0000 
     32 N51        23.8580   29.1530   31.4220 N.4       1 STI3        0.0000 
     33 C54        23.8300   30.4370   30.7290 C.3       1 STI3        0.0000 
     34 C50        22.6960   28.3020   31.1910 C.3       1 STI3        0.0000 
     35 C49        22.9660   26.9000   31.7180 C.3       1 STI3        0.0000 
     36 O29        26.0670   25.2150   39.5910 O.2       1 STI3        0.0000 
     37 C20        24.3250   26.0840   45.8060 C.3       1 STI3        0.0000 
     38 H          33.5808   25.1090   47.8285 H         1 STI3        0.0000 
     39 H          32.0602   26.3439   46.3897 H         1 STI3        0.0000 
     40 H          29.3896   23.1222   46.5072 H         1 STI3        0.0000 
     41 H          32.9861   22.8949   48.5695 H         1 STI3        0.0000 
     42 H          30.8595   27.2316   45.1254 H         1 STI3        0.0000 
     43 H          29.2664   28.3063   43.6680 H         1 STI3        0.0000 
     44 H          26.3034   23.9500   44.5491 H         1 STI3        0.0000 
     45 H          22.4310   27.0241   44.1672 H         1 STI3        0.0000 
     46 H          22.3343   27.0031   41.7523 H         1 STI3        0.0000 
     47 H          26.0451   25.0546   41.6253 H         1 STI3        0.0000 
     48 H          23.1289   26.4272   39.7206 H         1 STI3        0.0000 
     49 H          26.2418   24.3593   37.2448 H         1 STI3        0.0000 
     50 H          25.7092   24.3636   34.8783 H         1 STI3        0.0000 
     51 H          22.4418   26.8879   35.6157 H         1 STI3        0.0000 
     52 H          22.9685   26.8755   37.9813 H         1 STI3        0.0000 
     53 H          22.7540   25.0643   33.4736 H         1 STI3        0.0000 
     54 H          24.4821   25.0183   33.0840 H         1 STI3        0.0000 
     55 H          25.6038   27.4698   32.5624 H         1 STI3        0.0000 
     56 H          25.1085   27.8308   34.2250 H         1 STI3        0.0000 
     57 H          25.3002   29.8381   32.7967 H         1 STI3        0.0000 
     58 H          23.6770   29.6117   33.4704 H         1 STI3        0.0000 
     59 H          24.7370   28.5692   30.8151 H         1 STI3        0.0000 
     60 H          22.4697   28.2314   30.1233 H         1 STI3        0.0000 
     61 H          21.8139   28.6984   31.7018 H         1 STI3        0.0000 
     62 H          22.0096   26.3631   31.7747 H         1 STI3        0.0000 
     63 H          23.5985   26.3742   30.9902 H         1 STI3        0.0000 
     64 H          24.7455   30.8281   30.6346 H         1 STI3        0.0000 
     65 H          23.4505   30.3535   29.8076 H         1 STI3        0.0000 
     66 H          23.2727   31.1097   31.2157 H         1 STI3        0.0000 
     67 H          24.3778   25.1614   46.1882 H         1 STI3        0.0000 
     68 H          25.1111   26.5923   46.1576 H         1 STI3        0.0000 
     69 H          23.5052   26.5123   46.1862 H         1 STI3        0.0000 
@<TRIPOS>BOND
     1    2    1 ar   
     2    6    1 ar   
     3   38    1 1    
     4    3    2 ar   
     5   39    2 1    
     6    4    3 ar   
     7    7    3 1    
     8    5    4 ar   
     9   40    4 1    
    10    6    5 ar   
    11   41    6 1    
    12    8    7 ar   
    13   12    7 ar   
    14    9    8 ar   
    15   42    8 1    
    16   10    9 ar   
    17   43    9 1    
    18   11   10 ar   
    19   12   11 ar   
    20   13   11 1    
    21   14   13 1    
    22   44   13 1    
    23   15   14 ar   
    24   19   14 ar   
    25   16   15 ar   
    26   37   15 1    
    27   17   16 ar   
    28   45   16 1    
    29   18   17 ar   
    30   46   17 1    
    31   19   18 ar   
    32   20   18 1    
    33   47   19 1    
    34   21   20 am   
    35   48   20 1    
    36   22   21 1    
    37   36   21 2    
    38   23   22 ar   
    39   27   22 ar   
    40   24   23 ar   
    41   49   23 1    
    42   25   24 ar   
    43   50   24 1    
    44   26   25 ar   
    45   28   25 1    
    46   27   26 ar   
    47   51   26 1    
    48   52   27 1    
    49   29   28 1    
    50   53   28 1    
    51   54   28 1    
    52   30   29 1    
    53   35   29 1    
    54   31   30 1    
    55   55   30 1    
    56   56   30 1    
    57   32   31 1    
    58   57   31 1    
    59   58   31 1    
    60   33   32 1    
    61   34   32 1    
    62   59   32 1    
    63   64   33 1    
    64   65   33 1    
    65   66   33 1    
    66   35   34 1    
    67   60   34 1    
    68   61   34 1    
    69   62   35 1    
    70   63   35 1    
    71   67   37 1    
    72   68   37 1    
    73   69   37 1    
@<TRIPOS>SUBSTRUCTURE
     1 STI3        1 GROUP   
@<TRIPOS>SET

