#    Name: 1cf3_FAD_1_INTS_M
#    Modification time : Mon Mar 24 20:39:20 2014

@<TRIPOS>MOLECULE
1cf3_FAD_1_INTS_M
  132     0     9     0     0
SMALL
NO_CHARGES


@<TRIPOS>ATOM
      1 N          33.2140    6.6805   58.8595 N.am      2 SEC2        0.0000 
      2 N          32.0590    5.8500   57.9110 N.am      8 SEL2        0.0000 
      3 N          34.3690    7.5110   59.8080 N.am      5 SEP2        0.0000 
      4 N          29.9075    8.5110   55.8770 N.am      2 SEC2        0.0000 
      5 N          31.1040    7.7550   56.6660 N.am      8 SEL2        0.0000 
      6 N          28.7110    9.2670   55.0880 N.am      5 SEP2        0.0000 
      7 N          31.4950    8.4000   58.0695 N.am      2 SEC2        0.0000 
      8 N          31.8860    9.0450   59.4730 N.am      5 SEP2        0.0000 
      9 CA         30.6425    3.1085   56.7135 C.3       3 GLC5        0.0000 
     10 CA         29.4230    4.5560   57.5680 C.3       9 GLL5        0.0000 
     11 CA         31.8620    1.6610   55.8590 C.3       6 GLP5        0.0000 
     12 CA         26.3740    3.8525   57.8975 C.3       3 GLC5        0.0000 
     13 CA         28.2490    4.6230   58.5560 C.3       9 GLL5        0.0000 
     14 CA         24.4990    3.0820   57.2390 C.3       6 GLP5        0.0000 
     15 CA         27.9100    6.6640   58.3390 C.3       3 GLC5        0.0000 
     16 CA         28.4820    5.2310   59.9640 C.3       9 GLL5        0.0000 
     17 CA         27.3380    8.0970   56.7140 C.3       6 GLP5        0.0000 
     18 CA         28.9940    7.0095   59.8935 C.3       3 GLC5        0.0000 
     19 CA         29.5060    8.7880   59.8230 C.3       6 GLP5        0.0000 
     20 O          26.2785    5.9545   60.2825 O.2       1 ALC1        0.0000 
     21 O          27.6250    6.3080   60.2120 O.2       7 ALL1        0.0000 
     22 O          24.9320    5.6010   60.3530 O.2       4 ALP1        0.0000 
     23 CA         29.7490    3.6620   62.4230 C.3       3 GLC5        0.0000 
     24 CA         28.4090    4.0410   60.9060 C.3       9 GLL5        0.0000 
     25 CA         31.0890    3.2830   63.9400 C.3       6 GLP5        0.0000 
     26 N          28.8425    3.7235   62.9870 N.am      2 SEC2        0.0000 
     27 N          27.9350    4.4140   62.1620 N.am      8 SEL2        0.0000 
     28 N          29.7500    3.0330   63.8120 N.am      5 SEP2        0.0000 
     29 O          26.7210    4.9380   62.3240 O.2       1 ALC1        0.0000 
     30 O          27.9350    4.4140   62.1620 O.2       7 ALL1        0.0000 
     31 O          25.5070    5.4620   62.4860 O.2       4 ALP1        0.0000 
     32 CA         25.8955    3.1735   58.7405 C.3       3 GLC5        0.0000 
     33 CA         27.2920    3.2650   60.2420 C.3       9 GLL5        0.0000 
     34 CA         24.0930   -1.8025   62.1455 C.3       3 GLC5        0.0000 
     35 CA         25.6110   -1.3290   60.8020 C.3       9 GLL5        0.0000 
     36 CA         22.5750   -2.2760   63.4890 C.3       6 GLP5        0.0000 
     37 O          24.9255   -3.7960   60.6265 O.2       1 ALC1        0.0000 
     38 O          25.8480   -2.5900   61.0480 O.2       7 ALL1        0.0000 
     39 O          24.0030   -5.0020   60.2050 O.2       4 ALP1        0.0000 
     40 N          23.3210   -1.9140   60.8250 N.am      2 SEC2        0.0000 
     41 N          24.3480   -0.9130   60.4960 N.am      8 SEL2        0.0000 
     42 N          22.2940   -2.9150   61.1540 N.am      5 SEP2        0.0000 
     43 CA         24.2505    1.7195   58.7285 C.3       3 GLC5        0.0000 
     44 CA         24.0020    0.3570   60.2180 C.3       9 GLL5        0.0000 
     45 CA         23.0495    2.1750   60.7145 C.3       3 GLC5        0.0000 
     46 CA         22.0970    3.9930   61.2110 C.3       6 GLP5        0.0000 
     47 CA         24.5205    1.0095   62.2660 C.3       3 GLC5        0.0000 
     48 CA         25.0390    1.6620   64.3140 C.3       6 GLP5        0.0000 
     49 CA         23.2885   -0.9595   61.8535 C.3       3 GLC5        0.0000 
     50 CA         22.5205   -0.9080   59.3700 C.3       3 GLC5        0.0000 
     51 CA         21.0390   -2.1730   58.5220 C.3       6 GLP5        0.0000 
     52 N          24.1605    2.1950   61.5660 N.am      2 SEC2        0.0000 
     53 N          24.8450    1.4040   60.1850 N.am      8 SEL2        0.0000 
     54 N          23.4760    2.9860   62.9470 N.am      5 SEP2        0.0000 
     55 CA         25.3070    2.0585   58.8630 C.3       3 GLC5        0.0000 
     56 CA         26.1150    1.0350   60.4870 C.3       9 GLL5        0.0000 
     57 N          37.9350   13.2610   51.8870 N.am      2 SEC2        0.0000 
     58 N          38.6280   13.8860   53.0190 N.am      8 SEL2        0.0000 
     59 N          37.2420   12.6360   50.7550 N.am      5 SEP2        0.0000 
     60 N          38.7790   14.7470   51.6430 N.am      2 SEC2        0.0000 
     61 N          38.9300   15.6080   50.2670 N.am      5 SEP2        0.0000 
     62 O          39.5505   15.8140   53.9960 O.2       1 ALC1        0.0000 
     63 O          39.5610   14.6080   54.8910 O.2       7 ALL1        0.0000 
     64 O          39.5400   17.0200   53.1010 O.2       4 ALP1        0.0000 
     65 N          40.1880   16.6610   56.2700 N.am      2 SEC2        0.0000 
     66 N          40.5610   15.2110   56.7910 N.am      8 SEL2        0.0000 
     67 N          39.8150   18.1110   55.7490 N.am      5 SEP2        0.0000 
     68 CA         40.1610   12.0885   62.6390 C.3       3 GLC5        0.0000 
     69 CA         39.7510   10.1250   62.0070 C.3       9 GLL5        0.0000 
     70 CA         40.5710   14.0520   63.2710 C.3       6 GLP5        0.0000 
     71 CA         40.0875   10.5200   63.8765 C.3       3 GLC5        0.0000 
     72 CA         40.4240   10.9150   65.7460 C.3       6 GLP5        0.0000 
     73 CA         39.5425    8.4990   63.3775 C.3       3 GLC5        0.0000 
     74 CA         39.3340    6.8730   64.7480 C.3       6 GLP5        0.0000 
     75 CA         37.6750   10.4215   62.6690 C.3       3 GLC5        0.0000 
     76 CA         35.5990   10.7180   63.3310 C.3       6 GLP5        0.0000 
     77 CA         41.0445    8.9600   61.8940 C.3       3 GLC5        0.0000 
     78 CA         42.3380    7.7950   61.7810 C.3       6 GLP5        0.0000 
     79 CA         38.7125    7.5410   62.6930 C.3       3 GLC5        0.0000 
     80 CA         38.0910    8.2090   60.6380 C.3       9 GLL5        0.0000 
     81 CA         36.7340    6.9235   61.6495 C.3       3 GLC5        0.0000 
     82 CA         35.3770    5.6380   62.6610 C.3       6 GLP5        0.0000 
     83 CA         36.8450    9.4635   61.9845 C.3       3 GLC5        0.0000 
     84 CA         40.0880    9.6515   56.3380 C.3       3 GLC5        0.0000 
     85 CA         38.8930   10.6470   57.8380 C.3       9 GLL5        0.0000 
     86 CA         41.2830    8.6560   54.8380 C.3       6 GLP5        0.0000 
     87 CA         39.5775    9.2635   55.2955 C.3       3 GLC5        0.0000 
     88 CA         37.8720    9.8710   55.7530 C.3       9 GLL5        0.0000 
     89 CA         35.8705   11.8535   54.3385 C.3       3 GLC5        0.0000 
     90 CA         36.3660   10.1010   55.4940 C.3       9 GLL5        0.0000 
     91 CA         35.3750   13.6060   53.1830 C.3       6 GLP5        0.0000 
     92 N          35.7855   12.1155   56.9475 N.am      2 SEC2        0.0000 
     93 N          35.7360   10.6230   56.6610 N.am      8 SEL2        0.0000 
     94 N          35.8350   13.6080   57.2340 N.am      5 SEP2        0.0000 
     95 CA         33.3625   10.1210   53.7125 C.3       3 GLC5        0.0000 
     96 CA         34.3480    8.7910   54.7930 C.3       9 GLL5        0.0000 
     97 CA         32.3770   11.4510   52.6320 C.3       6 GLP5        0.0000 
     98 N          29.3630    7.4135   52.8980 N.am      2 SEC2        0.0000 
     99 N          30.1890    6.4570   53.5170 N.am      8 SEL2        0.0000 
    100 N          28.5370    8.3700   52.2790 N.am      5 SEP2        0.0000 
    101 N          29.3845    6.0285   52.4220 N.am      2 SEC2        0.0000 
    102 N          28.5800    5.6000   51.3270 N.am      5 SEP2        0.0000 
    103 N          32.6710    4.2170   52.1545 N.am      2 SEC2        0.0000 
    104 N          32.2230    5.0030   53.4040 N.am      8 SEL2        0.0000 
    105 N          33.1190    3.4310   50.9050 N.am      5 SEP2        0.0000 
    106 CA         28.0870    6.3432   57.3880 C.3       3 GLC5        0.0000 
    107 CA         28.5175    2.7222   57.2840 C.3       3 GLC5        0.0000 
    108 CA         28.1990    0.8550   56.5060 C.3       6 GLP5        0.0000 
    109 CA         25.6958    1.0285   62.4770 C.3       3 GLC5        0.0000 
    110 CA         27.7288   -1.8870   60.0207 C.3       3 GLC5        0.0000 
    111 CA         26.5900   -0.2450   60.7930 C.3       9 GLL5        0.0000 
    112 CA         29.3570   -2.9870   59.2440 C.3       6 GLP5        0.0000 
    113 CA         26.9629   -0.2020   58.8431 C.3       3 GLC5        0.0000 
    114 CA         27.8180   -0.5280   57.0440 C.3       6 GLP5        0.0000 
    115 CA         38.5075   12.4555   59.2115 C.3       3 GLC5        0.0000 
    116 CA         39.6670   11.6000   58.5090 C.3       9 GLL5        0.0000 
    117 CA         37.1990   13.4090   59.2290 C.3       6 GLP5        0.0000 
    118 CA         38.1140   11.6410   59.7168 C.3       3 GLC5        0.0000 
    119 CA         39.4540   10.3450   60.5360 C.3       9 GLL5        0.0000 
    120 CA         39.8480    7.7360   60.2346 C.3       3 GLC5        0.0000 
    121 CA         41.1360    6.4310   60.0480 C.3       6 GLP5        0.0000 
    122 CA         36.3289    8.9902   59.2771 C.3       3 GLC5        0.0000 
    123 CA         38.6040    9.4010   59.8730 C.3       9 GLL5        0.0000 
    124 CA         34.3340    8.7860   59.1680 C.3       6 GLP5        0.0000 
    125 CA         37.8978   11.7623   58.7033 C.3       3 GLC5        0.0000 
    126 CA         38.3000    9.5840   58.5170 C.3       9 GLL5        0.0000 
    127 CA         37.3978    9.3970   53.6079 C.3       3 GLC5        0.0000 
    128 CA         35.7920    8.7020   55.2540 C.3       9 GLL5        0.0000 
    129 CA         38.3400    9.4500   51.7770 C.3       6 GLP5        0.0000 
    130 CA         34.7738    8.9411   57.1257 C.3       3 GLC5        0.0000 
    131 CA         34.4380    7.8528   52.7075 C.3       3 GLC5        0.0000 
    132 CA         34.7330    7.6420   50.7670 C.3       6 GLP5        0.0000 
@<TRIPOS>BOND
@<TRIPOS>SUBSTRUCTURE
     1 ALC1       20 GROUP        1 X    ALC  0     ROOT ALC X 1
     2 SEC2        1 GROUP        1 X    SEC  0     **** SEC X 2
     3 GLC5        9 GROUP        1 X    GLC  0     **** GLC X 6
     4 ALP1       22 GROUP        1 Y    ALP  0     ROOT ALP Y 8
     5 SEP2        3 GROUP        1 Y    SEP  0     **** SEP Y 9
     6 GLP5       11 GROUP        1 Y    GLP  0     **** GLP Y 13
     7 ALL1       21 GROUP        1 Z    ALL  0     ROOT ALL Z 15
     8 SEL2        2 GROUP        1 Z    SEL  0     **** SEL Z 16
     9 GLL5       10 GROUP        1 Z    GLL  0     **** GLL Z 20
@<TRIPOS>SET

