#    Name: 1cf3_FAD_1_ligand
#    Modification time : Mon Mar 24 20:39:20 2014

@<TRIPOS>MOLECULE
1cf3_FAD_1_ligand
   83    88     1     0     0
SMALL
NO_CHARGES


@<TRIPOS>ATOM
      1 PA         31.1800    6.4120   56.8330 P.3       1 FAD600      0.0000 
      2 O1A        32.0590    5.8500   57.9110 O.co2     1 FAD600      0.0000 
      3 O2A        31.1040    7.7550   56.6660 O.co2     1 FAD600      0.0000 
      4 O5B        29.8170    5.9330   57.2670 O.3       1 FAD600      0.0000 
      5 C5B        29.4230    4.5560   57.5680 C.3       1 FAD600      0.0000 
      6 C4B        28.2490    4.6230   58.5560 C.3       1 FAD600      0.0000 
      7 O4B        27.7120    3.2870   58.8340 O.3       1 FAD600      0.0000 
      8 C3B        28.4820    5.2310   59.9640 C.3       1 FAD600      0.0000 
      9 O3B        27.6250    6.3080   60.2120 O.3       1 FAD600      0.0000 
     10 C2B        28.4090    4.0410   60.9060 C.3       1 FAD600      0.0000 
     11 O2B        27.9350    4.4140   62.1620 O.3       1 FAD600      0.0000 
     12 C1B        27.2920    3.2650   60.2420 C.3       1 FAD600      0.0000 
     13 N9A        27.2510    1.8440   60.5370 N.pl3     1 FAD600      0.0000 
     14 C8A        28.3090    1.0400   60.8570 C.2       1 FAD600      0.0000 
     15 N7A        27.9440   -0.2150   61.0250 N.2       1 FAD600      0.0000 
     16 C5A        26.5900   -0.2450   60.7930 C.ar      1 FAD600      0.0000 
     17 C6A        25.6110   -1.3290   60.8020 C.ar      1 FAD600      0.0000 
     18 N6A        25.8480   -2.5900   61.0480 N.pl3     1 FAD600      0.0000 
     19 N1A        24.3480   -0.9130   60.4960 N.ar      1 FAD600      0.0000 
     20 C2A        24.0020    0.3570   60.2180 C.ar      1 FAD600      0.0000 
     21 N3A        24.8450    1.4040   60.1850 N.ar      1 FAD600      0.0000 
     22 C4A        26.1150    1.0350   60.4870 C.ar      1 FAD600      0.0000 
     23 N1         38.5710   12.4340   54.6840 N.2       1 FAD600      0.0000 
     24 C2         38.8950   13.5930   54.1510 C.2       1 FAD600      0.0000 
     25 O2         38.6280   13.8860   53.0190 O.2       1 FAD600      0.0000 
     26 N3         39.5610   14.6080   54.8910 N.am      1 FAD600      0.0000 
     27 C4         39.9700   14.3500   56.1750 C.2       1 FAD600      0.0000 
     28 O4         40.5610   15.2110   56.7910 O.2       1 FAD600      0.0000 
     29 C4X        39.7160   13.0350   56.7190 C.2       1 FAD600      0.0000 
     30 N5         40.0810   12.7920   57.9820 N.2       1 FAD600      0.0000 
     31 C5X        39.6670   11.6000   58.5090 C.ar      1 FAD600      0.0000 
     32 C6         39.9650   11.4040   59.8790 C.ar      1 FAD600      0.0000 
     33 C7         39.4540   10.3450   60.5360 C.ar      1 FAD600      0.0000 
     34 C7M        39.7510   10.1250   62.0070 C.3       1 FAD600      0.0000 
     35 C8         38.6040    9.4010   59.8730 C.ar      1 FAD600      0.0000 
     36 C8M        38.0910    8.2090   60.6380 C.3       1 FAD600      0.0000 
     37 C9         38.3000    9.5840   58.5170 C.ar      1 FAD600      0.0000 
     38 C9A        38.8930   10.6470   57.8380 C.ar      1 FAD600      0.0000 
     39 N10        38.5520   10.9440   56.4920 N.pl3     1 FAD600      0.0000 
     40 C10        38.9570   12.0810   55.9280 C.2       1 FAD600      0.0000 
     41 C1'        37.8720    9.8710   55.7530 C.3       1 FAD600      0.0000 
     42 C2'        36.3660   10.1010   55.4940 C.3       1 FAD600      0.0000 
     43 O2'        35.7360   10.6230   56.6610 O.3       1 FAD600      0.0000 
     44 C3'        35.7920    8.7020   55.2540 C.3       1 FAD600      0.0000 
     45 O3'        36.5360    8.0500   54.2510 O.3       1 FAD600      0.0000 
     46 C4'        34.3480    8.7910   54.7930 C.3       1 FAD600      0.0000 
     47 O4'        33.5090    9.3570   55.8180 O.3       1 FAD600      0.0000 
     48 C5'        33.9380    7.3360   54.5030 C.3       1 FAD600      0.0000 
     49 O5'        32.4300    7.3330   54.0270 O.3       1 FAD600      0.0000 
     50 P          31.5800    6.0790   54.0390 P.3       1 FAD600      0.0000 
     51 O1P        30.1890    6.4570   53.5170 O.co2     1 FAD600      0.0000 
     52 O2P        32.2230    5.0030   53.4040 O.co2     1 FAD600      0.0000 
     53 O3P        31.5480    5.6070   55.4860 O.3       1 FAD600      0.0000 
     54 H          30.2303    4.0099   58.0351 H         1 FAD600      0.0000 
     55 H          29.0904    4.0396   56.6787 H         1 FAD600      0.0000 
     56 H          27.4286    5.2069   58.0962 H         1 FAD600      0.0000 
     57 H          29.5503    5.5445   59.9456 H         1 FAD600      0.0000 
     58 H          29.2713    3.4976   60.8660 H         1 FAD600      0.0000 
     59 H          26.3840    3.7452   60.3395 H         1 FAD600      0.0000 
     60 H          29.2343    1.3866   60.9462 H         1 FAD600      0.0000 
     61 H          22.9611    0.5513   60.0037 H         1 FAD600      0.0000 
     62 H          39.7234   15.5163   54.4495 H         1 FAD600      0.0000 
     63 H          40.5774   12.0905   60.3473 H         1 FAD600      0.0000 
     64 H          37.6605    8.9531   58.0423 H         1 FAD600      0.0000 
     65 H          37.9728    8.9037   56.2940 H         1 FAD600      0.0000 
     66 H          38.3592    9.7118   54.7651 H         1 FAD600      0.0000 
     67 H          36.2416   10.6753   54.6382 H         1 FAD600      0.0000 
     68 H          35.8184    8.1614   56.1836 H         1 FAD600      0.0000 
     69 H          34.3128    9.3301   53.8792 H         1 FAD600      0.0000 
     70 H          34.0113    6.7489   55.3955 H         1 FAD600      0.0000 
     71 H          34.5414    6.9344   53.7148 H         1 FAD600      0.0000 
     72 H          40.7313   10.0238   62.1769 H         1 FAD600      0.0000 
     73 H          39.4336   10.8893   62.5683 H         1 FAD600      0.0000 
     74 H          39.3063    9.3003   62.3564 H         1 FAD600      0.0000 
     75 H          38.8373    7.6387   60.9811 H         1 FAD600      0.0000 
     76 H          37.5439    8.4828   61.4290 H         1 FAD600      0.0000 
     77 H          37.5124    7.6239   60.0697 H         1 FAD600      0.0000 
     78 H          26.7061    5.9136   60.2079 H         1 FAD600      0.0000 
     79 H          27.0148    4.7687   61.9964 H         1 FAD600      0.0000 
     80 H          25.0311   -3.0730   60.7327 H         1 FAD600      0.0000 
     81 H          34.7908   10.3004   56.6109 H         1 FAD600      0.0000 
     82 H          37.0232    7.3169   54.7256 H         1 FAD600      0.0000 
     83 H          32.8043    8.6675   55.9855 H         1 FAD600      0.0000 
@<TRIPOS>BOND
     1    2    1 ar   
     2    3    1 ar   
     3    4    1 1    
     4   53    1 1    
     5    5    4 1    
     6    6    5 1    
     7   54    5 1    
     8   55    5 1    
     9    7    6 1    
    10    8    6 1    
    11   56    6 1    
    12   12    7 1    
    13    9    8 1    
    14   10    8 1    
    15   57    8 1    
    16   78    9 1    
    17   11   10 1    
    18   12   10 1    
    19   58   10 1    
    20   79   11 1    
    21   13   12 1    
    22   59   12 1    
    23   14   13 1    
    24   22   13 1    
    25   15   14 2    
    26   60   14 1    
    27   16   15 1    
    28   17   16 ar   
    29   22   16 ar   
    30   18   17 1    
    31   19   17 ar   
    32   80   18 1    
    33   20   19 ar   
    34   21   20 ar   
    35   61   20 1    
    36   22   21 ar   
    37   24   23 1    
    38   40   23 2    
    39   25   24 2    
    40   26   24 am   
    41   27   26 am   
    42   62   26 1    
    43   28   27 2    
    44   29   27 1    
    45   30   29 2    
    46   40   29 1    
    47   31   30 1    
    48   32   31 ar   
    49   38   31 ar   
    50   33   32 ar   
    51   63   32 1    
    52   34   33 1    
    53   35   33 ar   
    54   72   34 1    
    55   73   34 1    
    56   74   34 1    
    57   36   35 1    
    58   37   35 ar   
    59   75   36 1    
    60   76   36 1    
    61   77   36 1    
    62   38   37 ar   
    63   64   37 1    
    64   39   38 1    
    65   40   39 1    
    66   41   39 1    
    67   42   41 1    
    68   65   41 1    
    69   66   41 1    
    70   43   42 1    
    71   44   42 1    
    72   67   42 1    
    73   81   43 1    
    74   45   44 1    
    75   46   44 1    
    76   68   44 1    
    77   82   45 1    
    78   47   46 1    
    79   48   46 1    
    80   69   46 1    
    81   83   47 1    
    82   49   48 1    
    83   70   48 1    
    84   71   48 1    
    85   50   49 1    
    86   51   50 ar   
    87   52   50 ar   
    88   53   50 1    
@<TRIPOS>SUBSTRUCTURE
     1 FAD600      1 GROUP   
@<TRIPOS>SET

