#    Name: 2vci_2GJ_1_INTS_M
#    Modification time : Tue Mar 25 01:28:23 2014

@<TRIPOS>MOLECULE
2vci_2GJ_1_INTS_M
   78     0     6     0     0
SMALL
NO_CHARGES


@<TRIPOS>ATOM
      1 CA         36.7845    6.3915   23.7115 C.3       2 GLC5        0.0000 
      2 CA         35.6590    4.5420   23.8420 C.3       6 GLL5        0.0000 
      3 CA         37.9100    8.2410   23.5810 C.3       4 GLP5        0.0000 
      4 CA         31.2335    5.5765   22.9870 C.3       2 GLC5        0.0000 
      5 CA         32.7330    7.0520   23.5820 C.3       6 GLL5        0.0000 
      6 CA         29.7340    4.1010   22.3920 C.3       4 GLP5        0.0000 
      7 CA         33.5895    9.9930   27.1205 C.3       2 GLC5        0.0000 
      8 CA         33.5580    8.3410   25.9530 C.3       6 GLL5        0.0000 
      9 CA         33.6210   11.6450   28.2880 C.3       4 GLP5        0.0000 
     10 CA         31.9535    9.7760   28.0100 C.3       2 GLC5        0.0000 
     11 CA         31.1920    8.7610   26.4740 C.3       6 GLL5        0.0000 
     12 CA         32.7150   10.7910   29.5460 C.3       4 GLP5        0.0000 
     13 O          30.5510    8.2715   30.5570 O.2       1 ALC1        0.0000 
     14 O          31.3180    7.3320   29.8730 O.2       5 ALL1        0.0000 
     15 O          29.7840    9.2110   31.2410 O.2       3 ALP1        0.0000 
     16 CA         29.9735    6.3550   30.3955 C.3       2 GLC5        0.0000 
     17 CA         31.8070    6.4480   30.9560 C.3       6 GLL5        0.0000 
     18 CA         28.1400    6.2620   29.8350 C.3       4 GLP5        0.0000 
     19 CA         30.6160    7.2805   32.6405 C.3       2 GLC5        0.0000 
     20 CA         29.4250    8.1130   34.3250 C.3       4 GLP5        0.0000 
     21 CA         31.6335    4.3520   29.3085 C.3       2 GLC5        0.0000 
     22 CA         33.0170    5.6360   30.4970 C.3       6 GLL5        0.0000 
     23 CA         30.2500    3.0680   28.1200 C.3       4 GLP5        0.0000 
     24 CA         29.2460   11.7520   26.3140 C.3       2 GLC5        0.0000 
     25 CA         30.3810    9.8760   26.1290 C.3       6 GLL5        0.0000 
     26 CA         28.1110   13.6280   26.4990 C.3       4 GLP5        0.0000 
     27 CA         32.9545   12.9825   25.5720 C.3       2 GLC5        0.0000 
     28 CA         33.4370   13.2730   23.6870 C.3       6 GLL5        0.0000 
     29 CA         32.4720   12.6920   27.4570 C.3       4 GLP5        0.0000 
     30 CA         35.0265   13.7190   24.8240 C.3       2 GLC5        0.0000 
     31 CA         36.6160   14.1650   25.9610 C.3       4 GLP5        0.0000 
     32 CA         33.3625   15.4175   24.1260 C.3       2 GLC5        0.0000 
     33 CA         33.2880   17.5620   24.5650 C.3       4 GLP5        0.0000 
     34 CA         31.8745   14.6185   22.9800 C.3       2 GLC5        0.0000 
     35 CA         30.3120   15.9640   22.2730 C.3       4 GLP5        0.0000 
     36 CA         35.6860   11.7835   24.7550 C.3       2 GLC5        0.0000 
     37 CA         34.4610   10.9450   23.4980 C.3       6 GLL5        0.0000 
     38 CA         36.9110   12.6220   26.0120 C.3       4 GLP5        0.0000 
     39 CA         36.1855    9.5930   23.5395 C.3       2 GLC5        0.0000 
     40 CA         35.3780   11.6845   21.9230 C.3       2 GLC5        0.0000 
     41 CA         36.2950   12.4240   20.3480 C.3       4 GLP5        0.0000 
     42 CA         28.7290   12.2650   25.3005 C.3       2 GLC5        0.0000 
     43 CA         29.3470   10.9020   24.1020 C.3       6 GLL5        0.0000 
     44 O          27.0760   11.1390   24.0125 O.2       1 ALC1        0.0000 
     45 O          28.0580   10.6360   24.4290 O.2       5 ALL1        0.0000 
     46 O          26.0940   11.6420   23.5960 O.2       3 ALP1        0.0000 
     47 CA         37.3103    4.5290   20.2248 C.3       2 GLC5        0.0000 
     48 CA         35.4870    4.9960   21.3240 C.3       6 GLL5        0.0000 
     49 CA         38.8840    4.7800   19.2480 C.3       4 GLP5        0.0000 
     50 CA         31.6932    8.1877   22.3813 C.3       2 GLC5        0.0000 
     51 CA         31.1340    9.0720   20.7440 C.3       4 GLP5        0.0000 
     52 CA         29.8650    7.6840   25.3592 C.3       2 GLC5        0.0000 
     53 CA         31.7720    7.5550   24.4550 C.3       6 GLL5        0.0000 
     54 CA         27.7500    7.4890   25.6720 C.3       4 GLP5        0.0000 
     55 CA         35.5920    8.1492   26.9185 C.3       2 GLC5        0.0000 
     56 CA         37.1470    8.2090   28.3220 C.3       4 GLP5        0.0000 
     57 CA         36.2394    7.8096   23.9158 C.3       2 GLC5        0.0000 
     58 CA         34.5160    7.8380   25.0770 C.3       6 GLL5        0.0000 
     59 CA         29.2683    8.4037   25.9868 C.3       2 GLC5        0.0000 
     60 CA         31.4430   11.4533   26.4880 C.3       2 GLC5        0.0000 
     61 CA         28.8235    9.1082   25.0888 C.3       2 GLC5        0.0000 
     62 CA         30.4470   10.5530   24.9090 C.3       6 GLL5        0.0000 
     63 CA         30.2015   12.5412   25.2948 C.3       2 GLC5        0.0000 
     64 CA         29.3170   14.3740   25.8800 C.3       4 GLP5        0.0000 
     65 CA         32.1595   11.9408   25.6865 C.3       2 GLC5        0.0000 
     66 CA         31.7250   10.8640   24.5100 C.3       6 GLL5        0.0000 
     67 CA         31.9045   10.3915   21.9455 C.3       2 GLC5        0.0000 
     68 CA         31.9690   11.5150   23.3220 C.3       6 GLL5        0.0000 
     69 CA         34.2405   13.5690   22.1442 C.3       2 GLC5        0.0000 
     70 CA         33.3810   11.9070   22.9720 C.3       6 GLL5        0.0000 
     71 CA         35.0720   14.5480   20.9590 C.3       4 GLP5        0.0000 
     72 CA         29.7818   13.0550   24.3000 C.3       2 GLC5        0.0000 
     73 CA         30.8980   11.8950   22.5190 C.3       6 GLL5        0.0000 
     74 CA         30.2792   13.8500   22.4965 C.3       2 GLC5        0.0000 
     75 CA         29.5950   11.5770   22.9210 C.3       6 GLL5        0.0000 
     76 CA         28.1535   10.0723   22.5592 C.3       2 GLC5        0.0000 
     77 CA         26.8360    8.9050   21.6070 C.3       4 GLP5        0.0000 
     78 CA         30.6827   10.1713   22.1534 C.3       2 GLC5        0.0000 
@<TRIPOS>BOND
@<TRIPOS>SUBSTRUCTURE
     1 ALC1       13 GROUP        1 X    ALC  0     ROOT ALC X 1
     2 GLC5        1 GROUP        1 X    GLC  0     **** GLC X 6
     3 ALP1       15 GROUP        1 Y    ALP  0     ROOT ALP Y 8
     4 GLP5        3 GROUP        1 Y    GLP  0     **** GLP Y 13
     5 ALL1       14 GROUP        1 Z    ALL  0     ROOT ALL Z 15
     6 GLL5        2 GROUP        1 Z    GLL  0     **** GLL Z 20
@<TRIPOS>SET

