#    Name: 2vci_2GJ_1_ligand
#    Modification time : Tue Mar 25 01:28:23 2014

@<TRIPOS>MOLECULE
2vci_2GJ_1_ligand
   66    69     1     0     0
SMALL
NO_CHARGES


@<TRIPOS>ATOM
      1 C25        35.4870    4.9960   21.3240 C.3       1 2GJ1225     0.0000 
      2 C26        35.9860    3.5600   21.0790 C.3       1 2GJ1225     0.0000 
      3 O27        36.8710    3.2020   22.1750 O.3       1 2GJ1225     0.0000 
      4 C28        36.1890    3.1500   23.4720 C.3       1 2GJ1225     0.0000 
      5 C29        35.6590    4.5420   23.8420 C.3       1 2GJ1225     0.0000 
      6 N24        34.9570    5.2020   22.7050 N.4       1 2GJ1225     0.0000 
      7 C23        35.1460    6.6380   22.9490 C.3       1 2GJ1225     0.0000 
      8 C20        34.0970    7.1990   23.8990 C.ar      1 2GJ1225     0.0000 
      9 C21        32.7330    7.0520   23.5820 C.ar      1 2GJ1225     0.0000 
     10 C22        31.7720    7.5550   24.4550 C.ar      1 2GJ1225     0.0000 
     11 C19        34.5160    7.8380   25.0770 C.ar      1 2GJ1225     0.0000 
     12 C18        33.5580    8.3410   25.9530 C.ar      1 2GJ1225     0.0000 
     13 C7         32.1880    8.2030   25.6380 C.ar      1 2GJ1225     0.0000 
     14 C3         31.1920    8.7610   26.4740 C.2       1 2GJ1225     0.0000 
     15 C2         30.8160    8.3590   27.7390 C.2       1 2GJ1225     0.0000 
     16 C8         31.4670    7.2140   28.5180 C.2       1 2GJ1225     0.0000 
     17 O9         32.0850    6.3470   27.8920 O.2       1 2GJ1225     0.0000 
     18 N10        31.3180    7.3320   29.8730 N.am      1 2GJ1225     0.0000 
     19 C11        31.8070    6.4480   30.9560 C.3       1 2GJ1225     0.0000 
     20 C12        33.0170    5.6360   30.4970 C.3       1 2GJ1225     0.0000 
     21 N1         29.8220    9.1600   28.1590 N.2       1 2GJ1225     0.0000 
     22 O5         29.5230   10.1560   27.1500 O.3       1 2GJ1225     0.0000 
     23 C4         30.3810    9.8760   26.1290 C.2       1 2GJ1225     0.0000 
     24 C6         30.4470   10.5530   24.9090 C.ar      1 2GJ1225     0.0000 
     25 C13        31.7250   10.8640   24.5100 C.ar      1 2GJ1225     0.0000 
     26 C14        31.9690   11.5150   23.3220 C.ar      1 2GJ1225     0.0000 
     27 C30        33.3810   11.9070   22.9720 C.3       1 2GJ1225     0.0000 
     28 C32        33.4370   13.2730   23.6870 C.3       1 2GJ1225     0.0000 
     29 C31        34.4610   10.9450   23.4980 C.3       1 2GJ1225     0.0000 
     30 C15        30.8980   11.8950   22.5190 C.ar      1 2GJ1225     0.0000 
     31 O34        31.1360   12.5340   21.3480 O.3       1 2GJ1225     0.0000 
     32 C16        29.5950   11.5770   22.9210 C.ar      1 2GJ1225     0.0000 
     33 C17        29.3470   10.9020   24.1020 C.ar      1 2GJ1225     0.0000 
     34 O33        28.0580   10.6360   24.4290 O.3       1 2GJ1225     0.0000 
     35 H          34.7045    5.2191   20.5827 H         1 2GJ1225     0.0000 
     36 H          36.3222    5.6872   21.1338 H         1 2GJ1225     0.0000 
     37 H          36.5041    3.5423   20.1269 H         1 2GJ1225     0.0000 
     38 H          35.1218    2.9069   21.0355 H         1 2GJ1225     0.0000 
     39 H          36.8720    2.8252   24.2592 H         1 2GJ1225     0.0000 
     40 H          35.3432    2.4606   23.4407 H         1 2GJ1225     0.0000 
     41 H          36.5070    5.1584   24.1712 H         1 2GJ1225     0.0000 
     42 H          34.9766    4.4361   24.6967 H         1 2GJ1225     0.0000 
     43 H          33.9071    5.0031   22.7397 H         1 2GJ1225     0.0000 
     44 H          35.0916    7.1994   22.0031 H         1 2GJ1225     0.0000 
     45 H          36.1409    6.8270   23.3816 H         1 2GJ1225     0.0000 
     46 H          32.4589    6.5806   22.7196 H         1 2GJ1225     0.0000 
     47 H          30.7783    7.4609   24.2502 H         1 2GJ1225     0.0000 
     48 H          35.5104    7.9297   25.2833 H         1 2GJ1225     0.0000 
     49 H          33.8339    8.8071   26.8180 H         1 2GJ1225     0.0000 
     50 H          30.7641    8.1892   30.2501 H         1 2GJ1225     0.0000 
     51 H          31.0194    5.7529   31.2652 H         1 2GJ1225     0.0000 
     52 H          32.0978    7.0408   31.8295 H         1 2GJ1225     0.0000 
     53 H          32.5292   10.6010   25.1210 H         1 2GJ1225     0.0000 
     54 H          33.4590   12.0779   21.9407 H         1 2GJ1225     0.0000 
     55 H          28.8012   11.8580   22.3126 H         1 2GJ1225     0.0000 
     56 H          33.7787    6.2249   30.2270 H         1 2GJ1225     0.0000 
     57 H          33.3549    5.0324   31.2192 H         1 2GJ1225     0.0000 
     58 H          32.7998    5.0584   29.7101 H         1 2GJ1225     0.0000 
     59 H          34.3680   13.6363   23.7214 H         1 2GJ1225     0.0000 
     60 H          32.8723   13.9572   23.2255 H         1 2GJ1225     0.0000 
     61 H          33.1112   13.2120   24.6305 H         1 2GJ1225     0.0000 
     62 H          35.3804   11.2418   23.2398 H         1 2GJ1225     0.0000 
     63 H          34.4442   10.8774   24.4956 H         1 2GJ1225     0.0000 
     64 H          34.3403   10.0193   23.1395 H         1 2GJ1225     0.0000 
     65 H          30.3639   12.2928   20.7601 H         1 2GJ1225     0.0000 
     66 H          27.5706   11.4964   24.2804 H         1 2GJ1225     0.0000 
@<TRIPOS>BOND
     1    2    1 1    
     2    6    1 1    
     3   35    1 1    
     4   36    1 1    
     5    3    2 1    
     6   37    2 1    
     7   38    2 1    
     8    4    3 1    
     9    5    4 1    
    10   39    4 1    
    11   40    4 1    
    12    6    5 1    
    13   41    5 1    
    14   42    5 1    
    15    7    6 1    
    16   43    6 1    
    17    8    7 1    
    18   44    7 1    
    19   45    7 1    
    20    9    8 ar   
    21   11    8 ar   
    22   10    9 ar   
    23   46    9 1    
    24   13   10 ar   
    25   47   10 1    
    26   12   11 ar   
    27   48   11 1    
    28   13   12 ar   
    29   49   12 1    
    30   14   13 1    
    31   15   14 1    
    32   23   14 2    
    33   16   15 1    
    34   21   15 2    
    35   17   16 2    
    36   18   16 am   
    37   19   18 1    
    38   50   18 1    
    39   20   19 1    
    40   51   19 1    
    41   52   19 1    
    42   56   20 1    
    43   57   20 1    
    44   58   20 1    
    45   22   21 1    
    46   23   22 1    
    47   24   23 1    
    48   25   24 ar   
    49   33   24 ar   
    50   26   25 ar   
    51   53   25 1    
    52   27   26 1    
    53   30   26 ar   
    54   28   27 1    
    55   29   27 1    
    56   54   27 1    
    57   59   28 1    
    58   60   28 1    
    59   61   28 1    
    60   62   29 1    
    61   63   29 1    
    62   64   29 1    
    63   31   30 1    
    64   32   30 ar   
    65   65   31 1    
    66   33   32 ar   
    67   55   32 1    
    68   34   33 1    
    69   66   34 1    
@<TRIPOS>SUBSTRUCTURE
     1 2GJ1225     1 GROUP   
@<TRIPOS>SET

