#    Name: 3rab_GNP_1_INTS_M
#    Modification time : Tue Mar 25 11:18:47 2014

@<TRIPOS>MOLECULE
3rab_GNP_1_INTS_M
   83     0    15     0     0
SMALL
NO_CHARGES


@<TRIPOS>ATOM
      1 N           4.8480   -7.8250    5.4390 N.am      2 SEC2        0.0000 
      2 N           5.8790   -7.6550    4.7900 N.am     12 SEL2        0.0000 
      3 N           3.8170   -7.9950    6.0880 N.am      7 SEP2        0.0000 
      4 N           5.7665   -8.7810    3.8180 N.am      2 SEC2        0.0000 
      5 N           5.6540   -9.9070    2.8460 N.am      7 SEP2        0.0000 
      6 Zn          9.0055   -6.5010    3.8560 Zn        4 ZIC7        0.0000 
      7 Zn          8.2180   -7.2540    4.1270 Zn       14 ZIL7        0.0000 
      8 Zn          9.7930   -5.7480    3.5850 Zn        9 ZIP7        0.0000 
      9 N           8.4625   -8.1185    3.0480 N.am      2 SEC2        0.0000 
     10 N           8.2180   -7.2540    4.1270 N.am     12 SEL2        0.0000 
     11 N           8.7070   -8.9830    1.9690 N.am      7 SEP2        0.0000 
     12 NZ          7.9770   -6.0725    7.4620 N.4       3 LYC4        0.0000 
     13 NZ          7.5510   -6.9700    6.5030 N.4      13 LYL4        0.0000 
     14 NZ          8.4030   -5.1750    8.4210 N.4       8 LYP4        0.0000 
     15 N           7.9770   -6.0725    7.4620 N.am      2 SEC2        0.0000 
     16 N           7.5510   -6.9700    6.5030 N.am     12 SEL2        0.0000 
     17 N           8.4030   -5.1750    8.4210 N.am      7 SEP2        0.0000 
     18 N           7.9560   -7.9630    7.3740 N.am      2 SEC2        0.0000 
     19 N           8.3610   -8.9560    8.2450 N.am      7 SEP2        0.0000 
     20 NZ          7.8395   -4.3590    7.4375 N.4       3 LYC4        0.0000 
     21 NZ          7.2760   -3.5430    6.4540 N.4      13 LYL4        0.0000 
     22 N           6.8530   -2.0570    6.4350 N.am      2 SEC2        0.0000 
     23 N           7.2760   -3.5430    6.4540 N.am     12 SEL2        0.0000 
     24 N           6.4300   -0.5710    6.4160 N.am      7 SEP2        0.0000 
     25 N           8.2545   -2.3195    6.3810 N.am      2 SEC2        0.0000 
     26 N           9.2330   -1.0960    6.3080 N.am      7 SEP2        0.0000 
     27 N           7.8395   -4.3590    7.4375 N.am      2 SEC2        0.0000 
     28 Zn          9.2960   -4.8330    4.0215 Zn        4 ZIC7        0.0000 
     29 Zn          8.7990   -3.9180    4.4580 Zn       14 ZIL7        0.0000 
     30 N           9.8940   -2.9950    4.3735 N.am      2 SEC2        0.0000 
     31 N           8.7990   -3.9180    4.4580 N.am     12 SEL2        0.0000 
     32 N          10.9890   -2.0720    4.2890 N.am      7 SEP2        0.0000 
     33 N           6.5280   -1.6955    5.2880 N.am      2 SEC2        0.0000 
     34 N           6.6260   -2.8200    4.1600 N.am     12 SEL2        0.0000 
     35 N           9.3795   -0.7230    2.5340 N.am      2 SEC2        0.0000 
     36 N           8.1240   -1.3760    2.6820 N.am     12 SEL2        0.0000 
     37 N          10.6350   -0.0700    2.3860 N.am      7 SEP2        0.0000 
     38 N           8.1770   -0.2260    1.9530 N.am      2 SEC2        0.0000 
     39 N           8.2300    0.9240    1.2240 N.am      7 SEP2        0.0000 
     40 CA          3.9530   -2.7610    4.2300 C.3       5 GLC5        0.0000 
     41 CA          4.2910   -1.8210    2.6160 C.3      15 GLL5        0.0000 
     42 CA          3.6150   -3.7010    5.8440 C.3      10 GLP5        0.0000 
     43 CA          4.1195   -3.4800    1.8055 C.3       5 GLC5        0.0000 
     44 CA          3.9480   -5.1390    0.9950 C.3      10 GLP5        0.0000 
     45 CA          3.0260   -2.8255    1.2490 C.3       5 GLC5        0.0000 
     46 CA          3.4010   -0.8140    1.9280 C.3      15 GLL5        0.0000 
     47 CA          2.6510   -4.8370    0.5700 C.3      10 GLP5        0.0000 
     48 CA          3.7730   -2.2500   -0.5410 C.3       5 GLC5        0.0000 
     49 CA          3.8730   -0.5410    0.5180 C.3      15 GLL5        0.0000 
     50 CA          3.6730   -3.9590   -1.6000 C.3      10 GLP5        0.0000 
     51 O           2.6160   -0.0220   -1.5620 O.2       1 ALC1        0.0000 
     52 O           2.7000   -0.4750   -0.2780 O.2      11 ALL1        0.0000 
     53 O           2.5320    0.4310   -2.8460 O.2       6 ALP1        0.0000 
     54 CA          5.6455    2.6420    0.1800 C.3       5 GLC5        0.0000 
     55 CA          4.6090    0.8070    0.5910 C.3      15 GLL5        0.0000 
     56 CA          6.6820    4.4770   -0.2310 C.3      10 GLP5        0.0000 
     57 O           5.3060    1.6040   -1.6275 O.2       1 ALC1        0.0000 
     58 O           4.3970    1.6080   -0.5680 O.2      11 ALL1        0.0000 
     59 O           6.2150    1.6000   -2.6870 O.2       6 ALP1        0.0000 
     60 CA          3.4780    1.7670    3.7185 C.3       5 GLC5        0.0000 
     61 CA          3.9150    1.5050    1.7450 C.3      15 GLL5        0.0000 
     62 CA          3.0410    2.0290    5.6920 C.3      10 GLP5        0.0000 
     63 N           6.7855    3.5130    5.1625 N.am      2 SEC2        0.0000 
     64 N           6.4190    3.4190    3.6400 N.am     12 SEL2        0.0000 
     65 N           7.1520    3.6070    6.6850 N.am      7 SEP2        0.0000 
     66 CA          4.5140    4.3510    4.9570 C.3       5 GLC5        0.0000 
     67 CA          5.4220    4.3700    3.4380 C.3      15 GLL5        0.0000 
     68 CA          3.6060    4.3320    6.4760 C.3      10 GLP5        0.0000 
     69 CA          7.5470    4.7410    3.4795 C.3       5 GLC5        0.0000 
     70 CA          9.6720    5.1120    3.5210 C.3      10 GLP5        0.0000 
     71 CA          5.6515    6.1645    2.2310 C.3       5 GLC5        0.0000 
     72 CA          5.8810    7.9590    1.0240 C.3      10 GLP5        0.0000 
     73 N           7.0850    6.9145    3.3230 N.am      2 SEC2        0.0000 
     74 N           6.1630    6.3860    4.5040 N.am     12 SEL2        0.0000 
     75 N           8.0070    7.4430    2.1420 N.am      7 SEP2        0.0000 
     76 O           4.1390    7.6345    3.9700 O.2       1 ALC1        0.0000 
     77 O           4.1630    6.3340    3.4460 O.2      11 ALL1        0.0000 
     78 O           4.1150    8.9350    4.4940 O.2       6 ALP1        0.0000 
     79 O           2.1955    7.8820    2.8865 O.2       1 ALC1        0.0000 
     80 O           2.1010    6.4680    2.4260 O.2      11 ALL1        0.0000 
     81 O           2.2900    9.2960    3.3470 O.2       6 ALP1        0.0000 
     82 CA          3.7150    2.9265    4.2020 C.3       5 GLC5        0.0000 
     83 CA          4.3890    3.8240    2.7120 C.3      15 GLL5        0.0000 
@<TRIPOS>BOND
@<TRIPOS>SUBSTRUCTURE
     1 ALC1       51 GROUP        1 X    ALC  0     ROOT ALC X 1
     2 SEC2        1 GROUP        1 X    SEC  0     **** SEC X 2
     3 LYC4       12 GROUP        1 X    LYC  0     **** LYC X 4
     4 ZIC7        6 GROUP        1 X    ZIC  0     **** ZIC X 5
     5 GLC5       40 GROUP        1 X    GLC  0     **** GLC X 6
     6 ALP1       53 GROUP        1 Y    ALP  0     ROOT ALP Y 8
     7 SEP2        3 GROUP        1 Y    SEP  0     **** SEP Y 9
     8 LYP4       14 GROUP        1 Y    LYP  0     **** LYP Y 11
     9 ZIP7        8 GROUP        1 Y    ZIP  0     **** ZIP Y 12
    10 GLP5       42 GROUP        1 Y    GLP  0     **** GLP Y 13
    11 ALL1       52 GROUP        1 Z    ALL  0     ROOT ALL Z 15
    12 SEL2        2 GROUP        1 Z    SEL  0     **** SEL Z 16
    13 LYL4       13 GROUP        1 Z    LYL  0     **** LYL Z 18
    14 ZIL7        7 GROUP        1 Z    ZIL  0     **** ZIL Z 19
    15 GLL5       41 GROUP        1 Z    GLL  0     **** GLL Z 20
@<TRIPOS>SET

