#    Name: 3rab_GNP_1_ligand
#    Modification time : Tue Mar 25 11:18:47 2014

@<TRIPOS>MOLECULE
3rab_GNP_1_ligand
   44    46     1     0     0
SMALL
NO_CHARGES


@<TRIPOS>ATOM
      1 PG          7.1420   -6.9470    5.0830 P.3       1 GNP200      0.0000 
      2 O1G         5.8790   -7.6550    4.7900 O.co2     1 GNP200      0.0000 
      3 O2G         8.2180   -7.2540    4.1270 O.co2     1 GNP200      0.0000 
      4 O3G         7.5510   -6.9700    6.5030 O.co2     1 GNP200      0.0000 
      5 N3B         6.7430   -5.3660    4.7760 N.4       1 GNP200      0.0000 
      6 PB          7.4570   -3.9050    5.0300 P.3       1 GNP200      0.0000 
      7 O1B         7.2760   -3.5430    6.4540 O.co2     1 GNP200      0.0000 
      8 O2B         8.7990   -3.9180    4.4580 O.co2     1 GNP200      0.0000 
      9 O3A         6.6260   -2.8200    4.1600 O.3       1 GNP200      0.0000 
     10 PA          6.9200   -2.2530    2.6820 P.3       1 GNP200      0.0000 
     11 O1A         8.1240   -1.3760    2.6820 O.co2     1 GNP200      0.0000 
     12 O2A         6.8080   -3.3580    1.7100 O.co2     1 GNP200      0.0000 
     13 O5'         5.6250   -1.3320    2.5700 O.3       1 GNP200      0.0000 
     14 C5'         4.2910   -1.8210    2.6160 C.3       1 GNP200      0.0000 
     15 C4'         3.4010   -0.8140    1.9280 C.3       1 GNP200      0.0000 
     16 O4'         3.4570    0.4500    2.6050 O.3       1 GNP200      0.0000 
     17 C3'         3.8730   -0.5410    0.5180 C.3       1 GNP200      0.0000 
     18 O3'         2.7000   -0.4750   -0.2780 O.3       1 GNP200      0.0000 
     19 C2'         4.6090    0.8070    0.5910 C.3       1 GNP200      0.0000 
     20 O2'         4.3970    1.6080   -0.5680 O.3       1 GNP200      0.0000 
     21 C1'         3.9150    1.5050    1.7450 C.3       1 GNP200      0.0000 
     22 N9          4.7420    2.5120    2.4530 N.pl3     1 GNP200      0.0000 
     23 C8          5.9690    2.3530    3.0390 C.2       1 GNP200      0.0000 
     24 N7          6.4190    3.4190    3.6400 N.2       1 GNP200      0.0000 
     25 C5          5.4220    4.3700    3.4380 C.2       1 GNP200      0.0000 
     26 C6          5.3460    5.7300    3.8590 C.2       1 GNP200      0.0000 
     27 O6          6.1630    6.3860    4.5040 O.2       1 GNP200      0.0000 
     28 N1          4.1630    6.3340    3.4460 N.am      1 GNP200      0.0000 
     29 C2          3.1650    5.7150    2.7220 C.2       1 GNP200      0.0000 
     30 N2          2.1010    6.4680    2.4260 N.pl3     1 GNP200      0.0000 
     31 N3          3.2360    4.4340    2.3230 N.2       1 GNP200      0.0000 
     32 C4          4.3890    3.8240    2.7120 C.2       1 GNP200      0.0000 
     33 H           3.9387   -1.9443    3.6418 H         1 GNP200      0.0000 
     34 H           4.1905   -2.7766    2.0979 H         1 GNP200      0.0000 
     35 H           2.3982   -1.1805    1.8871 H         1 GNP200      0.0000 
     36 H           4.5425   -1.2948    0.2333 H         1 GNP200      0.0000 
     37 H           5.6057    0.6493    0.8426 H         1 GNP200      0.0000 
     38 H           3.0256    2.0044    1.3125 H         1 GNP200      0.0000 
     39 H           6.4571    1.4712    2.9910 H         1 GNP200      0.0000 
     40 H           4.0203    7.3570    3.7124 H         1 GNP200      0.0000 
     41 H           2.1213    7.4097    2.7618 H         1 GNP200      0.0000 
     42 H           1.3802    6.0220    1.8953 H         1 GNP200      0.0000 
     43 H           2.8671    0.2701   -0.9238 H         1 GNP200      0.0000 
     44 H           5.1831    1.4228   -1.1578 H         1 GNP200      0.0000 
@<TRIPOS>BOND
     1    2    1 ar   
     2    3    1 ar   
     3    4    1 ar   
     4    5    1 1    
     5    6    5 1    
     6    7    6 ar   
     7    8    6 ar   
     8    9    6 1    
     9   10    9 1    
    10   11   10 ar   
    11   12   10 ar   
    12   13   10 1    
    13   14   13 1    
    14   15   14 1    
    15   33   14 1    
    16   34   14 1    
    17   16   15 1    
    18   17   15 1    
    19   35   15 1    
    20   21   16 1    
    21   18   17 1    
    22   19   17 1    
    23   36   17 1    
    24   43   18 1    
    25   20   19 1    
    26   21   19 1    
    27   37   19 1    
    28   44   20 1    
    29   22   21 1    
    30   38   21 1    
    31   23   22 1    
    32   32   22 1    
    33   24   23 2    
    34   39   23 1    
    35   25   24 1    
    36   26   25 1    
    37   32   25 2    
    38   27   26 2    
    39   28   26 am   
    40   29   28 1    
    41   40   28 1    
    42   30   29 1    
    43   31   29 2    
    44   41   30 1    
    45   42   30 1    
    46   32   31 1    
@<TRIPOS>SUBSTRUCTURE
     1 GNP200      1 GROUP   
@<TRIPOS>SET

