#    Name: 4JT2_2_CAVITY_N1_6.mol2
#    Modification time : Tue Mar 11 08:57:08 2014

@<TRIPOS>MOLECULE
4JT2_2_CAVITY_N1_6.mol2
   86     0     6     0     0
SMALL
NO_CHARGES


@<TRIPOS>ATOM
      1 CA         19.9470   46.7148   48.4943 C.3       5 GLY6        0.0000 
      2 CA         19.1092   45.9110   47.5445 C.3       5 GLY6        0.0000 
      3 CA         18.2875   45.4086   48.6945 C.3       5 GLY6        0.0000 
      4 OG         17.4658   44.9063   49.8445 O.2       1 SER1        0.0000 
      5 CA         16.6442   44.4039   50.9945 C.3       5 GLY6        0.0000 
      6 NZ         19.0931   45.6096   45.4448 N.2       4 LYS4        0.0000 
      7 O          18.2714   45.1072   46.5948 O.2       2 ALA2        0.0000 
      8 O          17.4497   44.6048   47.7448 O.2       2 ALA2        0.0000 
      9 OD1        16.6280   44.1025   48.8947 O.3       3 ASP3        0.0000 
     10 O          15.8064   43.6001   50.0447 O.2       2 ALA2        0.0000 
     11 O          14.9685   42.7964   49.0950 O.2       2 ALA2        0.0000 
     12 O          18.4001   43.7437   50.0042 O.2       2 ALA2        0.0000 
     13 OD1        17.5623   42.9399   49.0545 O.3       3 ASP3        0.0000 
     14 O          16.7407   42.4376   50.2044 O.2       2 ALA2        0.0000 
     15 OD1        16.7245   42.1361   48.1047 O.3       3 ASP3        0.0000 
     16 O          15.9028   41.6338   49.2547 O.2       2 ALA2        0.0000 
     17 OD1        16.8371   40.4712   49.4144 O.3       3 ASP3        0.0000 
     18 OD1        16.8210   40.1698   47.3147 O.3       3 ASP3        0.0000 
     19 CA         15.9993   39.6674   48.4647 C.3       5 GLY6        0.0000 
     20 OG         15.9832   39.3660   46.3649 O.2       1 SER1        0.0000 
     21 OG         15.1454   38.5622   45.4152 O.2       1 SER1        0.0000 
     22 CA         14.3076   37.7584   44.4654 C.3       5 GLY6        0.0000 
     23 OD1        18.5770   39.5096   46.3244 O.3       3 ASP3        0.0000 
     24 OD1        17.7553   39.0072   47.4744 O.3       3 ASP3        0.0000 
     25 O          17.7392   38.7058   45.3747 O.2       2 ALA2        0.0000 
     26 CA         16.9175   38.2034   46.5246 C.3       5 GLY6        0.0000 
     27 CA         16.0958   37.7011   47.6746 C.3       5 GLY6        0.0000 
     28 O          16.9014   37.9020   44.4249 O.2       2 ALA2        0.0000 
     29 OG         16.0797   37.3997   45.5749 O.2       1 SER1        0.0000 
     30 CA         15.2580   36.8973   46.7249 C.3       5 GLY6        0.0000 
     31 NZ         16.8853   37.6006   42.3252 N.2       4 LYS4        0.0000 
     32 O          16.0636   37.0982   43.4752 O.2       2 ALA2        0.0000 
     33 DU         15.2419   36.5959   44.6252 H         6 CUB7        0.0000 
     34 CA         14.4202   36.0935   45.7751 C.3       5 GLY6        0.0000 
     35 DU         15.2258   36.2945   42.5254 H         6 CUB7        0.0000 
     36 CA         14.4041   35.7921   43.6754 C.3       5 GLY6        0.0000 
     37 OD1        19.5113   38.3470   46.4841 O.3       3 ASP3        0.0000 
     38 CA         18.6896   37.8446   47.6341 C.3       5 GLY6        0.0000 
     39 NZ         19.4952   38.0456   44.3844 N.2       4 LYS4        0.0000 
     40 OG         18.6735   37.5432   45.5344 O.2       1 SER1        0.0000 
     41 CA         17.8518   37.0409   46.6844 C.3       5 GLY6        0.0000 
     42 NZ         18.6574   37.2418   43.4346 N.2       4 LYS4        0.0000 
     43 O          17.8357   36.7394   44.5846 O.2       2 ALA2        0.0000 
     44 CA         17.0140   36.2371   45.7346 C.3       5 GLY6        0.0000 
     45 O          16.9979   35.9357   43.6349 O.2       2 ALA2        0.0000 
     46 CA         16.1762   35.4333   44.7849 C.3       5 GLY6        0.0000 
     47 CA         15.3545   34.9309   45.9349 C.3       5 GLY6        0.0000 
     48 OG         19.6078   36.3806   45.6941 O.2       1 SER1        0.0000 
     49 OG         18.7700   35.5769   44.7443 O.2       1 SER1        0.0000 
     50 O          17.9322   34.7731   43.7946 O.2       2 ALA2        0.0000 
     51 CA         17.1105   34.2707   44.9446 C.3       5 GLY6        0.0000 
     52 DU         12.9070   49.0542   50.3556 H         6 CUB7        0.0000 
     53 O          14.5342   49.7575   45.9559 O.2       2 ALA2        0.0000 
     54 CA         13.7125   49.2551   47.1059 C.3       5 GLY6        0.0000 
     55 CA         12.8908   48.7528   48.2559 C.3       5 GLY6        0.0000 
     56 DU         14.6791   48.6954   51.4651 H         6 CUB7        0.0000 
     57 CA         13.8574   48.1930   52.6151 C.3       5 GLY6        0.0000 
     58 DU         15.4846   48.8963   48.2154 H         6 CUB7        0.0000 
     59 DU         14.6629   48.3940   49.3653 H         6 CUB7        0.0000 
     60 DU         13.8413   47.8916   50.5153 H         6 CUB7        0.0000 
     61 CA         13.0196   47.3893   51.6653 C.3       5 GLY6        0.0000 
     62 NZ         15.4685   48.5949   46.1156 N.2       4 LYS4        0.0000 
     63 NZ         14.6468   48.0926   47.2656 N.2       4 LYS4        0.0000 
     64 CA         13.8251   47.5902   48.4156 C.3       5 GLY6        0.0000 
     65 CA         13.0035   47.0878   49.5656 C.3       5 GLY6        0.0000 
     66 OG         16.4351   48.0352   50.4748 O.2       1 SER1        0.0000 
     67 OG         15.6134   47.5328   51.6248 O.2       1 SER1        0.0000 
     68 CA         14.7917   47.0305   52.7748 C.3       5 GLY6        0.0000 
     69 OG         16.4189   47.7338   48.3751 O.2       1 SER1        0.0000 
     70 OG         15.5972   47.2314   49.5251 O.2       1 SER1        0.0000 
     71 DU         14.7756   46.7291   50.6750 H         6 CUB7        0.0000 
     72 CA         13.9539   46.2267   51.8250 C.3       5 GLY6        0.0000 
     73 O          15.5811   46.9300   47.4253 O.2       2 ALA2        0.0000 
     74 O          14.7594   46.4276   48.5753 O.2       2 ALA2        0.0000 
     75 CA         13.9378   45.9253   49.7253 C.3       5 GLY6        0.0000 
     76 CA         13.1161   45.4229   50.8753 C.3       5 GLY6        0.0000 
     77 NZ         18.1749   47.0736   47.3848 N.2       4 LYS4        0.0000 
     78 OG         17.3532   46.5712   48.5348 O.2       1 SER1        0.0000 
     79 OG         16.5315   46.0688   49.6848 O.2       1 SER1        0.0000 
     80 OG         15.7099   45.5665   50.8348 O.2       1 SER1        0.0000 
     81 N          14.8882   45.0641   51.9847 N.2       2 ALA2        0.0000 
     82 O          16.5154   45.7674   47.5850 O.2       2 ALA2        0.0000 
     83 OD1        15.6937   45.2651   48.7350 O.3       3 ASP3        0.0000 
     84 CA         14.8721   44.7627   49.8850 C.3       5 GLY6        0.0000 
     85 N          14.0504   44.2603   51.0350 N.2       2 ALA2        0.0000 
     86 O          14.0342   43.9589   48.9353 O.2       2 ALA2        0.0000 
@<TRIPOS>BOND
@<TRIPOS>SUBSTRUCTURE
     1 SER1        4 GROUP   
     2 ALA2        7 GROUP   
     3 ASP3        9 GROUP   
     4 LYS4        6 GROUP   
     5 GLY6        1 GROUP   
     6 CUB7       33 GROUP   
@<TRIPOS>SET

