#    Name: 4jt2_CTP_2_INTS_M
#    Modification time : Tue Mar 25 06:16:29 2014

@<TRIPOS>MOLECULE
4jt2_CTP_2_INTS_M
   73     0    12     0     0
SMALL
NO_CHARGES


@<TRIPOS>ATOM
      1 CA         17.9535   47.9400   54.0220 C.3       4 GLC5        0.0000 
      2 CA         16.1880   47.3380   54.5670 C.3      12 GLL5        0.0000 
      3 CA         19.7190   48.5420   53.4770 C.3       8 GLP5        0.0000 
      4 CA         17.5900   47.2685   53.0210 C.3       4 GLC5        0.0000 
      5 CA         15.5060   47.2760   53.3590 C.3      12 GLL5        0.0000 
      6 CA         19.6740   47.2610   52.6830 C.3       8 GLP5        0.0000 
      7 CA         13.7740   46.3070   53.7475 C.3       4 GLC5        0.0000 
      8 CA         12.0420   45.3380   54.1360 C.3       8 GLP5        0.0000 
      9 CA         12.9045   46.7195   53.0015 C.3       4 GLC5        0.0000 
     10 CA         13.7670   48.1010   51.8670 C.3      12 GLL5        0.0000 
     11 CA         12.2620   46.2480   50.9645 C.3       4 GLC5        0.0000 
     12 CA         13.9030   46.9390   49.8610 C.3      12 GLL5        0.0000 
     13 CA         10.6210   45.5570   52.0680 C.3       8 GLP5        0.0000 
     14 CA         12.8460   46.4770   48.3440 C.3       4 GLC5        0.0000 
     15 CA         11.7890   46.0150   46.8270 C.3       8 GLP5        0.0000 
     16 CA         13.5935   45.2510   47.9135 C.3       4 GLC5        0.0000 
     17 CA         14.7850   45.8180   49.3370 C.3      12 GLL5        0.0000 
     18 CA         12.4020   44.6840   46.4900 C.3       8 GLP5        0.0000 
     19 N          19.6405   45.3385   50.9820 N.am      1 SEC2        0.0000 
     20 N          18.2510   44.9660   50.6560 N.am      9 SEL2        0.0000 
     21 N          21.0300   45.7110   51.3080 N.am      5 SEP2        0.0000 
     22 N          18.4770   46.1835   51.1460 N.am      1 SEC2        0.0000 
     23 N          18.7030   47.4010   51.6360 N.am      5 SEP2        0.0000 
     24 NZ         15.9100   44.3065   47.0945 N.4       2 LYC4        0.0000 
     25 NZ         17.1900   44.7750   48.2980 N.4      10 LYL4        0.0000 
     26 NZ         14.6300   43.8380   45.8910 N.4       6 LYP4        0.0000 
     27 N          16.4220   42.7470   51.6835 N.am      1 SEC2        0.0000 
     28 N          16.5510   43.1430   50.1340 N.am      9 SEL2        0.0000 
     29 N          16.2930   42.3510   53.2330 N.am      5 SEP2        0.0000 
     30 NZ         17.6210   39.5185   50.6345 N.4       2 LYC4        0.0000 
     31 NZ         17.4650   40.9280   50.8260 N.4      10 LYL4        0.0000 
     32 NZ         17.7770   38.1090   50.4430 N.4       6 LYP4        0.0000 
     33 N          16.8790   41.6395   52.0295 N.am      1 SEC2        0.0000 
     34 N          17.4650   40.9280   50.8260 N.am      9 SEL2        0.0000 
     35 N          18.2610   41.4640   51.7830 N.am      1 SEC2        0.0000 
     36 N          19.0570   42.0000   52.7400 N.am      5 SEP2        0.0000 
     37 N          17.6210   39.5185   50.6345 N.am      1 SEC2        0.0000 
     38 N          17.7770   38.1090   50.4430 N.am      5 SEP2        0.0000 
     39 Zn         19.0625   42.2165   48.1035 Zn        3 ZIC7        0.0000 
     40 Zn         18.6210   42.3220   48.9580 Zn       11 ZIL7        0.0000 
     41 Zn         19.5040   42.1110   47.2490 Zn        7 ZIP7        0.0000 
     42 N          19.8485   42.6445   49.8815 N.am      1 SEC2        0.0000 
     43 N          18.6210   42.3220   48.9580 N.am      9 SEL2        0.0000 
     44 N          21.0760   42.9670   50.8050 N.am      5 SEP2        0.0000 
     45 N          14.9630   40.8970   49.2615 N.am      1 SEC2        0.0000 
     46 N          16.3450   41.2020   48.5550 N.am      9 SEL2        0.0000 
     47 N          13.5810   40.5920   49.9680 N.am      5 SEP2        0.0000 
     48 N          15.3435   41.9365   47.5085 N.am      1 SEC2        0.0000 
     49 N          14.3420   42.6710   46.4620 N.am      5 SEP2        0.0000 
     50 NZ         17.4350   38.5030   49.1545 N.4       2 LYC4        0.0000 
     51 NZ         17.0930   38.8970   47.8660 N.4      10 LYL4        0.0000 
     52 N          17.4350   38.5030   49.1545 N.am      1 SEC2        0.0000 
     53 N          17.0930   38.8970   47.8660 N.am      9 SEL2        0.0000 
     54 NZ         14.9540   41.4850   46.4455 N.4       2 LYC4        0.0000 
     55 NZ         15.5660   40.2990   46.4290 N.4      10 LYL4        0.0000 
     56 NZ         16.7500   40.8145   45.2765 N.4       2 LYC4        0.0000 
     57 NZ         16.9560   41.3650   43.2330 N.4       6 LYP4        0.0000 
     58 N          14.3925   39.7885   46.7270 N.am      1 SEC2        0.0000 
     59 N          15.5660   40.2990   46.4290 N.am      9 SEL2        0.0000 
     60 N          13.2190   39.2780   47.0250 N.am      5 SEP2        0.0000 
     61 N          14.9540   41.4850   46.4455 N.am      1 SEC2        0.0000 
     62 N          15.7380   40.4290   44.8975 N.am      1 SEC2        0.0000 
     63 N          15.9100   40.5590   43.3660 N.am      5 SEP2        0.0000 
     64 N          16.7500   40.8145   45.2765 N.am      1 SEC2        0.0000 
     65 N          17.9340   41.3300   44.1240 N.am      5 SEP2        0.0000 
     66 NZ         17.9680   41.1430   45.4125 N.4       2 LYC4        0.0000 
     67 NZ         18.0020   40.9560   46.7010 N.4      10 LYL4        0.0000 
     68 Zn         18.7530   41.5335   46.9750 Zn        3 ZIC7        0.0000 
     69 Zn         18.0020   40.9560   46.7010 Zn       11 ZIL7        0.0000 
     70 N          17.9680   41.1430   45.4125 N.am      1 SEC2        0.0000 
     71 N          18.0020   40.9560   46.7010 N.am      9 SEL2        0.0000 
     72 CA         16.5315   45.3870   53.6615 C.3       4 GLC5        0.0000 
     73 CA         17.2160   43.4670   53.3600 C.3       8 GLP5        0.0000 
@<TRIPOS>BOND
@<TRIPOS>SUBSTRUCTURE
     1 SEC2       19 GROUP        1 X    SEC  0     ROOT SEC X 2
     2 LYC4       24 GROUP        1 X    LYC  0     **** LYC X 4
     3 ZIC7       39 GROUP        1 X    ZIC  0     **** ZIC X 5
     4 GLC5        1 GROUP        1 X    GLC  0     **** GLC X 6
     5 SEP2       21 GROUP        1 Y    SEP  0     ROOT SEP Y 9
     6 LYP4       26 GROUP        1 Y    LYP  0     **** LYP Y 11
     7 ZIP7       41 GROUP        1 Y    ZIP  0     **** ZIP Y 12
     8 GLP5        3 GROUP        1 Y    GLP  0     **** GLP Y 13
     9 SEL2       20 GROUP        1 Z    SEL  0     ROOT SEL Z 16
    10 LYL4       25 GROUP        1 Z    LYL  0     **** LYL Z 18
    11 ZIL7       40 GROUP        1 Z    ZIL  0     **** ZIL Z 19
    12 GLL5        2 GROUP        1 Z    GLL  0     **** GLL Z 20
@<TRIPOS>SET

