#    Name: 4jt2_CTP_2_ligand
#    Modification time : Tue Mar 25 06:16:29 2014

@<TRIPOS>MOLECULE
4jt2_CTP_2_ligand
   41    42     1     0     0
SMALL
NO_CHARGES


@<TRIPOS>ATOM
      1 N1         14.4990   48.1240   53.1270 N.am      1 CTP1001     0.0000 
      2 C2         14.1290   49.0800   54.0910 C.2       1 CTP1001     0.0000 
      3 N3         14.7930   49.1450   55.2610 N.2       1 CTP1001     0.0000 
      4 C4         15.8150   48.2900   55.5180 C.2       1 CTP1001     0.0000 
      5 C5         16.1880   47.3380   54.5670 C.2       1 CTP1001     0.0000 
      6 C6         15.5060   47.2760   53.3590 C.2       1 CTP1001     0.0000 
      7 O2         13.1850   49.8680   53.8520 O.2       1 CTP1001     0.0000 
      8 N4         16.4760   48.3650   56.7040 N.pl3     1 CTP1001     0.0000 
      9 C1'        13.7670   48.1010   51.8670 C.3       1 CTP1001     0.0000 
     10 C2'        14.5300   49.0160   50.9200 C.3       1 CTP1001     0.0000 
     11 O2'        13.8550   50.2710   50.8030 O.3       1 CTP1001     0.0000 
     12 C3'        14.5480   48.2910   49.5950 C.3       1 CTP1001     0.0000 
     13 C4'        13.9030   46.9390   49.8610 C.3       1 CTP1001     0.0000 
     14 O4'        13.7370   46.8010   51.2720 O.3       1 CTP1001     0.0000 
     15 O3'        13.7970   49.0180   48.6150 O.3       1 CTP1001     0.0000 
     16 C5'        14.7850   45.8180   49.3370 C.3       1 CTP1001     0.0000 
     17 O5'        15.7740   45.4500   50.3030 O.3       1 CTP1001     0.0000 
     18 PA         17.0620   44.6310   49.7940 P.3       1 CTP1001     0.0000 
     19 O1A        18.2510   44.9660   50.6560 O.co2     1 CTP1001     0.0000 
     20 O2A        17.1900   44.7750   48.2980 O.co2     1 CTP1001     0.0000 
     21 O3A        16.5510   43.1430   50.1340 O.3       1 CTP1001     0.0000 
     22 PB         17.3600   41.8520   49.6370 P.3       1 CTP1001     0.0000 
     23 O1B        17.4650   40.9280   50.8260 O.co2     1 CTP1001     0.0000 
     24 O2B        18.6210   42.3220   48.9580 O.co2     1 CTP1001     0.0000 
     25 O3B        16.3450   41.2020   48.5550 O.3       1 CTP1001     0.0000 
     26 PG         16.7930   40.2660   47.3020 P.3       1 CTP1001     0.0000 
     27 O1G        17.0930   38.8970   47.8660 O.co2     1 CTP1001     0.0000 
     28 O2G        15.5660   40.2990   46.4290 O.co2     1 CTP1001     0.0000 
     29 O3G        18.0020   40.9560   46.7010 O.co2     1 CTP1001     0.0000 
     30 H          16.9584   46.6926   54.7621 H         1 CTP1001     0.0000 
     31 H          15.7931   46.5704   52.6591 H         1 CTP1001     0.0000 
     32 H          17.2248   47.7148   56.8323 H         1 CTP1001     0.0000 
     33 H          16.1550   49.0638   57.3432 H         1 CTP1001     0.0000 
     34 H          12.7898   48.5110   51.9882 H         1 CTP1001     0.0000 
     35 H          15.5264   49.1102   51.2754 H         1 CTP1001     0.0000 
     36 H          15.5590   48.1304   49.3054 H         1 CTP1001     0.0000 
     37 H          12.9593   46.9071   49.3526 H         1 CTP1001     0.0000 
     38 H          15.2476   46.1626   48.3983 H         1 CTP1001     0.0000 
     39 H          14.1339   44.9663   49.0828 H         1 CTP1001     0.0000 
     40 H          13.4711   50.4438   51.7101 H         1 CTP1001     0.0000 
     41 H          13.4691   49.8330   49.0926 H         1 CTP1001     0.0000 
@<TRIPOS>BOND
     1    2    1 am   
     2    6    1 1    
     3    9    1 1    
     4    3    2 1    
     5    7    2 2    
     6    4    3 2    
     7    5    4 1    
     8    8    4 1    
     9    6    5 2    
    10   30    5 1    
    11   31    6 1    
    12   32    8 1    
    13   33    8 1    
    14   10    9 1    
    15   14    9 1    
    16   34    9 1    
    17   11   10 1    
    18   12   10 1    
    19   35   10 1    
    20   40   11 1    
    21   13   12 1    
    22   15   12 1    
    23   36   12 1    
    24   14   13 1    
    25   16   13 1    
    26   37   13 1    
    27   41   15 1    
    28   17   16 1    
    29   38   16 1    
    30   39   16 1    
    31   18   17 1    
    32   19   18 ar   
    33   20   18 ar   
    34   21   18 1    
    35   22   21 1    
    36   23   22 ar   
    37   24   22 ar   
    38   25   22 1    
    39   26   25 1    
    40   27   26 ar   
    41   28   26 ar   
    42   29   26 ar   
@<TRIPOS>SUBSTRUCTURE
     1 CTP1001     1 GROUP   
@<TRIPOS>SET

