#    Name: 3b78_NAD_2_INTS_M
#    Modification time : Mon Mar 24 19:05:29 2014

@<TRIPOS>MOLECULE
3b78_NAD_2_INTS_M
   78     0     9     0     0
SMALL
NO_CHARGES


@<TRIPOS>ATOM
      1 N         -49.8085  -39.1375   94.7775 N.am      2 SEC2        0.0000 
      2 N         -50.1550  -39.6340   93.6020 N.am      8 SEL2        0.0000 
      3 N         -49.4620  -38.6410   95.9530 N.am      5 SEP2        0.0000 
      4 N         -48.9715  -38.4375   86.7255 N.am      2 SEC2        0.0000 
      5 N         -49.6710  -38.6400   88.2990 N.am      8 SEL2        0.0000 
      6 N         -48.2720  -38.2350   85.1520 N.am      5 SEP2        0.0000 
      7 CA        -46.0940  -36.4090   88.0800 C.3       3 GLC5        0.0000 
      8 CA        -48.1440  -36.9300   88.8350 C.3       9 GLL5        0.0000 
      9 CA        -44.0440  -35.8880   87.3250 C.3       6 GLP5        0.0000 
     10 N         -47.9765  -37.8725   86.3835 N.am      2 SEC2        0.0000 
     11 N         -47.6810  -37.5100   87.6150 N.am      8 SEL2        0.0000 
     12 O         -46.6000  -38.5410   88.0985 O.2       1 ALC1        0.0000 
     13 O         -47.6810  -37.5100   87.6150 O.2       7 ALL1        0.0000 
     14 O         -45.5190  -39.5720   88.5820 O.2       4 ALP1        0.0000 
     15 CA        -48.4310  -35.4465   86.5925 C.3       3 GLC5        0.0000 
     16 CA        -48.8300  -35.5870   88.5750 C.3       9 GLL5        0.0000 
     17 CA        -48.0320  -35.3060   84.6100 C.3       6 GLP5        0.0000 
     18 CA        -49.1065  -34.3115   90.1985 C.3       3 GLC5        0.0000 
     19 CA        -49.3830  -33.0360   91.8220 C.3       6 GLP5        0.0000 
     20 CA        -43.3930  -32.3620   90.3235 C.3       3 GLC5        0.0000 
     21 CA        -45.3010  -32.3490   89.4930 C.3       9 GLL5        0.0000 
     22 CA        -41.4850  -32.3750   91.1540 C.3       6 GLP5        0.0000 
     23 CA        -44.5025  -30.4870   90.3970 C.3       3 GLC5        0.0000 
     24 CA        -43.7040  -28.6250   91.3010 C.3       6 GLP5        0.0000 
     25 O         -45.0840  -30.4995   87.6225 O.2       1 ALC1        0.0000 
     26 O         -44.7070  -31.2200   89.0310 O.2       7 ALL1        0.0000 
     27 O         -45.4610  -29.7790   86.2140 O.2       4 ALP1        0.0000 
     28 O         -43.2165  -30.7920   89.1235 O.2       1 ALC1        0.0000 
     29 O         -41.7260  -30.3640   89.2160 O.2       4 ALP1        0.0000 
     30 N         -44.0510  -32.0440   91.4795 N.am      2 SEC2        0.0000 
     31 N         -44.8880  -32.9460   90.6330 N.am      8 SEL2        0.0000 
     32 N         -43.2140  -31.1420   92.3260 N.am      5 SEP2        0.0000 
     33 CA        -44.5470  -34.2515   89.1015 C.3       3 GLC5        0.0000 
     34 CA        -45.4740  -34.0590   91.0880 C.3       9 GLL5        0.0000 
     35 CA        -43.6200  -34.4440   87.1150 C.3       6 GLP5        0.0000 
     36 CA        -43.7910  -34.1505   91.9080 C.3       3 GLC5        0.0000 
     37 CA        -42.1080  -34.2420   92.7280 C.3       6 GLP5        0.0000 
     38 CA        -47.4285  -33.5475   91.4550 C.3       3 GLC5        0.0000 
     39 CA        -45.4980  -34.9765   88.3065 C.3       3 GLC5        0.0000 
     40 CA        -46.9520  -34.0650   89.2880 C.3       9 GLL5        0.0000 
     41 CA        -51.0255  -45.4050   91.2675 C.3       3 GLC5        0.0000 
     42 CA        -50.8700  -44.2790   93.1040 C.3       9 GLL5        0.0000 
     43 CA        -51.1810  -46.5310   89.4310 C.3       6 GLP5        0.0000 
     44 O         -48.6450  -47.3285   95.2560 O.2       1 ALC1        0.0000 
     45 O         -49.9640  -46.8850   94.9410 O.2       7 ALL1        0.0000 
     46 O         -47.3260  -47.7720   95.5710 O.2       4 ALP1        0.0000 
     47 CA        -49.8590  -46.8115   91.2605 C.3       3 GLC5        0.0000 
     48 CA        -49.4210  -46.0990   92.7220 C.3       9 GLL5        0.0000 
     49 CA        -50.2970  -47.5240   89.7990 C.3       6 GLP5        0.0000 
     50 N         -44.9790  -43.9675   87.3595 N.am      2 SEC2        0.0000 
     51 N         -45.4320  -44.5730   88.5570 N.am      8 SEL2        0.0000 
     52 N         -44.5260  -43.3620   86.1620 N.am      5 SEP2        0.0000 
     53 O         -47.0725  -42.6710   87.7335 O.2       1 ALC1        0.0000 
     54 O         -47.0550  -43.1960   89.2180 O.2       7 ALL1        0.0000 
     55 O         -47.0900  -42.1460   86.2490 O.2       4 ALP1        0.0000 
     56 CA        -50.0907  -34.9748   91.0618 C.3       3 GLC5        0.0000 
     57 CA        -51.1950  -37.0580   90.9470 C.3       9 GLL5        0.0000 
     58 CA        -44.7245  -33.5378   88.1285 C.3       3 GLC5        0.0000 
     59 CA        -46.3570  -32.9140   88.7910 C.3       9 GLL5        0.0000 
     60 CA        -48.0188  -33.2627   90.4308 C.3       3 GLC5        0.0000 
     61 CA        -48.3470  -44.7975   95.2687 C.3       3 GLC5        0.0000 
     62 CA        -50.1870  -44.5460   94.4290 C.3       9 GLL5        0.0000 
     63 CA        -46.9150  -44.4200   96.2160 C.3       6 GLP5        0.0000 
     64 CA        -46.6468  -44.1945   92.5035 C.3       3 GLC5        0.0000 
     65 CA        -47.8220  -45.2560   91.1070 C.3       9 GLL5        0.0000 
     66 CA        -46.1030  -43.1620   94.1900 C.3       6 GLP5        0.0000 
     67 CA        -43.9848  -45.4645   91.8028 C.3       3 GLC5        0.0000 
     68 CA        -45.8260  -46.8390   92.1000 C.3       9 GLL5        0.0000 
     69 CA        -42.2840  -44.5070   92.0430 C.3       6 GLP5        0.0000 
     70 CA        -44.0358  -47.6240   91.0452 C.3       3 GLC5        0.0000 
     71 CA        -45.5450  -46.0050   91.0250 C.3       9 GLL5        0.0000 
     72 CA        -42.3860  -48.8260   90.5280 C.3       6 GLP5        0.0000 
     73 CA        -45.9313  -48.8388   91.9590 C.3       3 GLC5        0.0000 
     74 CA        -45.3950  -50.8290   91.5480 C.3       6 GLP5        0.0000 
     75 CA        -45.6478  -47.8302   93.8005 C.3       3 GLC5        0.0000 
     76 CA        -44.8280  -48.8120   95.2310 C.3       6 GLP5        0.0000 
     77 CA        -46.2501  -44.9010   93.1456 C.3       3 GLC5        0.0000 
     78 CA        -47.1090  -46.8580   92.6400 C.3       9 GLL5        0.0000 
@<TRIPOS>BOND
@<TRIPOS>SUBSTRUCTURE
     1 ALC1       12 GROUP        1 X    ALC  0     ROOT ALC X 1
     2 SEC2        1 GROUP        1 X    SEC  0     **** SEC X 2
     3 GLC5        7 GROUP        1 X    GLC  0     **** GLC X 6
     4 ALP1       14 GROUP        1 Y    ALP  0     ROOT ALP Y 8
     5 SEP2        3 GROUP        1 Y    SEP  0     **** SEP Y 9
     6 GLP5        9 GROUP        1 Y    GLP  0     **** GLP Y 13
     7 ALL1       13 GROUP        1 Z    ALL  0     ROOT ALL Z 15
     8 SEL2        2 GROUP        1 Z    SEL  0     **** SEL Z 16
     9 GLL5        8 GROUP        1 Z    GLL  0     **** GLL Z 20
@<TRIPOS>SET

