#    Name: 3b78_NAD_2_ligand
#    Modification time : Mon Mar 24 19:05:29 2014

@<TRIPOS>MOLECULE
3b78_NAD_2_ligand
   70    74     1     0     0
SMALL
NO_CHARGES


@<TRIPOS>ATOM
      1 PA        -51.0250  -39.1430   92.4750 P.3       1 NAD702      0.0000 
      2 O1A       -52.4750  -38.8550   92.7610 O.co2     1 NAD702      0.0000 
      3 O2A       -50.1550  -39.6340   93.6020 O.co2     1 NAD702      0.0000 
      4 O5B       -50.4090  -37.7690   91.9160 O.3       1 NAD702      0.0000 
      5 C5B       -51.1950  -37.0580   90.9470 C.3       1 NAD702      0.0000 
      6 C4B       -50.4020  -36.7690   89.6560 C.3       1 NAD702      0.0000 
      7 O4B       -49.7910  -35.4560   89.6260 O.3       1 NAD702      0.0000 
      8 C3B       -49.2760  -37.7850   89.3750 C.3       1 NAD702      0.0000 
      9 O3B       -49.6710  -38.6400   88.2990 O.3       1 NAD702      0.0000 
     10 C2B       -48.1440  -36.9300   88.8350 C.3       1 NAD702      0.0000 
     11 O2B       -47.6810  -37.5100   87.6150 O.3       1 NAD702      0.0000 
     12 C1B       -48.8300  -35.5870   88.5750 C.3       1 NAD702      0.0000 
     13 N9A       -47.9150  -34.4250   88.4430 N.pl3     1 NAD702      0.0000 
     14 C8A       -47.9610  -33.5230   87.4600 C.2       1 NAD702      0.0000 
     15 N7A       -47.0040  -32.5900   87.6520 N.2       1 NAD702      0.0000 
     16 C5A       -46.3570  -32.9140   88.7910 C.ar      1 NAD702      0.0000 
     17 C6A       -45.3010  -32.3490   89.4930 C.ar      1 NAD702      0.0000 
     18 N6A       -44.7070  -31.2200   89.0310 N.pl3     1 NAD702      0.0000 
     19 N1A       -44.8880  -32.9460   90.6330 N.ar      1 NAD702      0.0000 
     20 C2A       -45.4740  -34.0590   91.0880 C.ar      1 NAD702      0.0000 
     21 N3A       -46.4910  -34.6230   90.4310 N.ar      1 NAD702      0.0000 
     22 C4A       -46.9520  -34.0650   89.2880 C.ar      1 NAD702      0.0000 
     23 O3        -50.9310  -40.1380   91.2070 O.3       1 NAD702      0.0000 
     24 PN        -49.7600  -41.2350   91.0150 P.3       1 NAD702      0.0000 
     25 O1N       -48.6550  -41.0320   92.0260 O.co2     1 NAD702      0.0000 
     26 O2N       -49.4320  -41.3500   89.5460 O.co2     1 NAD702      0.0000 
     27 O5D       -50.5720  -42.5570   91.4250 O.3       1 NAD702      0.0000 
     28 C5D       -50.7450  -42.7950   92.8150 C.3       1 NAD702      0.0000 
     29 C4D       -50.8700  -44.2790   93.1040 C.3       1 NAD702      0.0000 
     30 O4D       -50.2010  -45.0630   92.1140 O.3       1 NAD702      0.0000 
     31 C3D       -50.1870  -44.5460   94.4290 C.3       1 NAD702      0.0000 
     32 O3D       -51.1710  -44.7070   95.4550 O.3       1 NAD702      0.0000 
     33 C2D       -49.3710  -45.8040   94.2140 C.3       1 NAD702      0.0000 
     34 O2D       -49.9640  -46.8850   94.9410 O.3       1 NAD702      0.0000 
     35 C1D       -49.4210  -46.0990   92.7220 C.3       1 NAD702      0.0000 
     36 N1N       -48.0700  -46.0640   92.1490 N.pl3     1 NAD702      0.0000 
     37 C2N       -47.8220  -45.2560   91.1070 C.ar      1 NAD702      0.0000 
     38 C3N       -46.5590  -45.1980   90.5270 C.ar      1 NAD702      0.0000 
     39 C7N       -46.3050  -44.2860   89.3610 C.2       1 NAD702      0.0000 
     40 O7N       -45.4320  -44.5730   88.5570 O.2       1 NAD702      0.0000 
     41 N7N       -47.0550  -43.1960   89.2180 N.am      1 NAD702      0.0000 
     42 C4N       -45.5450  -46.0050   91.0250 C.ar      1 NAD702      0.0000 
     43 C5N       -45.8260  -46.8390   92.1000 C.ar      1 NAD702      0.0000 
     44 C6N       -47.1090  -46.8580   92.6400 C.ar      1 NAD702      0.0000 
     45 H         -51.5442  -36.0883   91.3415 H         1 NAD702      0.0000 
     46 H         -52.0950  -37.6279   90.6585 H         1 NAD702      0.0000 
     47 H         -51.1040  -36.8512   88.8032 H         1 NAD702      0.0000 
     48 H         -48.9931  -38.2571   90.2330 H         1 NAD702      0.0000 
     49 H         -47.4189  -36.8143   89.5701 H         1 NAD702      0.0000 
     50 H         -49.3857  -35.7211   87.6188 H         1 NAD702      0.0000 
     51 H         -48.5885  -33.5293   86.7114 H         1 NAD702      0.0000 
     52 H         -43.7423  -31.1021   89.2669 H         1 NAD702      0.0000 
     53 H         -45.2863  -30.6056   88.4954 H         1 NAD702      0.0000 
     54 H         -45.1264  -34.4982   91.9811 H         1 NAD702      0.0000 
     55 H         -51.6518  -42.2991   93.2026 H         1 NAD702      0.0000 
     56 H         -49.8945  -42.4082   93.4027 H         1 NAD702      0.0000 
     57 H         -51.8978  -44.5361   93.1976 H         1 NAD702      0.0000 
     58 H         -49.5173  -43.7345   94.6237 H         1 NAD702      0.0000 
     59 H         -48.3680  -45.6188   94.4951 H         1 NAD702      0.0000 
     60 H         -49.8698  -47.0528   92.5776 H         1 NAD702      0.0000 
     61 H         -48.5753  -44.6521   90.7090 H         1 NAD702      0.0000 
     62 H         -46.8590  -42.6289   88.4180 H         1 NAD702      0.0000 
     63 H         -47.7469  -43.0423   89.9234 H         1 NAD702      0.0000 
     64 H         -44.6139  -45.9863   90.6110 H         1 NAD702      0.0000 
     65 H         -45.0928  -47.4381   92.4947 H         1 NAD702      0.0000 
     66 H         -47.3007  -47.5046   93.4339 H         1 NAD702      0.0000 
     67 H         -49.6114  -39.5668   88.6698 H         1 NAD702      0.0000 
     68 H         -46.9452  -38.1305   87.8864 H         1 NAD702      0.0000 
     69 H         -51.1575  -45.6822   95.6756 H         1 NAD702      0.0000 
     70 H         -49.1949  -47.3672   95.3606 H         1 NAD702      0.0000 
@<TRIPOS>BOND
     1    2    1 ar   
     2    3    1 ar   
     3    4    1 1    
     4   23    1 1    
     5    5    4 1    
     6    6    5 1    
     7   45    5 1    
     8   46    5 1    
     9    7    6 1    
    10    8    6 1    
    11   47    6 1    
    12   12    7 1    
    13    9    8 1    
    14   10    8 1    
    15   48    8 1    
    16   67    9 1    
    17   11   10 1    
    18   12   10 1    
    19   49   10 1    
    20   68   11 1    
    21   13   12 1    
    22   50   12 1    
    23   14   13 1    
    24   22   13 1    
    25   15   14 2    
    26   51   14 1    
    27   16   15 1    
    28   17   16 ar   
    29   22   16 ar   
    30   18   17 1    
    31   19   17 ar   
    32   52   18 1    
    33   53   18 1    
    34   20   19 ar   
    35   21   20 ar   
    36   54   20 1    
    37   22   21 ar   
    38   24   23 1    
    39   25   24 ar   
    40   26   24 ar   
    41   27   24 1    
    42   28   27 1    
    43   29   28 1    
    44   55   28 1    
    45   56   28 1    
    46   30   29 1    
    47   31   29 1    
    48   57   29 1    
    49   35   30 1    
    50   32   31 1    
    51   33   31 1    
    52   58   31 1    
    53   69   32 1    
    54   34   33 1    
    55   35   33 1    
    56   59   33 1    
    57   70   34 1    
    58   36   35 1    
    59   60   35 1    
    60   37   36 ar   
    61   44   36 ar   
    62   38   37 ar   
    63   61   37 1    
    64   39   38 1    
    65   42   38 ar   
    66   40   39 2    
    67   41   39 am   
    68   62   41 1    
    69   63   41 1    
    70   43   42 ar   
    71   64   42 1    
    72   44   43 ar   
    73   65   43 1    
    74   66   44 1    
@<TRIPOS>SUBSTRUCTURE
     1 NAD702      1 GROUP   
@<TRIPOS>SET

