#    Name: 3gcv_SS6_1_INTS_M
#    Modification time : Tue Mar 25 07:30:42 2014

@<TRIPOS>MOLECULE
3gcv_SS6_1_INTS_M
  101     0     9     0     0
SMALL
NO_CHARGES


@<TRIPOS>ATOM
      1 CA         -1.5765    5.0985  -18.9450 C.3       3 GLC5        0.0000 
      2 CA         -3.1550    3.6610  -19.6340 C.3       9 GLL5        0.0000 
      3 CA          0.0020    6.5360  -18.2560 C.3       6 GLP5        0.0000 
      4 CA         -0.6840    2.1640  -17.4630 C.3       3 GLC5        0.0000 
      5 CA         -2.8640    2.1630  -17.7690 C.3       9 GLL5        0.0000 
      6 CA          1.4960    2.1650  -17.1570 C.3       6 GLP5        0.0000 
      7 N          -2.6890    6.1430  -19.0800 N.am      2 SEC2        0.0000 
      8 N          -3.0570    4.6740  -18.7730 N.am      8 SEL2        0.0000 
      9 N          -2.3210    7.6120  -19.3870 N.am      5 SEP2        0.0000 
     10 CA          1.4275   -7.8615   -6.7875 C.3       3 GLC5        0.0000 
     11 CA          1.9870   -7.0980   -8.6200 C.3       9 GLL5        0.0000 
     12 CA          0.8680   -8.6250   -4.9550 C.3       6 GLP5        0.0000 
     13 CA          0.5610   -6.0960   -7.9130 C.3       3 GLC5        0.0000 
     14 CA         -0.8650   -5.0940   -7.2060 C.3       6 GLP5        0.0000 
     15 CA          3.2370   -3.9750   -8.3790 C.3       3 GLC5        0.0000 
     16 CA          2.2360   -5.0280  -10.0650 C.3       9 GLL5        0.0000 
     17 CA          4.2380   -2.9220   -6.6930 C.3       6 GLP5        0.0000 
     18 CA          0.3710   -8.7850  -10.5885 C.3       3 GLC5        0.0000 
     19 CA          1.0100   -6.8800  -10.9800 C.3       9 GLL5        0.0000 
     20 CA         -0.2680  -10.6900  -10.1970 C.3       6 GLP5        0.0000 
     21 CA          4.5585   -1.3690   -8.0930 C.3       3 GLC5        0.0000 
     22 CA          4.8790    0.1840   -9.4930 C.3       9 GLL5        0.0000 
     23 CA          2.9285    0.3030   -9.0430 C.3       3 GLC5        0.0000 
     24 CA          0.9780    0.4220   -8.5930 C.3       6 GLP5        0.0000 
     25 CA          5.1445    1.0235   -7.6340 C.3       3 GLC5        0.0000 
     26 CA          5.4100    1.8630   -5.7750 C.3       6 GLP5        0.0000 
     27 CA          5.2670    1.9590   -9.3435 C.3       3 GLC5        0.0000 
     28 CA          5.6550    3.7340   -9.1940 C.3       6 GLP5        0.0000 
     29 CA          5.2225   -2.3860   -8.4135 C.3       3 GLC5        0.0000 
     30 CA          6.2070   -1.8500  -10.1340 C.3       9 GLL5        0.0000 
     31 CA          7.3085   -2.9450   -8.6405 C.3       3 GLC5        0.0000 
     32 CA          8.4100   -4.0400   -7.1470 C.3       6 GLP5        0.0000 
     33 CA          7.4930    0.7510  -10.8275 C.3       3 GLC5        0.0000 
     34 CA          5.7930   -0.0170  -11.7880 C.3       9 GLL5        0.0000 
     35 CA          9.1930    1.5190   -9.8670 C.3       6 GLP5        0.0000 
     36 CA          7.0720    0.9045  -12.8200 C.3       3 GLC5        0.0000 
     37 CA          8.3510    1.8260  -13.8520 C.3       6 GLP5        0.0000 
     38 CA          4.9980    0.6880  -13.2530 C.3       3 GLC5        0.0000 
     39 CA          4.2030    1.3930  -14.7180 C.3       6 GLP5        0.0000 
     40 CA          2.2880    0.9225  -11.7290 C.3       3 GLC5        0.0000 
     41 CA          2.7850   -0.9440  -11.6420 C.3       9 GLL5        0.0000 
     42 CA          1.7910    2.7890  -11.8160 C.3       6 GLP5        0.0000 
     43 CA          3.4940    0.2245  -13.1800 C.3       3 GLC5        0.0000 
     44 O          -0.5735   -2.6970  -12.0155 O.2       1 ALC1        0.0000 
     45 O           0.6620   -1.9220  -12.2870 O.2       7 ALL1        0.0000 
     46 O          -1.8090   -3.4720  -11.7440 O.2       4 ALP1        0.0000 
     47 N           1.9575   -0.4420  -14.5395 N.am      2 SEC2        0.0000 
     48 N           0.7290   -0.1760  -13.7590 N.am      8 SEL2        0.0000 
     49 N           3.1860   -0.7080  -15.3200 N.am      5 SEP2        0.0000 
     50 O          -1.5290   -2.2685  -12.4515 O.2       1 ALC1        0.0000 
     51 O          -1.2490   -1.0650  -13.1590 O.2       7 ALL1        0.0000 
     52 CA         -2.2830   -0.1110  -11.3710 C.3       3 GLC5        0.0000 
     53 CA         -3.3230    0.0750  -13.2660 C.3       9 GLL5        0.0000 
     54 CA         -1.2430   -0.2970   -9.4760 C.3       6 GLP5        0.0000 
     55 CA         -4.2115   -1.1715  -11.8060 C.3       3 GLC5        0.0000 
     56 CA         -5.1000   -2.4180  -10.3460 C.3       6 GLP5        0.0000 
     57 CA         -5.5085    0.1615  -12.3000 C.3       3 GLC5        0.0000 
     58 CA         -4.3030    0.8010  -13.9430 C.3       9 GLL5        0.0000 
     59 CA         -6.7140   -0.4780  -10.6570 C.3       6 GLP5        0.0000 
     60 CA         -5.1290    2.6380  -16.3955 C.3       3 GLC5        0.0000 
     61 CA         -4.1090    1.0830  -15.2990 C.3       9 GLL5        0.0000 
     62 CA         -6.1490    4.1930  -17.4920 C.3       6 GLP5        0.0000 
     63 CA         -4.5160    4.3330  -17.4755 C.3       3 GLC5        0.0000 
     64 CA         -2.8830    4.4730  -17.4590 C.3       9 GLL5        0.0000 
     65 CA         -3.3240    4.7545  -15.3105 C.3       3 GLC5        0.0000 
     66 CA         -3.7650    5.0360  -13.1620 C.3       6 GLP5        0.0000 
     67 CA         -3.6895    6.2880  -17.9310 C.3       3 GLC5        0.0000 
     68 CA         -4.4960    8.1030  -18.4030 C.3       6 GLP5        0.0000 
     69 CA         -1.4405    5.5045  -17.8575 C.3       3 GLC5        0.0000 
     70 CA         -4.6732    5.1028  -20.5710 C.3       3 GLC5        0.0000 
     71 CA         -6.1090    6.4220  -20.8240 C.3       6 GLP5        0.0000 
     72 CA         -4.9155    1.5545  -18.8930 C.3       3 GLC5        0.0000 
     73 CA         -3.0540    2.3410  -19.1490 C.3       9 GLL5        0.0000 
     74 CA         -6.8720    0.8570  -19.3270 C.3       6 GLP5        0.0000 
     75 CA         -4.5666    3.3875  -18.0361 C.3       3 GLC5        0.0000 
     76 CA         -0.0633   -5.9733   -9.5183 C.3       3 GLC5        0.0000 
     77 CA         -1.4990   -5.3500   -8.5780 C.3       6 GLP5        0.0000 
     78 CA          0.3257   -4.3718  -10.0463 C.3       3 GLC5        0.0000 
     79 CA         -1.4770   -4.0780   -9.4520 C.3       6 GLP5        0.0000 
     80 CA         -0.2085   -4.7995  -10.8353 C.3       3 GLC5        0.0000 
     81 CA          1.3110   -4.8720  -12.2810 C.3       9 GLL5        0.0000 
     82 CA          2.1080   -3.8312  -13.5098 C.3       3 GLC5        0.0000 
     83 CA          2.5500   -3.0750  -15.2710 C.3       6 GLP5        0.0000 
     84 CA          1.6695   -0.5220  -10.1630 C.3       3 GLC5        0.0000 
     85 CA          1.9370   -1.9880  -11.8240 C.3       9 GLL5        0.0000 
     86 CA          2.4555   -2.2705  -13.5020 C.3       3 GLC5        0.0000 
     87 CA         -3.5995   -1.7895  -14.0151 C.3       3 GLC5        0.0000 
     88 CA         -2.1460   -0.3550  -13.9060 C.3       9 GLL5        0.0000 
     89 CA         -4.5100   -3.5130  -14.1050 C.3       6 GLP5        0.0000 
     90 CA         -5.5340   -0.3530  -14.9015 C.3       3 GLC5        0.0000 
     91 CA         -6.8620   -1.6480  -15.1820 C.3       6 GLP5        0.0000 
     92 CA         -3.7285    2.2877  -13.3504 C.3       3 GLC5        0.0000 
     93 CA         -3.4960    3.8150  -12.2490 C.3       6 GLP5        0.0000 
     94 CA         -5.0553    1.1102  -20.0330 C.3       3 GLC5        0.0000 
     95 CA         -3.1490    1.2520  -20.0490 C.3       9 GLL5        0.0000 
     96 CA         -5.2385    1.9755  -22.3487 C.3       3 GLC5        0.0000 
     97 CA         -3.3280    1.4750  -21.4290 C.3       9 GLL5        0.0000 
     98 CA         -7.1080    1.8090  -23.0350 C.3       6 GLP5        0.0000 
     99 CA         -2.5755    1.6135  -23.0822 C.3       3 GLC5        0.0000 
    100 CA         -3.4100    2.8090  -21.8960 C.3       9 GLL5        0.0000 
    101 CA         -1.7820    1.0850  -24.5020 C.3       6 GLP5        0.0000 
@<TRIPOS>BOND
@<TRIPOS>SUBSTRUCTURE
     1 ALC1       44 GROUP        1 X    ALC  0     ROOT ALC X 1
     2 SEC2        7 GROUP        1 X    SEC  0     **** SEC X 2
     3 GLC5        1 GROUP        1 X    GLC  0     **** GLC X 6
     4 ALP1       46 GROUP        1 Y    ALP  0     ROOT ALP Y 8
     5 SEP2        9 GROUP        1 Y    SEP  0     **** SEP Y 9
     6 GLP5        3 GROUP        1 Y    GLP  0     **** GLP Y 13
     7 ALL1       45 GROUP        1 Z    ALL  0     ROOT ALL Z 15
     8 SEL2        8 GROUP        1 Z    SEL  0     **** SEL Z 16
     9 GLL5        2 GROUP        1 Z    GLL  0     **** GLL Z 20
@<TRIPOS>SET

