#    Name: 3gcv_SS6_1_ligand
#    Modification time : Tue Mar 25 07:30:42 2014

@<TRIPOS>MOLECULE
3gcv_SS6_1_ligand
   68    72     1     0     0
SMALL
NO_CHARGES


@<TRIPOS>ATOM
      1 C4         -3.1550    3.6610  -19.6340 C.ar      1 SS6361      0.0000 
      2 C5         -3.0540    2.3410  -19.1490 C.ar      1 SS6361      0.0000 
      3 C6         -2.8640    2.1630  -17.7690 C.ar      1 SS6361      0.0000 
      4 N1         -2.7870    3.2450  -16.9540 N.ar      1 SS6361      0.0000 
      5 N3         -3.0570    4.6740  -18.7730 N.ar      1 SS6361      0.0000 
      6 CAA         1.9870   -7.0980   -8.6200 C.3       1 SS6361      0.0000 
      7 CBA         1.7350   -6.3130   -9.9370 C.ar      1 SS6361      0.0000 
      8 CAP         2.2360   -5.0280  -10.0650 C.ar      1 SS6361      0.0000 
      9 CAJ         1.0100   -6.8800  -10.9800 C.ar      1 SS6361      0.0000 
     10 CAH         0.8090   -6.1700  -12.1560 C.ar      1 SS6361      0.0000 
     11 CAM         1.3110   -4.8720  -12.2810 C.ar      1 SS6361      0.0000 
     12 CBE         2.0210   -4.3030  -11.2160 C.ar      1 SS6361      0.0000 
     13 NBK         2.5300   -3.0600  -11.2790 N.pl3     1 SS6361      0.0000 
     14 NAV         3.6680   -2.7760  -10.8570 N.2       1 SS6361      0.0000 
     15 CBF         3.8800   -1.4860  -11.0640 C.2       1 SS6361      0.0000 
     16 CBL         5.1950   -0.7890  -10.6360 C.3       1 SS6361      0.0000 
     17 CAC         4.8790    0.1840   -9.4930 C.3       1 SS6361      0.0000 
     18 CAD         6.2070   -1.8500  -10.1340 C.3       1 SS6361      0.0000 
     19 CAB         5.7930   -0.0170  -11.7880 C.3       1 SS6361      0.0000 
     20 CAR         2.7850   -0.9440  -11.6420 C.2       1 SS6361      0.0000 
     21 CBG         1.9370   -1.9880  -11.8240 C.2       1 SS6361      0.0000 
     22 NAX         0.6620   -1.9220  -12.2870 N.am      1 SS6361      0.0000 
     23 CAZ         0.0860   -0.9810  -13.0820 C.2       1 SS6361      0.0000 
     24 OAF         0.7290   -0.1760  -13.7590 O.2       1 SS6361      0.0000 
     25 NAW        -1.2490   -1.0650  -13.1590 N.am      1 SS6361      0.0000 
     26 CBC        -2.1460   -0.3550  -13.9060 C.ar      1 SS6361      0.0000 
     27 CAQ        -1.9640   -0.0590  -15.2630 C.ar      1 SS6361      0.0000 
     28 CAK        -3.3230    0.0750  -13.2660 C.ar      1 SS6361      0.0000 
     29 CAG        -4.3030    0.8010  -13.9430 C.ar      1 SS6361      0.0000 
     30 CAL        -4.1090    1.0830  -15.2990 C.ar      1 SS6361      0.0000 
     31 CBD        -2.9400    0.6620  -15.9540 C.ar      1 SS6361      0.0000 
     32 NAY        -2.7600    0.9290  -17.2530 N.pl3     1 SS6361      0.0000 
     33 CAS        -3.1490    1.2520  -20.0490 C.ar      1 SS6361      0.0000 
     34 CBB        -3.3280    1.4750  -21.4290 C.ar      1 SS6361      0.0000 
     35 NAE        -3.4310    0.4360  -22.3090 N.pl3     1 SS6361      0.0000 
     36 CAN        -3.4100    2.8090  -21.8960 C.ar      1 SS6361      0.0000 
     37 CAO        -3.3200    3.9060  -21.0020 C.ar      1 SS6361      0.0000 
     38 C2         -2.8830    4.4730  -17.4590 C.ar      1 SS6361      0.0000 
     39 H           2.7768   -4.6117   -9.2860 H         1 SS6361      0.0000 
     40 H           0.6221   -7.8283  -10.8785 H         1 SS6361      0.0000 
     41 H           0.2925   -6.5947  -12.9354 H         1 SS6361      0.0000 
     42 H           1.1623   -4.3413  -13.1410 H         1 SS6361      0.0000 
     43 H           2.6394   -0.0428  -11.8693 H         1 SS6361      0.0000 
     44 H           0.0005   -2.7468  -11.9749 H         1 SS6361      0.0000 
     45 H          -1.7148   -1.8423  -12.5074 H         1 SS6361      0.0000 
     46 H          -1.1161   -0.3716  -15.7457 H         1 SS6361      0.0000 
     47 H          -3.4607   -0.1565  -12.2645 H         1 SS6361      0.0000 
     48 H          -5.1402    1.1188  -13.4629 H         1 SS6361      0.0000 
     49 H          -4.8255    1.6020  -15.8225 H         1 SS6361      0.0000 
     50 H          -2.5226    0.1235  -17.9102 H         1 SS6361      0.0000 
     51 H          -3.0866    0.2934  -19.6906 H         1 SS6361      0.0000 
     52 H          -3.1304    0.6204  -23.2448 H         1 SS6361      0.0000 
     53 H          -3.7980   -0.4181  -21.9403 H         1 SS6361      0.0000 
     54 H          -3.5370    2.9864  -22.9003 H         1 SS6361      0.0000 
     55 H          -3.3756    4.8564  -21.3590 H         1 SS6361      0.0000 
     56 H          -2.8214    5.3073  -16.8158 H         1 SS6361      0.0000 
     57 H           2.9634   -7.2171   -8.4397 H         1 SS6361      0.0000 
     58 H           1.5977   -6.6285   -7.8275 H         1 SS6361      0.0000 
     59 H           1.5806   -8.0113   -8.6484 H         1 SS6361      0.0000 
     60 H           5.6981    0.6608   -9.1741 H         1 SS6361      0.0000 
     61 H           4.2222    0.8844   -9.7724 H         1 SS6361      0.0000 
     62 H           4.4872   -0.2865   -8.7024 H         1 SS6361      0.0000 
     63 H           7.0702   -1.4339   -9.8482 H         1 SS6361      0.0000 
     64 H           5.8530   -2.3589   -9.3493 H         1 SS6361      0.0000 
     65 H           6.4253   -2.5200  -10.8436 H         1 SS6361      0.0000 
     66 H           6.6433    0.4400  -11.5272 H         1 SS6361      0.0000 
     67 H           6.0058   -0.6119  -12.5631 H         1 SS6361      0.0000 
     68 H           5.1710    0.6905  -12.1236 H         1 SS6361      0.0000 
@<TRIPOS>BOND
     1    2    1 ar   
     2    5    1 ar   
     3   37    1 ar   
     4    3    2 ar   
     5   33    2 ar   
     6    4    3 ar   
     7   32    3 1    
     8   38    4 ar   
     9   38    5 ar   
    10    7    6 1    
    11   57    6 1    
    12   58    6 1    
    13   59    6 1    
    14    8    7 ar   
    15    9    7 ar   
    16   12    8 ar   
    17   39    8 1    
    18   10    9 ar   
    19   40    9 1    
    20   11   10 ar   
    21   41   10 1    
    22   12   11 ar   
    23   42   11 1    
    24   13   12 1    
    25   14   13 1    
    26   21   13 1    
    27   15   14 2    
    28   16   15 1    
    29   20   15 1    
    30   17   16 1    
    31   18   16 1    
    32   19   16 1    
    33   60   17 1    
    34   61   17 1    
    35   62   17 1    
    36   63   18 1    
    37   64   18 1    
    38   65   18 1    
    39   66   19 1    
    40   67   19 1    
    41   68   19 1    
    42   21   20 2    
    43   43   20 1    
    44   22   21 1    
    45   23   22 am   
    46   44   22 1    
    47   24   23 2    
    48   25   23 am   
    49   26   25 1    
    50   45   25 1    
    51   27   26 ar   
    52   28   26 ar   
    53   31   27 ar   
    54   46   27 1    
    55   29   28 ar   
    56   47   28 1    
    57   30   29 ar   
    58   48   29 1    
    59   31   30 ar   
    60   49   30 1    
    61   32   31 1    
    62   50   32 1    
    63   34   33 ar   
    64   51   33 1    
    65   35   34 1    
    66   36   34 ar   
    67   52   35 1    
    68   53   35 1    
    69   37   36 ar   
    70   54   36 1    
    71   55   37 1    
    72   56   38 1    
@<TRIPOS>SUBSTRUCTURE
     1 SS6361      1 GROUP   
@<TRIPOS>SET

