#    Name: 2ban_357_1_INTS_M
#    Modification time : Mon Mar 24 20:28:33 2014

@<TRIPOS>MOLECULE
2ban_357_1_INTS_M
   67     0     6     0     0
SMALL
NO_CHARGES


@<TRIPOS>ATOM
      1 CA        142.1150  -24.9150   73.8695 C.3       2 GLC5        0.0000 
      2 CA        143.6280  -26.4190   73.4760 C.3       6 GLL5        0.0000 
      3 CA        140.6020  -23.4110   74.2630 C.3       4 GLP5        0.0000 
      4 CA        142.8955  -27.1375   77.0515 C.3       2 GLC5        0.0000 
      5 CA        143.3770  -26.9830   74.8940 C.3       6 GLL5        0.0000 
      6 CA        142.4140  -27.2920   79.2090 C.3       4 GLP5        0.0000 
      7 CA        141.4765  -24.7775   74.9685 C.3       2 GLC5        0.0000 
      8 CA        142.3510  -26.1440   75.6740 C.3       6 GLL5        0.0000 
      9 CA        141.4220  -26.0050   77.1130 C.3       2 GLC5        0.0000 
     10 CA        140.4930  -25.8660   78.5520 C.3       4 GLP5        0.0000 
     11 CA        140.5305  -27.1955   75.2550 C.3       2 GLC5        0.0000 
     12 CA        138.7100  -28.2470   74.8360 C.3       4 GLP5        0.0000 
     13 CA        140.7320  -28.6090   70.9415 C.3       2 GLC5        0.0000 
     14 CA        141.4920  -27.5790   72.5940 C.3       6 GLL5        0.0000 
     15 CA        139.9720  -29.6390   69.2890 C.3       4 GLP5        0.0000 
     16 CA        140.2405  -28.3325   73.1890 C.3       2 GLC5        0.0000 
     17 CA        138.9890  -29.0860   73.7840 C.3       4 GLP5        0.0000 
     18 O         142.0020  -26.6575   70.0910 O.2       1 ALC1        0.0000 
     19 O         142.9620  -26.2170   71.1440 O.2       5 ALL1        0.0000 
     20 O         141.0420  -27.0980   69.0380 O.2       3 ALP1        0.0000 
     21 CA        147.0355  -24.6780   69.0460 C.3       2 GLC5        0.0000 
     22 CA        147.1980  -24.8890   70.8460 C.3       6 GLL5        0.0000 
     23 CA        146.8730  -24.4670   67.2460 C.3       4 GLP5        0.0000 
     24 CA        148.2545  -24.6080   72.7520 C.3       2 GLC5        0.0000 
     25 CA        149.3110  -24.3270   74.6580 C.3       4 GLP5        0.0000 
     26 CA        149.2390  -25.5160   70.7865 C.3       2 GLC5        0.0000 
     27 CA        151.2800  -26.1430   70.7270 C.3       4 GLP5        0.0000 
     28 CA        147.7465  -26.4080   70.0385 C.3       2 GLC5        0.0000 
     29 CA        148.2950  -27.9270   69.2310 C.3       4 GLP5        0.0000 
     30 CA        146.3655  -23.7145   69.0490 C.3       2 GLC5        0.0000 
     31 CA        145.8580  -22.9620   70.8520 C.3       6 GLL5        0.0000 
     32 CA        143.1035  -22.0325   71.9715 C.3       2 GLC5        0.0000 
     33 CA        144.9630  -22.0110   71.6780 C.3       6 GLL5        0.0000 
     34 CA        141.2440  -22.0540   72.2650 C.3       4 GLP5        0.0000 
     35 CA        142.6545  -20.9355   71.7955 C.3       2 GLC5        0.0000 
     36 CA        144.0650  -19.8170   71.3260 C.3       6 GLL5        0.0000 
     37 CA        145.7140  -19.7715   72.3480 C.3       2 GLC5        0.0000 
     38 CA        147.3630  -19.7260   73.3700 C.3       4 GLP5        0.0000 
     39 CA        143.3650  -18.4910   70.5350 C.3       2 GLC5        0.0000 
     40 CA        142.6650  -17.1650   69.7440 C.3       4 GLP5        0.0000 
     41 CA        145.1725  -23.0730   79.6330 C.3       2 GLC5        0.0000 
     42 CA        145.4230  -23.1300   77.5330 C.3       6 GLL5        0.0000 
     43 CA        144.9220  -23.0160   81.7330 C.3       4 GLP5        0.0000 
     44 CA        142.4550  -19.4995   75.4145 C.3       2 GLC5        0.0000 
     45 CA        142.7870  -21.1680   75.5380 C.3       6 GLL5        0.0000 
     46 CA        142.1230  -17.8310   75.2910 C.3       4 GLP5        0.0000 
     47 CA        144.5305  -20.3295   75.5370 C.3       2 GLC5        0.0000 
     48 CA        146.2740  -19.4910   75.5360 C.3       4 GLP5        0.0000 
     49 CA        142.4175  -20.2740   77.2705 C.3       2 GLC5        0.0000 
     50 CA        142.0480  -19.3800   79.0030 C.3       4 GLP5        0.0000 
     51 CA        146.5540  -27.0405   73.6310 C.3       2 GLC5        0.0000 
     52 CA        144.7620  -25.5750   73.1950 C.3       6 GLL5        0.0000 
     53 CA        147.8330  -28.6970   73.5210 C.3       4 GLP5        0.0000 
     54 CA        140.8117  -25.4902   72.2982 C.3       2 GLC5        0.0000 
     55 CA        142.7250  -26.7080   72.3990 C.3       6 GLL5        0.0000 
     56 CA        139.5150  -23.8370   72.1000 C.3       4 GLP5        0.0000 
     57 CA        146.6793  -21.5407   71.7710 C.3       2 GLC5        0.0000 
     58 CA        147.9480  -20.5950   72.2770 C.3       4 GLP5        0.0000 
     59 CA        147.4985  -24.3486   75.1681 C.3       2 GLC5        0.0000 
     60 CA        145.7880  -25.1930   74.2870 C.3       6 GLL5        0.0000 
     61 CA        144.1653  -24.2088   78.1033 C.3       2 GLC5        0.0000 
     62 CA        145.8380  -24.0870   76.5740 C.3       6 GLL5        0.0000 
     63 CA        142.7000  -24.8090   79.1530 C.3       4 GLP5        0.0000 
     64 CA        143.4203  -23.4965   77.8498 C.3       2 GLC5        0.0000 
     65 CA        144.4290  -22.1790   77.1940 C.3       6 GLL5        0.0000 
     66 CA        142.1991  -22.9129   74.7956 C.3       2 GLC5        0.0000 
     67 CA        143.8520  -22.1890   75.8990 C.3       6 GLL5        0.0000 
@<TRIPOS>BOND
@<TRIPOS>SUBSTRUCTURE
     1 ALC1       18 GROUP        1 X    ALC  0     ROOT ALC X 1
     2 GLC5        1 GROUP        1 X    GLC  0     **** GLC X 6
     3 ALP1       20 GROUP        1 Y    ALP  0     ROOT ALP Y 8
     4 GLP5        3 GROUP        1 Y    GLP  0     **** GLP Y 13
     5 ALL1       19 GROUP        1 Z    ALL  0     ROOT ALL Z 15
     6 GLL5        2 GROUP        1 Z    GLL  0     **** GLL Z 20
@<TRIPOS>SET

