#    Name: 2ban_357_1_ligand
#    Modification time : Mon Mar 24 20:28:33 2014

@<TRIPOS>MOLECULE
2ban_357_1_ligand
   52    53     1     0     0
SMALL
NO_CHARGES


@<TRIPOS>ATOM
      1 C2        144.0250  -25.4270   70.8470 C.2       1 357562      0.0000 
      2 C3        144.9720  -25.0850   71.8610 C.2       1 357562      0.0000 
      3 C4        144.7620  -25.5750   73.1950 C.2       1 357562      0.0000 
      4 C5        143.6280  -26.4190   73.4760 C.2       1 357562      0.0000 
      5 O8        144.1700  -25.0110   69.6430 O.2       1 357562      0.0000 
      6 C10       143.3770  -26.9830   74.8940 C.3       1 357562      0.0000 
      7 C11       142.3510  -26.1440   75.6740 C.3       1 357562      0.0000 
      8 C1'       145.2800  -24.1140   75.2780 C.ar      1 357562      0.0000 
      9 C7'       145.7880  -25.1930   74.2870 C.3       1 357562      0.0000 
     10 C6        142.7250  -26.7080   72.3990 C.2       1 357562      0.0000 
     11 C7        141.4920  -27.5790   72.5940 C.3       1 357562      0.0000 
     12 N1        142.9620  -26.2170   71.1440 N.am      1 357562      0.0000 
     13 N1'       146.1040  -24.2510   71.5790 N.3       1 357562      0.0000 
     14 C6'       147.1980  -24.8890   70.8460 C.3       1 357562      0.0000 
     15 C2'       145.8580  -22.9620   70.8520 C.3       1 357562      0.0000 
     16 C3'       144.9630  -22.0110   71.6780 C.3       1 357562      0.0000 
     17 O4'       144.7620  -20.8920   71.0080 O.3       1 357562      0.0000 
     18 C5'       144.0650  -19.8170   71.3260 C.3       1 357562      0.0000 
     19 C6B       145.8380  -24.0870   76.5740 C.ar      1 357562      0.0000 
     20 C5B       145.4230  -23.1300   77.5330 C.ar      1 357562      0.0000 
     21 C4'       144.4290  -22.1790   77.1940 C.ar      1 357562      0.0000 
     22 C3B       143.8520  -22.1890   75.8990 C.ar      1 357562      0.0000 
     23 C8'       142.7870  -21.1680   75.5380 C.3       1 357562      0.0000 
     24 C2B       144.2730  -23.1510   74.9380 C.ar      1 357562      0.0000 
     25 H         144.3205  -26.9950   75.4407 H         1 357562      0.0000 
     26 H         143.0112  -28.0067   74.8066 H         1 357562      0.0000 
     27 H         146.7011  -24.8235   73.8023 H         1 357562      0.0000 
     28 H         146.0545  -26.0943   74.8544 H         1 357562      0.0000 
     29 H         142.2822  -26.4675   70.3722 H         1 357562      0.0000 
     30 H         145.3636  -23.1569   69.8975 H         1 357562      0.0000 
     31 H         146.8053  -22.4559   70.6526 H         1 357562      0.0000 
     32 H         145.4839  -21.8816   72.6497 H         1 357562      0.0000 
     33 H         144.0418  -22.5888   71.9013 H         1 357562      0.0000 
     34 H         146.5602  -24.7744   76.8298 H         1 357562      0.0000 
     35 H         145.8378  -23.1258   78.4627 H         1 357562      0.0000 
     36 H         144.1287  -21.4881   77.8802 H         1 357562      0.0000 
     37 H         143.8624  -23.1594   74.0085 H         1 357562      0.0000 
     38 H         142.1929  -26.5094   76.5913 H         1 357562      0.0000 
     39 H         142.6523  -25.1968   75.7837 H         1 357562      0.0000 
     40 H         141.4645  -26.1179   75.2121 H         1 357562      0.0000 
     41 H         141.7324  -28.4990   72.9037 H         1 357562      0.0000 
     42 H         140.8692  -27.1939   73.2750 H         1 357562      0.0000 
     43 H         140.9719  -27.6817   71.7461 H         1 357562      0.0000 
     44 H         147.9548  -24.2560   70.6832 H         1 357562      0.0000 
     45 H         147.5722  -25.6713   71.3440 H         1 357562      0.0000 
     46 H         146.9000  -25.2255   69.9527 H         1 357562      0.0000 
     47 H         144.4064  -19.3868   72.1617 H         1 357562      0.0000 
     48 H         144.0998  -19.1251   70.6049 H         1 357562      0.0000 
     49 H         143.1005  -20.0318   71.4798 H         1 357562      0.0000 
     50 H         143.1281  -20.2314   75.6181 H         1 357562      0.0000 
     51 H         142.4652  -21.2834   74.5982 H         1 357562      0.0000 
     52 H         141.9864  -21.2403   76.1329 H         1 357562      0.0000 
@<TRIPOS>BOND
     1    2    1 1    
     2    5    1 2    
     3   12    1 am   
     4    3    2 2    
     5   13    2 1    
     6    4    3 1    
     7    9    3 1    
     8    6    4 1    
     9   10    4 2    
    10    7    6 1    
    11   25    6 1    
    12   26    6 1    
    13   38    7 1    
    14   39    7 1    
    15   40    7 1    
    16    9    8 1    
    17   19    8 ar   
    18   24    8 ar   
    19   27    9 1    
    20   28    9 1    
    21   11   10 1    
    22   12   10 1    
    23   41   11 1    
    24   42   11 1    
    25   43   11 1    
    26   29   12 1    
    27   14   13 1    
    28   15   13 1    
    29   44   14 1    
    30   45   14 1    
    31   46   14 1    
    32   16   15 1    
    33   30   15 1    
    34   31   15 1    
    35   17   16 1    
    36   32   16 1    
    37   33   16 1    
    38   18   17 1    
    39   47   18 1    
    40   48   18 1    
    41   49   18 1    
    42   20   19 ar   
    43   34   19 1    
    44   21   20 ar   
    45   35   20 1    
    46   22   21 ar   
    47   36   21 1    
    48   23   22 1    
    49   24   22 ar   
    50   50   23 1    
    51   51   23 1    
    52   52   23 1    
    53   37   24 1    
@<TRIPOS>SUBSTRUCTURE
     1 357562      1 GROUP   
@<TRIPOS>SET

