#    Name: 3o9f_K2D_1_INTS_M
#    Modification time : Tue Mar 25 03:25:19 2014

@<TRIPOS>MOLECULE
3o9f_K2D_1_INTS_M
  106     0     9     0     0
SMALL
NO_CHARGES


@<TRIPOS>ATOM
      1 CA         15.6665   36.3160   20.7280 C.3       3 GLC5        0.0000 
      2 CA         15.1490   36.9220   18.8820 C.3       9 GLL5        0.0000 
      3 CA         16.1840   35.7100   22.5740 C.3       6 GLP5        0.0000 
      4 CA         13.5725   36.1240   19.7125 C.3       3 GLC5        0.0000 
      5 CA         11.9960   35.3260   20.5430 C.3       6 GLP5        0.0000 
      6 CA         14.1220   37.8170   17.3300 C.3       3 GLC5        0.0000 
      7 CA         13.0950   38.7120   15.7780 C.3       6 GLP5        0.0000 
      8 N          14.3175   34.7810   20.0720 N.am      2 SEC2        0.0000 
      9 N          14.7710   35.5590   18.6410 N.am      8 SEL2        0.0000 
     10 N          13.8640   34.0030   21.5030 N.am      5 SEP2        0.0000 
     11 CA         16.2870   33.1540   18.9540 C.3       3 GLC5        0.0000 
     12 CA         15.4970   34.8340   17.7240 C.3       9 GLL5        0.0000 
     13 CA         17.0770   31.4740   20.1840 C.3       6 GLP5        0.0000 
     14 CA         14.2765   35.3530   16.0145 C.3       3 GLC5        0.0000 
     15 CA         13.0560   35.8720   14.3050 C.3       6 GLP5        0.0000 
     16 CA         15.2690   36.8305   15.8250 C.3       3 GLC5        0.0000 
     17 CA         16.4500   35.4730   16.9080 C.3       9 GLL5        0.0000 
     18 CA         14.0880   38.1880   14.7420 C.3       6 GLP5        0.0000 
     19 CA         15.7820   33.1585   14.0965 C.3       3 GLC5        0.0000 
     20 CA         16.9690   33.3300   15.8340 C.3       9 GLL5        0.0000 
     21 CA         14.5950   32.9870   12.3590 C.3       6 GLP5        0.0000 
     22 CA         15.2450   31.0410   15.5720 C.3       3 GLC5        0.0000 
     23 CA         16.0100   32.7130   16.6490 C.3       9 GLL5        0.0000 
     24 CA         14.4800   29.3690   14.4950 C.3       6 GLP5        0.0000 
     25 CA         21.1765   34.2175   13.7615 C.3       3 GLC5        0.0000 
     26 CA         21.9310   32.8190   15.0660 C.3       9 GLL5        0.0000 
     27 CA         20.4220   35.6160   12.4570 C.3       6 GLP5        0.0000 
     28 CA         22.7600   32.9525   19.1895 C.3       3 GLC5        0.0000 
     29 CA         22.0230   33.6720   17.4660 C.3       9 GLL5        0.0000 
     30 CA         23.4970   32.2330   20.9130 C.3       6 GLP5        0.0000 
     31 CA         17.4230   30.5910   17.9060 C.3       3 GLC5        0.0000 
     32 CA         18.8620   30.5570   16.2850 C.3       9 GLL5        0.0000 
     33 CA         15.9840   30.6250   19.5270 C.3       6 GLP5        0.0000 
     34 CA         22.8335   35.8380   15.5265 C.3       3 GLC5        0.0000 
     35 CA         21.8880   35.1200   17.0730 C.3       9 GLL5        0.0000 
     36 CA         23.7790   36.5560   13.9800 C.3       6 GLP5        0.0000 
     37 CA         23.6770   36.1340   17.8180 C.3       3 GLC5        0.0000 
     38 CA         25.4660   37.1480   18.5630 C.3       6 GLP5        0.0000 
     39 N          19.3155   27.8360   17.8595 N.am      2 SEC2        0.0000 
     40 N          19.8240   28.3360   16.5680 N.am      8 SEL2        0.0000 
     41 N          18.8070   27.3360   19.1510 N.am      5 SEP2        0.0000 
     42 O          20.7055   28.0215   17.4865 O.2       1 ALC1        0.0000 
     43 O          19.8240   28.3360   16.5680 O.2       7 ALL1        0.0000 
     44 O          21.5870   27.7070   18.4050 O.2       4 ALP1        0.0000 
     45 O          21.3925   28.7330   16.9850 O.2       1 ALC1        0.0000 
     46 O          22.9610   29.1300   17.4020 O.2       4 ALP1        0.0000 
     47 CA         24.5850   30.8665   14.9790 C.3       3 GLC5        0.0000 
     48 CA         23.3300   32.2530   14.9340 C.3       9 GLL5        0.0000 
     49 CA         25.8400   29.4800   15.0240 C.3       6 GLP5        0.0000 
     50 CA         24.1685   31.7550   13.1980 C.3       3 GLC5        0.0000 
     51 CA         25.0070   31.2570   11.4620 C.3       6 GLP5        0.0000 
     52 O          20.3855   26.7790   14.2670 O.2       1 ALC1        0.0000 
     53 O          20.6070   28.2910   13.8380 O.2       7 ALL1        0.0000 
     54 O          20.1640   25.2670   14.6960 O.2       4 ALP1        0.0000 
     55 CA         26.2215   25.8600   11.7390 C.3       3 GLC5        0.0000 
     56 CA         24.6300   27.2310   11.9960 C.3       9 GLL5        0.0000 
     57 CA         27.8130   24.4890   11.4820 C.3       6 GLP5        0.0000 
     58 CA         26.5015   27.9880   12.0475 C.3       3 GLC5        0.0000 
     59 CA         28.3730   28.7450   12.0990 C.3       6 GLP5        0.0000 
     60 CA         25.8505   28.0295   10.2840 C.3       3 GLC5        0.0000 
     61 CA         27.0710   28.8280    8.5720 C.3       6 GLP5        0.0000 
     62 CA         25.2350   28.3555   13.5100 C.3       3 GLC5        0.0000 
     63 N          25.3145   24.7025   12.4765 N.am      2 SEC2        0.0000 
     64 N          24.4260   25.8270   11.8710 N.am      8 SEL2        0.0000 
     65 N          26.2030   23.5780   13.0820 N.am      5 SEP2        0.0000 
     66 CA         23.2290   25.3805   12.9525 C.3       3 GLC5        0.0000 
     67 CA         23.5310   25.5490   10.7880 C.3       9 GLL5        0.0000 
     68 CA         22.9270   25.2120   15.1170 C.3       6 GLP5        0.0000 
     69 CA         23.7715   23.6680   11.2925 C.3       3 GLC5        0.0000 
     70 CA         24.0120   21.7870   11.7970 C.3       6 GLP5        0.0000 
     71 CA         25.6720   25.0190   11.1350 C.3       3 GLC5        0.0000 
     72 N          23.0350   23.9820   12.4115 N.am      2 SEC2        0.0000 
     73 N          22.5340   24.6020   11.1750 N.am      8 SEL2        0.0000 
     74 N          23.5360   23.3620   13.6480 N.am      5 SEP2        0.0000 
     75 CA         22.0855   25.2205   13.1375 C.3       3 GLC5        0.0000 
     76 CA         21.2440   25.2290   11.1580 C.3       9 GLL5        0.0000 
     77 CA         22.6280   23.5080   11.4775 C.3       3 GLC5        0.0000 
     78 CA         17.1050   25.4095   13.5340 C.3       3 GLC5        0.0000 
     79 CA         18.0840   26.5880   12.3280 C.3       9 GLL5        0.0000 
     80 CA         16.1260   24.2310   14.7400 C.3       6 GLP5        0.0000 
     81 CA         18.9080   29.5625    9.5805 C.3       3 GLC5        0.0000 
     82 CA         17.4090   28.5350   10.4790 C.3       9 GLL5        0.0000 
     83 CA         20.4070   30.5900    8.6820 C.3       6 GLP5        0.0000 
     84 CA         17.2705   30.4305    9.9495 C.3       3 GLC5        0.0000 
     85 CA         17.1320   32.3260    9.4200 C.3       6 GLP5        0.0000 
     86 CA         17.1330   30.8585   11.3160 C.3       3 GLC5        0.0000 
     87 CA         17.6150   28.8930   11.8130 C.3       9 GLL5        0.0000 
     88 CA         16.6510   32.8240   10.8190 C.3       6 GLP5        0.0000 
     89 CA         15.8135   31.8563   18.3205 C.3       3 GLC5        0.0000 
     90 CA         15.2760   33.4620   17.5790 C.3       9 GLL5        0.0000 
     91 CA         13.8321   33.1743   16.6081 C.3       3 GLC5        0.0000 
     92 CA         11.9660   32.9180   16.0660 C.3       6 GLP5        0.0000 
     93 CA         23.2047   34.5460   14.4900 C.3       3 GLC5        0.0000 
     94 CA         23.9795   26.8588   13.6427 C.3       3 GLC5        0.0000 
     95 CA         23.2980   27.7780   11.5230 C.3       9 GLL5        0.0000 
     96 CA         23.9950   26.2130   15.5260 C.3       6 GLP5        0.0000 
     97 CA         24.4855   29.3807   11.6107 C.3       3 GLC5        0.0000 
     98 CA         16.2145   26.3470   11.7185 C.3       3 GLC5        0.0000 
     99 CA         14.4500   26.2820   11.7700 C.3       6 GLP5        0.0000 
    100 CA         16.1370   28.1632    8.9995 C.3       3 GLC5        0.0000 
    101 CA         17.5310   27.2060   10.0850 C.3       9 GLL5        0.0000 
    102 CA         14.8040   28.4560    7.7170 C.3       6 GLP5        0.0000 
    103 CA         15.9600   27.0763   11.0260 C.3       3 GLC5        0.0000 
    104 CA         16.1193   27.3430   12.0232 C.3       3 GLC5        0.0000 
    105 CA         16.1649   28.9326   13.5671 C.3       3 GLC5        0.0000 
    106 CA         17.9620   27.9150   12.7400 C.3       9 GLL5        0.0000 
@<TRIPOS>BOND
@<TRIPOS>SUBSTRUCTURE
     1 ALC1       42 GROUP        1 X    ALC  0     ROOT ALC X 1
     2 SEC2        8 GROUP        1 X    SEC  0     **** SEC X 2
     3 GLC5        1 GROUP        1 X    GLC  0     **** GLC X 6
     4 ALP1       44 GROUP        1 Y    ALP  0     ROOT ALP Y 8
     5 SEP2       10 GROUP        1 Y    SEP  0     **** SEP Y 9
     6 GLP5        3 GROUP        1 Y    GLP  0     **** GLP Y 13
     7 ALL1       43 GROUP        1 Z    ALL  0     ROOT ALL Z 15
     8 SEL2        9 GROUP        1 Z    SEL  0     **** SEL Z 16
     9 GLL5        2 GROUP        1 Z    GLL  0     **** GLL Z 20
@<TRIPOS>SET

