#    Name: 3o9f_K2D_1_ligand
#    Modification time : Tue Mar 25 03:25:19 2014

@<TRIPOS>MOLECULE
3o9f_K2D_1_ligand
   83    86     1     0     0
SMALL
NO_CHARGES


@<TRIPOS>ATOM
      1 C1         15.1490   36.9220   18.8820 C.3       1 K2D200      0.0000 
      2 O1         14.7710   35.5590   18.6410 O.3       1 K2D200      0.0000 
      3 C2         15.4970   34.8340   17.7240 C.ar      1 K2D200      0.0000 
      4 C3         16.4500   35.4730   16.9080 C.ar      1 K2D200      0.0000 
      5 C4         17.1840   34.7020   15.9980 C.ar      1 K2D200      0.0000 
      6 C5         16.9690   33.3300   15.8340 C.ar      1 K2D200      0.0000 
      7 C6         16.0100   32.7130   16.6490 C.ar      1 K2D200      0.0000 
      8 C7         15.2760   33.4620   17.5790 C.ar      1 K2D200      0.0000 
      9 S8         17.9050   32.4670   14.7990 S.o2      1 K2D200      0.0000 
     10 O9         18.4970   33.3130   13.7890 O.2       1 K2D200      0.0000 
     11 O10        17.1750   31.3810   14.2430 O.2       1 K2D200      0.0000 
     12 N11        19.1630   31.8510   15.6290 N.pl3     1 K2D200      0.0000 
     13 C12        19.8450   32.8350   16.5200 C.3       1 K2D200      0.0000 
     14 C13        21.3720   32.6880   16.4850 C.3       1 K2D200      0.0000 
     15 C14        21.9310   32.8190   15.0660 C.3       1 K2D200      0.0000 
     16 C15        22.0230   33.6720   17.4660 C.3       1 K2D200      0.0000 
     17 C16        18.8620   30.5570   16.2850 C.3       1 K2D200      0.0000 
     18 C17        19.8240   29.5010   15.7260 C.3       1 K2D200      0.0000 
     19 C18        21.8880   35.1200   17.0730 C.3       1 K2D200      0.0000 
     20 O18        19.8240   28.3360   16.5680 O.3       1 K2D200      0.0000 
     21 C19        19.5010   29.0910   14.2980 C.3       1 K2D200      0.0000 
     22 C20        23.3300   32.2530   14.9340 C.3       1 K2D200      0.0000 
     23 N20        20.6070   28.2910   13.8380 N.am      1 K2D200      0.0000 
     24 C21        21.4980   28.6560   12.9190 C.2       1 K2D200      0.0000 
     25 O22        21.5780   29.7020   12.2980 O.2       1 K2D200      0.0000 
     26 O23        22.4490   27.6110   12.6550 O.3       1 K2D200      0.0000 
     27 C24        23.2980   27.7780   11.5230 C.3       1 K2D200      0.0000 
     28 C25        24.6300   27.2310   11.9960 C.3       1 K2D200      0.0000 
     29 O26        24.4260   25.8270   11.8710 O.3       1 K2D200      0.0000 
     30 C27        23.5310   25.5490   10.7880 C.3       1 K2D200      0.0000 
     31 O28        22.5340   24.6020   11.1750 O.3       1 K2D200      0.0000 
     32 C29        21.2440   25.2290   11.1580 C.3       1 K2D200      0.0000 
     33 C30        21.3720   26.4980   10.3230 C.3       1 K2D200      0.0000 
     34 C31        22.8500   26.8490   10.4090 C.3       1 K2D200      0.0000 
     35 C32        18.2070   28.2840   14.1910 C.3       1 K2D200      0.0000 
     36 C33        18.0840   26.5880   12.3280 C.ar      1 K2D200      0.0000 
     37 C34        17.8740   26.2360   11.0060 C.ar      1 K2D200      0.0000 
     38 C35        17.5310   27.2060   10.0850 C.ar      1 K2D200      0.0000 
     39 C36        17.4090   28.5350   10.4790 C.ar      1 K2D200      0.0000 
     40 C37        17.6150   28.8930   11.8130 C.ar      1 K2D200      0.0000 
     41 C38        17.9620   27.9150   12.7400 C.ar      1 K2D200      0.0000 
     42 H          16.5998   36.4744   16.9805 H         1 K2D200      0.0000 
     43 H          17.9171   35.1686   15.4224 H         1 K2D200      0.0000 
     44 H          15.8433   31.7014   16.5639 H         1 K2D200      0.0000 
     45 H          14.5662   32.9940   18.1611 H         1 K2D200      0.0000 
     46 H          19.5079   32.7015   17.5564 H         1 K2D200      0.0000 
     47 H          19.5886   33.8586   16.2167 H         1 K2D200      0.0000 
     48 H          21.6059   31.6687   16.8450 H         1 K2D200      0.0000 
     49 H          21.9388   33.8805   14.7857 H         1 K2D200      0.0000 
     50 H          21.2592   32.2972   14.3718 H         1 K2D200      0.0000 
     51 H          23.0939   33.4137   17.5596 H         1 K2D200      0.0000 
     52 H          21.5737   33.5175   18.4643 H         1 K2D200      0.0000 
     53 H          17.8469   30.2467   16.0727 H         1 K2D200      0.0000 
     54 H          19.0091   30.6265   17.3552 H         1 K2D200      0.0000 
     55 H          20.8306   29.9447   15.7230 H         1 K2D200      0.0000 
     56 H          19.4112   29.9803   13.6983 H         1 K2D200      0.0000 
     57 H          20.6820   27.3283   14.3003 H         1 K2D200      0.0000 
     58 H          23.4023   28.7402   11.2009 H         1 K2D200      0.0000 
     59 H          24.7819   27.5315   13.0079 H         1 K2D200      0.0000 
     60 H          25.3959   27.5902   11.3467 H         1 K2D200      0.0000 
     61 H          24.0758   25.2071    9.9233 H         1 K2D200      0.0000 
     62 H          20.9187   25.5106   12.1542 H         1 K2D200      0.0000 
     63 H          20.4930   24.5952   10.6978 H         1 K2D200      0.0000 
     64 H          20.7901   27.2739   10.7564 H         1 K2D200      0.0000 
     65 H          21.1069   26.2934    9.3148 H         1 K2D200      0.0000 
     66 H          23.2361   27.1517    9.4823 H         1 K2D200      0.0000 
     67 H          17.3820   28.8825   14.5596 H         1 K2D200      0.0000 
     68 H          18.2985   27.3829   14.7862 H         1 K2D200      0.0000 
     69 H          18.3342   25.8631   13.0211 H         1 K2D200      0.0000 
     70 H          17.9735   25.2547   10.7120 H         1 K2D200      0.0000 
     71 H          17.3636   26.9493    9.1001 H         1 K2D200      0.0000 
     72 H          17.1667   29.2568    9.7879 H         1 K2D200      0.0000 
     73 H          17.5109   29.8689   12.1047 H         1 K2D200      0.0000 
     74 H          16.0880   36.9930   19.2186 H         1 K2D200      0.0000 
     75 H          15.0928   37.4755   18.0510 H         1 K2D200      0.0000 
     76 H          14.5597   37.3559   19.5635 H         1 K2D200      0.0000 
     77 H          22.3222   35.7274   17.7382 H         1 K2D200      0.0000 
     78 H          22.3120   35.3053   16.1865 H         1 K2D200      0.0000 
     79 H          20.9300   35.3982   17.0036 H         1 K2D200      0.0000 
     80 H          23.6801   32.3418   14.0015 H         1 K2D200      0.0000 
     81 H          23.9778   32.7198   15.5360 H         1 K2D200      0.0000 
     82 H          23.3610   31.2811   15.1674 H         1 K2D200      0.0000 
     83 H          20.7436   28.2996   16.9593 H         1 K2D200      0.0000 
@<TRIPOS>BOND
     1    2    1 1    
     2   74    1 1    
     3   75    1 1    
     4   76    1 1    
     5    3    2 1    
     6    4    3 ar   
     7    8    3 ar   
     8    5    4 ar   
     9   42    4 1    
    10    6    5 ar   
    11   43    5 1    
    12    7    6 ar   
    13    9    6 1    
    14    8    7 ar   
    15   44    7 1    
    16   45    8 1    
    17   10    9 2    
    18   11    9 2    
    19   12    9 1    
    20   13   12 1    
    21   17   12 1    
    22   14   13 1    
    23   46   13 1    
    24   47   13 1    
    25   15   14 1    
    26   16   14 1    
    27   48   14 1    
    28   22   15 1    
    29   49   15 1    
    30   50   15 1    
    31   19   16 1    
    32   51   16 1    
    33   52   16 1    
    34   18   17 1    
    35   53   17 1    
    36   54   17 1    
    37   20   18 1    
    38   21   18 1    
    39   55   18 1    
    40   77   19 1    
    41   78   19 1    
    42   79   19 1    
    43   83   20 1    
    44   23   21 1    
    45   35   21 1    
    46   56   21 1    
    47   80   22 1    
    48   81   22 1    
    49   82   22 1    
    50   24   23 am   
    51   57   23 1    
    52   25   24 2    
    53   26   24 1    
    54   27   26 1    
    55   28   27 1    
    56   34   27 1    
    57   58   27 1    
    58   29   28 1    
    59   59   28 1    
    60   60   28 1    
    61   30   29 1    
    62   31   30 1    
    63   34   30 1    
    64   61   30 1    
    65   32   31 1    
    66   33   32 1    
    67   62   32 1    
    68   63   32 1    
    69   34   33 1    
    70   64   33 1    
    71   65   33 1    
    72   66   34 1    
    73   41   35 1    
    74   67   35 1    
    75   68   35 1    
    76   37   36 ar   
    77   41   36 ar   
    78   69   36 1    
    79   38   37 ar   
    80   70   37 1    
    81   39   38 ar   
    82   71   38 1    
    83   40   39 ar   
    84   72   39 1    
    85   41   40 ar   
    86   73   40 1    
@<TRIPOS>SUBSTRUCTURE
     1 K2D200      1 GROUP   
@<TRIPOS>SET

