#    Name: 1x8b_824_1_INTS_M
#    Modification time : Tue Mar 25 09:39:52 2014

@<TRIPOS>MOLECULE
1x8b_824_1_INTS_M
   46     0     9     0     0
SMALL
NO_CHARGES


@<TRIPOS>ATOM
      1 O           9.1505   55.6345   22.8805 O.2       1 ALC1        0.0000 
      2 O           8.1890   55.6520   21.9340 O.2       7 ALL1        0.0000 
      3 O          10.1120   55.6170   23.8270 O.2       4 ALP1        0.0000 
      4 N           8.6120   56.0500   26.7490 N.am      2 SEC2        0.0000 
      5 N           7.2990   55.6250   26.8410 N.am      8 SEL2        0.0000 
      6 N           9.9250   56.4750   26.6570 N.am      5 SEP2        0.0000 
      7 N           3.8070   55.0135   31.6025 N.am      2 SEC2        0.0000 
      8 N           4.3970   54.6230   30.1430 N.am      8 SEL2        0.0000 
      9 N           3.2170   55.4040   33.0620 N.am      5 SEP2        0.0000 
     10 O           6.9965   56.0580   29.3185 O.2       1 ALC1        0.0000 
     11 O           6.1320   55.1840   28.7310 O.2       7 ALL1        0.0000 
     12 O           7.8610   56.9320   29.9060 O.2       4 ALP1        0.0000 
     13 CA         -0.3265   55.8560   31.9685 C.3       3 GLC5        0.0000 
     14 CA          0.4900   54.4330   30.5090 C.3       9 GLL5        0.0000 
     15 CA         -1.1430   57.2790   33.4280 C.3       6 GLP5        0.0000 
     16 CA         -1.7275   54.0400   30.9170 C.3       3 GLC5        0.0000 
     17 CA         -0.2190   53.2380   30.4250 C.3       9 GLL5        0.0000 
     18 CA         -3.2360   54.8420   31.4090 C.3       6 GLP5        0.0000 
     19 CA          0.8780   50.6060   29.1625 C.3       3 GLC5        0.0000 
     20 CA          1.0200   52.5030   28.4650 C.3       9 GLL5        0.0000 
     21 CA          0.7360   48.7090   29.8600 C.3       6 GLP5        0.0000 
     22 CA          5.4843   56.6658   23.4255 C.3       3 GLC5        0.0000 
     23 CA          6.7120   55.1830   23.7850 C.3       9 GLL5        0.0000 
     24 CA          4.1020   58.1090   23.7560 C.3       6 GLP5        0.0000 
     25 CA          7.8235   53.8865   21.4005 C.3       3 GLC5        0.0000 
     26 CA          7.0210   55.2620   22.4050 C.3       9 GLL5        0.0000 
     27 CA          9.1140   52.7090   20.8820 C.3       6 GLP5        0.0000 
     28 CA          4.2172   56.2058   21.5312 C.3       3 GLC5        0.0000 
     29 CA          6.0450   54.8660   21.4330 C.3       9 GLL5        0.0000 
     30 CA          3.0290   57.7840   21.4710 C.3       6 GLP5        0.0000 
     31 CA          2.0105   55.6653   25.9565 C.3       3 GLC5        0.0000 
     32 CA          3.3430   54.0300   25.0930 C.3       9 GLL5        0.0000 
     33 CA          1.1500   57.4260   26.3120 C.3       6 GLP5        0.0000 
     34 CA          4.7065   56.4930   27.6353 C.3       3 GLC5        0.0000 
     35 CA          4.0930   54.4410   27.7600 C.3       9 GLL5        0.0000 
     36 CA          4.8500   58.3870   28.0300 C.3       6 GLP5        0.0000 
     37 CA          2.2812   55.8208   26.9665 C.3       3 GLC5        0.0000 
     38 CA         -0.4430   55.8807   30.0393 C.3       3 GLC5        0.0000 
     39 CA          1.4460   54.6840   29.4920 C.3       9 GLL5        0.0000 
     40 CA         -1.8540   57.2030   30.0780 C.3       6 GLP5        0.0000 
     41 CA          0.6035   51.0645   30.5400 C.3       3 GLC5        0.0000 
     42 CA          1.3000   49.3600   31.1410 C.3       6 GLP5        0.0000 
     43 CA          0.2157   54.6570   27.6048 C.3       3 GLC5        0.0000 
     44 CA         -0.8770   55.9690   26.4710 C.3       6 GLP5        0.0000 
     45 CA          4.2785   56.2653   24.0831 C.3       3 GLC5        0.0000 
     46 CA          4.6770   54.5540   25.3490 C.3       9 GLL5        0.0000 
@<TRIPOS>BOND
@<TRIPOS>SUBSTRUCTURE
     1 ALC1        1 GROUP        1 X    ALC  0     ROOT ALC X 1
     2 SEC2        4 GROUP        1 X    SEC  0     **** SEC X 2
     3 GLC5       13 GROUP        1 X    GLC  0     **** GLC X 6
     4 ALP1        3 GROUP        1 Y    ALP  0     ROOT ALP Y 8
     5 SEP2        6 GROUP        1 Y    SEP  0     **** SEP Y 9
     6 GLP5       15 GROUP        1 Y    GLP  0     **** GLP Y 13
     7 ALL1        2 GROUP        1 Z    ALL  0     ROOT ALL Z 15
     8 SEL2        5 GROUP        1 Z    SEL  0     **** SEL Z 16
     9 GLL5       14 GROUP        1 Z    GLL  0     **** GLL Z 20
@<TRIPOS>SET

