#    Name: 1x8b_824_1_ligand
#    Modification time : Tue Mar 25 09:39:52 2014

@<TRIPOS>MOLECULE
1x8b_824_1_ligand
   37    41     1     0     0
SMALL
NO_CHARGES


@<TRIPOS>ATOM
      1 O3          8.1890   55.6520   21.9340 O.3       1 824901      0.0000 
      2 C19         7.0210   55.2620   22.4050 C.ar      1 824901      0.0000 
      3 C20         6.0450   54.8660   21.4330 C.ar      1 824901      0.0000 
      4 C18         4.7660   54.3890   21.7500 C.ar      1 824901      0.0000 
      5 C16         4.4030   54.3550   23.1030 C.ar      1 824901      0.0000 
      6 C15         5.3970   54.7470   24.0960 C.ar      1 824901      0.0000 
      7 C17         6.7120   55.1830   23.7850 C.ar      1 824901      0.0000 
      8 C13         4.6770   54.5540   25.3490 C.ar      1 824901      0.0000 
      9 C14         3.3430   54.0300   25.0930 C.ar      1 824901      0.0000 
     10 N2          3.2710   53.9340   23.7350 N.pl3     1 824901      0.0000 
     11 C4          5.0330   54.7570   26.7210 C.ar      1 824901      0.0000 
     12 C5          6.2490   55.1870   27.3920 C.2       1 824901      0.0000 
     13 O1          7.2990   55.6250   26.8410 O.2       1 824901      0.0000 
     14 C3          4.0930   54.4410   27.7600 C.ar      1 824901      0.0000 
     15 C6          4.8590   54.7810   28.9710 C.2       1 824901      0.0000 
     16 O2          4.3970   54.6230   30.1430 O.2       1 824901      0.0000 
     17 N1          6.1320   55.1840   28.7310 N.am      1 824901      0.0000 
     18 C2          2.7320   53.9900   27.4820 C.ar      1 824901      0.0000 
     19 C1          2.3990   53.7790   26.1090 C.ar      1 824901      0.0000 
     20 C7          1.7480   53.6900   28.5320 C.ar      1 824901      0.0000 
     21 C8          1.4460   54.6840   29.4920 C.ar      1 824901      0.0000 
     22 C9          0.4900   54.4330   30.5090 C.ar      1 824901      0.0000 
     23 C10        -0.2190   53.2380   30.4250 C.ar      1 824901      0.0000 
     24 C11         0.0330   52.3000   29.4530 C.ar      1 824901      0.0000 
     25 C12         1.0200   52.5030   28.4650 C.ar      1 824901      0.0000 
     26 H           6.3180   54.9429   20.4222 H         1 824901      0.0000 
     27 H           4.1304   54.0816   21.0309 H         1 824901      0.0000 
     28 H           7.3676   55.4157   24.4869 H         1 824901      0.0000 
     29 H           2.4732   53.5915   23.2542 H         1 824901      0.0000 
     30 H           6.7873   55.4112   29.3709 H         1 824901      0.0000 
     31 H           1.4626   53.4418   25.8691 H         1 824901      0.0000 
     32 H           1.9191   55.5898   29.4538 H         1 824901      0.0000 
     33 H           0.3412   55.0926   31.2478 H         1 824901      0.0000 
     34 H          -0.9700   53.0543   31.1316 H         1 824901      0.0000 
     35 H          -0.5087   51.4129   29.4312 H         1 824901      0.0000 
     36 H           1.1842   51.8188   27.7499 H         1 824901      0.0000 
     37 H           8.8175   55.5796   22.7085 H         1 824901      0.0000 
@<TRIPOS>BOND
     1    2    1 1    
     2   37    1 1    
     3    3    2 ar   
     4    7    2 ar   
     5    4    3 ar   
     6   26    3 1    
     7    5    4 ar   
     8   27    4 1    
     9    6    5 ar   
    10   10    5 1    
    11    7    6 ar   
    12    8    6 1    
    13   28    7 1    
    14    9    8 ar   
    15   11    8 ar   
    16   10    9 1    
    17   19    9 ar   
    18   29   10 1    
    19   12   11 1    
    20   14   11 ar   
    21   13   12 2    
    22   17   12 am   
    23   15   14 1    
    24   18   14 ar   
    25   16   15 2    
    26   17   15 am   
    27   30   17 1    
    28   19   18 ar   
    29   20   18 1    
    30   31   19 1    
    31   21   20 ar   
    32   25   20 ar   
    33   22   21 ar   
    34   32   21 1    
    35   23   22 ar   
    36   33   22 1    
    37   24   23 ar   
    38   34   23 1    
    39   25   24 ar   
    40   35   24 1    
    41   36   25 1    
@<TRIPOS>SUBSTRUCTURE
     1 824901      1 GROUP   
@<TRIPOS>SET

