#    Name: 2QTA_2_CAVITY_N1_6.mol2
#    Modification time : Tue Mar 11 08:52:31 2014

@<TRIPOS>MOLECULE
2QTA_2_CAVITY_N1_6.mol2
   70     0     6     0     0
SMALL
NO_CHARGES


@<TRIPOS>ATOM
      1 N          29.5002  -27.0485   12.2653 N.2       2 ALA2        0.0000 
      2 CA         28.1895  -26.8726   11.5574 C.3       5 GLY6        0.0000 
      3 N          31.0866  -28.4527   12.1575 N.2       2 ALA2        0.0000 
      4 OG         30.4512  -27.4339   10.4087 O.2       1 SER1        0.0000 
      5 N          29.7759  -28.2768   11.4496 N.2       2 ALA2        0.0000 
      6 NZ         29.1404  -27.2580    9.7008 N.2       3 LYS4        0.0000 
      7 CA         28.4651  -28.1009   10.7418 C.3       5 GLY6        0.0000 
      8 NZ         32.0375  -28.8381   10.3008 N.2       3 LYS4        0.0000 
      9 NZ         31.3622  -29.6810   11.3418 N.2       3 LYS4        0.0000 
     10 N          30.6869  -30.5238   12.3828 N.2       2 ALA2        0.0000 
     11 N          30.0116  -31.3667   13.4237 N.2       2 ALA2        0.0000 
     12 CA         29.3363  -32.2095   14.4647 C.3       5 GLY6        0.0000 
     13 OG         30.0515  -29.5051   10.6339 O.2       1 SER1        0.0000 
     14 N          29.3762  -30.3479   11.6749 N.2       2 ALA2        0.0000 
     15 N          28.7009  -31.1907   12.7159 N.2       2 ALA2        0.0000 
     16 CA         28.0256  -32.0336   13.7568 C.3       5 GLY6        0.0000 
     17 NZ         28.7408  -29.3291    9.9261 N.2       3 LYS4        0.0000 
     18 CA         28.0655  -30.1720   10.9670 C.3       5 GLY6        0.0000 
     19 CA         27.3902  -31.0148   12.0080 C.3       5 GLY6        0.0000 
     20 NZ         31.6379  -30.9093   10.5261 N.2       3 LYS4        0.0000 
     21 OG         30.9626  -31.7521   11.5671 O.2       1 SER1        0.0000 
     22 OG         30.2873  -32.5949   12.6080 O.2       1 SER1        0.0000 
     23 CA         29.6120  -33.4378   13.6490 C.3       5 GLY6        0.0000 
     24 OG         29.6519  -31.5762   10.8592 O.2       1 SER1        0.0000 
     25 DU         28.9766  -32.4190   11.9002 H         6 CUB7        0.0000 
     26 CA         28.3013  -33.2619   12.9411 C.3       5 GLY6        0.0000 
     27 NZ         28.3412  -31.4003   10.1514 N.2       3 LYS4        0.0000 
     28 CA         27.6659  -32.2431   11.1923 C.3       5 GLY6        0.0000 
     29 NZ         27.0304  -31.2243    9.4435 N.2       3 LYS4        0.0000 
     30 CA         26.3551  -32.0672   10.4845 C.3       5 GLY6        0.0000 
     31 CA         25.6798  -32.9100   11.5254 C.3       5 GLY6        0.0000 
     32 NZ         25.0444  -31.8913    9.7766 N.2       3 LYS4        0.0000 
     33 CA         24.3691  -32.7341   10.8176 C.3       5 GLY6        0.0000 
     34 N          30.5630  -33.8232   11.7924 N.2       2 ALA2        0.0000 
     35 N          29.9275  -32.8045   10.0435 N.2       2 ALA2        0.0000 
     36 N          29.2522  -33.6473   11.0845 N.2       2 ALA2        0.0000 
     37 CA         28.5769  -34.4901   12.1255 C.3       5 GLY6        0.0000 
     38 CZ         28.6168  -32.6285    9.3357 C.ar      4 PHE5        0.0000 
     39 DU         27.9415  -33.4714   10.3766 H         6 CUB7        0.0000 
     40 CA         27.2662  -34.3142   11.4176 C.3       5 GLY6        0.0000 
     41 CZ         27.3061  -32.4526    8.6278 C.ar      4 PHE5        0.0000 
     42 DU         26.6308  -33.2955    9.6688 H         6 CUB7        0.0000 
     43 CA         25.9555  -34.1383   10.7097 C.3       5 GLY6        0.0000 
     44 CA         25.9954  -32.2767    7.9200 C.3       5 GLY6        0.0000 
     45 CA         25.3201  -33.1195    8.9609 C.3       5 GLY6        0.0000 
     46 CA         24.6448  -33.9624   10.0019 C.3       5 GLY6        0.0000 
     47 CA         24.0094  -32.9436    8.2531 C.3       5 GLY6        0.0000 
     48 N          29.5279  -34.8756   10.2688 N.2       2 ALA2        0.0000 
     49 CZ         28.8925  -33.8568    8.5200 C.ar      4 PHE5        0.0000 
     50 CZ         28.2172  -34.6997    9.5610 C.ar      4 PHE5        0.0000 
     51 CA         27.5419  -35.5425   10.6019 C.3       5 GLY6        0.0000 
     52 CZ         27.5817  -33.6809    7.8121 C.ar      4 PHE5        0.0000 
     53 DU         26.9064  -34.5237    8.8531 H         6 CUB7        0.0000 
     54 CA         26.2311  -35.3666    9.8941 C.3       5 GLY6        0.0000 
     55 CZ         26.9463  -32.6621    6.0633 C.ar      4 PHE5        0.0000 
     56 CZ         26.2710  -33.5050    7.1043 C.ar      4 PHE5        0.0000 
     57 NZ         25.5957  -34.3478    8.1452 N.2       3 LYS4        0.0000 
     58 CA         24.9204  -35.1907    9.1862 C.3       5 GLY6        0.0000 
     59 N          25.6356  -32.4862    5.3555 N.2       2 ALA2        0.0000 
     60 N          24.2850  -34.1719    7.4374 N.2       2 ALA2        0.0000 
     61 CZ         28.4928  -35.9279    8.7453 C.ar      4 PHE5        0.0000 
     62 O          27.8175  -36.7708    9.7862 O.2       2 ALA2        0.0000 
     63 CZ         27.8574  -34.9092    6.9965 C.ar      4 PHE5        0.0000 
     64 NZ         27.1821  -35.7520    8.0374 N.2       3 LYS4        0.0000 
     65 CA         26.5068  -36.5949    9.0784 C.3       5 GLY6        0.0000 
     66 CZ         27.2220  -33.8904    5.2476 C.ar      4 PHE5        0.0000 
     67 NZ         26.5467  -34.7333    6.2886 N.2       3 LYS4        0.0000 
     68 CA         25.1961  -36.4189    8.3705 C.3       5 GLY6        0.0000 
     69 N          25.9113  -33.7145    4.5398 N.2       2 ALA2        0.0000 
     70 NZ         25.2360  -34.5573    5.5807 N.2       3 LYS4        0.0000 
@<TRIPOS>BOND
@<TRIPOS>SUBSTRUCTURE
     1 SER1        4 GROUP   
     2 ALA2        1 GROUP   
     3 LYS4        6 GROUP   
     4 PHE5       38 GROUP   
     5 GLY6        2 GROUP   
     6 CUB7       25 GROUP   
@<TRIPOS>SET

