#    Name: 2qta_TDP_2_INTS_M
#    Modification time : Mon Mar 24 22:44:32 2014

@<TRIPOS>MOLECULE
2qta_TDP_2_INTS_M
   84     0    15     0     0
SMALL
NO_CHARGES


@<TRIPOS>ATOM
      1 CA         26.6705  -38.0050   10.4795 C.3       5 GLC5        0.0000 
      2 CA         27.5920  -37.4090    8.7320 C.3      15 GLL5        0.0000 
      3 CA         25.7490  -38.6010   12.2270 C.3      10 GLP5        0.0000 
      4 CA         28.7445  -37.9010    7.1750 C.3       5 GLC5        0.0000 
      5 CA         27.5650  -38.8490    8.3470 C.3      15 GLL5        0.0000 
      6 CA         29.9240  -36.9530    6.0030 C.3      10 GLP5        0.0000 
      7 CA         28.9525  -39.4055    9.8980 C.3       5 GLC5        0.0000 
      8 CA         30.3400  -39.9620   11.4490 C.3      10 GLP5        0.0000 
      9 CA         27.1200  -39.3300   10.3580 C.3       5 GLC5        0.0000 
     10 CA         26.6750  -39.8110   12.3690 C.3      10 GLP5        0.0000 
     11 N          28.1015  -38.2785   10.8135 N.am      2 SEC2        0.0000 
     12 N          28.2270  -37.0270    9.8540 N.am     12 SEL2        0.0000 
     13 N          27.9760  -39.5300   11.7730 N.am      7 SEP2        0.0000 
     14 O          29.4145  -36.4070   11.9700 O.2       1 ALC1        0.0000 
     15 O          28.8890  -35.3500   11.3120 O.2      11 ALL1        0.0000 
     16 O          29.9400  -37.4640   12.6280 O.2       6 ALP1        0.0000 
     17 CA         28.3915  -32.3200    7.9180 C.3       5 GLC5        0.0000 
     18 CA         27.6180  -33.1630    9.5770 C.3      15 GLL5        0.0000 
     19 CA         29.1650  -31.4770    6.2590 C.3      10 GLP5        0.0000 
     20 CA         26.9090  -31.5160   15.2485 C.3       5 GLC5        0.0000 
     21 CA         26.4690  -31.5970   13.0920 C.3      15 GLL5        0.0000 
     22 CA         27.3490  -31.4350   17.4050 C.3      10 GLP5        0.0000 
     23 CA         22.9915  -32.5470    8.5650 C.3       5 GLC5        0.0000 
     24 CA         24.6060  -33.2140    9.8630 C.3      15 GLL5        0.0000 
     25 CA         21.3770  -31.8800    7.2670 C.3      10 GLP5        0.0000 
     26 CA         25.0420  -31.5725    8.4235 C.3       5 GLC5        0.0000 
     27 CA         25.4780  -29.9310    6.9840 C.3      10 GLP5        0.0000 
     28 CA         24.9985  -34.5555   11.2905 C.3       5 GLC5        0.0000 
     29 CA         25.3910  -35.8970   12.7180 C.3      10 GLP5        0.0000 
     30 CA         23.4330  -30.3085   11.7295 C.3       5 GLC5        0.0000 
     31 CA         23.7050  -31.9150   12.6510 C.3      15 GLL5        0.0000 
     32 CA         23.1610  -28.7020   10.8080 C.3      10 GLP5        0.0000 
     33 N          23.3310  -34.0785   17.6605 N.am      2 SEC2        0.0000 
     34 N          22.3630  -33.1580   16.6400 N.am     12 SEL2        0.0000 
     35 N          24.2990  -34.9990   18.6810 N.am      7 SEP2        0.0000 
     36 Zn         19.5895  -32.8420   16.3340 Zn        4 ZIC7        0.0000 
     37 Zn         20.1260  -33.3930   15.5270 Zn       14 ZIL7        0.0000 
     38 Zn         19.0530  -32.2910   17.1410 Zn        9 ZIP7        0.0000 
     39 N          19.2850  -34.4345   15.1270 N.am      2 SEC2        0.0000 
     40 N          20.1260  -33.3930   15.5270 N.am     12 SEL2        0.0000 
     41 N          18.4440  -35.4760   14.7270 N.am      7 SEP2        0.0000 
     42 N          21.1345  -36.0860   14.3345 N.am      2 SEC2        0.0000 
     43 N          21.9290  -35.1220   15.1090 N.am     12 SEL2        0.0000 
     44 N          20.3400  -37.0500   13.5600 N.am      7 SEP2        0.0000 
     45 N          23.4250  -31.7055   19.5720 N.am      2 SEC2        0.0000 
     46 N          22.2570  -32.3960   19.0160 N.am     12 SEL2        0.0000 
     47 N          24.5930  -31.0150   20.1280 N.am      7 SEP2        0.0000 
     48 N          23.2780  -33.6975   18.8485 N.am      2 SEC2        0.0000 
     49 N          20.9905  -31.4530   19.4945 N.am      2 SEC2        0.0000 
     50 N          19.7240  -30.5100   19.9730 N.am      7 SEP2        0.0000 
     51 N          21.0520  -32.9540   18.8535 N.am      2 SEC2        0.0000 
     52 N          19.8470  -33.5120   18.6910 N.am      7 SEP2        0.0000 
     53 NZ         22.6095  -29.9140   16.5810 N.4       3 LYC4        0.0000 
     54 NZ         23.5540  -31.0910   17.3600 N.4      13 LYL4        0.0000 
     55 NZ         21.6650  -28.7370   15.8020 N.4       8 LYP4        0.0000 
     56 N          24.0735  -31.0530   18.7440 N.am      2 SEC2        0.0000 
     57 N          23.5540  -31.0910   17.3600 N.am     12 SEL2        0.0000 
     58 N          24.8595  -31.6095   17.3440 N.am      2 SEC2        0.0000 
     59 N          26.1650  -32.1280   17.3280 N.am      7 SEP2        0.0000 
     60 N          22.6095  -29.9140   16.5810 N.am      2 SEC2        0.0000 
     61 N          21.6650  -28.7370   15.8020 N.am      7 SEP2        0.0000 
     62 NZ         21.3600  -29.9370   16.5355 N.4       3 LYC4        0.0000 
     63 NZ         21.0550  -31.1370   17.2690 N.4      13 LYL4        0.0000 
     64 Zn         20.0540  -31.7140   17.2050 Zn        4 ZIC7        0.0000 
     65 Zn         21.0550  -31.1370   17.2690 Zn       14 ZIL7        0.0000 
     66 N          20.3895  -30.8235   18.6210 N.am      2 SEC2        0.0000 
     67 N          21.0550  -31.1370   17.2690 N.am     12 SEL2        0.0000 
     68 N          21.3600  -29.9370   16.5355 N.am      2 SEC2        0.0000 
     69 CA         26.6552  -35.5328   11.2387 C.3       5 GLC5        0.0000 
     70 CA         27.5850  -34.6700    9.3250 C.3      15 GLL5        0.0000 
     71 CA         26.6403  -33.3505   13.1653 C.3       5 GLC5        0.0000 
     72 CA         27.5280  -32.1770   11.9050 C.3      15 GLL5        0.0000 
     73 CA         26.2820  -34.8140   13.8320 C.3      10 GLP5        0.0000 
     74 CA         26.3113  -30.2630   11.7562 C.3       5 GLC5        0.0000 
     75 CA         25.6240  -28.6390   11.0140 C.3      10 GLP5        0.0000 
     76 CA         25.7855  -33.5910   12.6865 C.3       5 GLC5        0.0000 
     77 CA         25.4850  -32.6600   10.9490 C.3      15 GLL5        0.0000 
     78 CA         25.4565  -30.5035   11.2775 C.3       5 GLC5        0.0000 
     79 CA         25.0930  -32.0760   12.1330 C.3      15 GLL5        0.0000 
     80 CA         23.3623  -33.6630   11.0270 C.3       5 GLC5        0.0000 
     81 CA         21.7770  -34.5350   11.3520 C.3      10 GLP5        0.0000 
     82 CA         22.6863  -33.4535   12.2907 C.3       5 GLC5        0.0000 
     83 CA         24.9387  -33.5930   13.5308 C.3       5 GLC5        0.0000 
     84 CA         23.4860  -32.8290   13.8080 C.3      15 GLL5        0.0000 
@<TRIPOS>BOND
@<TRIPOS>SUBSTRUCTURE
     1 ALC1       14 GROUP        1 X    ALC  0     ROOT ALC X 1
     2 SEC2       11 GROUP        1 X    SEC  0     **** SEC X 2
     3 LYC4       53 GROUP        1 X    LYC  0     **** LYC X 4
     4 ZIC7       36 GROUP        1 X    ZIC  0     **** ZIC X 5
     5 GLC5        1 GROUP        1 X    GLC  0     **** GLC X 6
     6 ALP1       16 GROUP        1 Y    ALP  0     ROOT ALP Y 8
     7 SEP2       13 GROUP        1 Y    SEP  0     **** SEP Y 9
     8 LYP4       55 GROUP        1 Y    LYP  0     **** LYP Y 11
     9 ZIP7       38 GROUP        1 Y    ZIP  0     **** ZIP Y 12
    10 GLP5        3 GROUP        1 Y    GLP  0     **** GLP Y 13
    11 ALL1       15 GROUP        1 Z    ALL  0     ROOT ALL Z 15
    12 SEL2       12 GROUP        1 Z    SEL  0     **** SEL Z 16
    13 LYL4       54 GROUP        1 Z    LYL  0     **** LYL Z 18
    14 ZIL7       37 GROUP        1 Z    ZIL  0     **** ZIL Z 19
    15 GLL5        2 GROUP        1 Z    GLL  0     **** GLL Z 20
@<TRIPOS>SET

