#    Name: 2qta_TDP_2_ligand
#    Modification time : Mon Mar 24 22:44:33 2014

@<TRIPOS>MOLECULE
2qta_TDP_2_ligand
   42    43     1     0     0
SMALL
NO_CHARGES


@<TRIPOS>ATOM
      1 N1'        26.9500  -36.5110    7.8880 N.ar      1 TDP887      0.0000 
      2 C2'        27.5920  -37.4090    8.7320 C.ar      1 TDP887      0.0000 
      3 C2A        27.5650  -38.8490    8.3470 C.3       1 TDP887      0.0000 
      4 N3'        28.2270  -37.0270    9.8540 N.ar      1 TDP887      0.0000 
      5 C4'        28.2540  -35.6670   10.1940 C.ar      1 TDP887      0.0000 
      6 N4'        28.8890  -35.3500   11.3120 N.pl3     1 TDP887      0.0000 
      7 C5'        27.5850  -34.6700    9.3250 C.ar      1 TDP887      0.0000 
      8 C6'        26.9510  -35.1460    8.1970 C.ar      1 TDP887      0.0000 
      9 C35        27.6180  -33.1630    9.5770 C.3       1 TDP887      0.0000 
     10 N3         26.8960  -32.7000   10.8440 N.pl3     1 TDP887      0.0000 
     11 C2         27.5280  -32.1770   11.9050 C.2       1 TDP887      0.0000 
     12 S1         26.4690  -31.5970   13.0920 S.3       1 TDP887      0.0000 
     13 C5         25.0930  -32.0760   12.1330 C.2       1 TDP887      0.0000 
     14 C4         25.4850  -32.6600   10.9490 C.2       1 TDP887      0.0000 
     15 C4A        24.6060  -33.2140    9.8630 C.3       1 TDP887      0.0000 
     16 C5A        23.7050  -31.9150   12.6510 C.3       1 TDP887      0.0000 
     17 C5B        23.4860  -32.8290   13.8080 C.3       1 TDP887      0.0000 
     18 O5G        22.0960  -32.7630   14.1960 O.3       1 TDP887      0.0000 
     19 P1         21.5370  -33.6990   15.3700 P.3       1 TDP887      0.0000 
     20 O11        22.3630  -33.1580   16.6400 O.3       1 TDP887      0.0000 
     21 O12        20.1260  -33.3930   15.5270 O.co2     1 TDP887      0.0000 
     22 O13        21.9290  -35.1220   15.1090 O.co2     1 TDP887      0.0000 
     23 P2         22.3020  -31.8550   17.5680 P.3       1 TDP887      0.0000 
     24 O21        22.2570  -32.3960   19.0160 O.co2     1 TDP887      0.0000 
     25 O22        23.5540  -31.0910   17.3600 O.co2     1 TDP887      0.0000 
     26 O23        21.0550  -31.1370   17.2690 O.co2     1 TDP887      0.0000 
     27 H          29.2950  -36.1108   11.8183 H         1 TDP887      0.0000 
     28 H          28.9050  -34.3785   11.5486 H         1 TDP887      0.0000 
     29 H          26.4636  -34.4881    7.5605 H         1 TDP887      0.0000 
     30 H          27.1731  -32.6456    8.7050 H         1 TDP887      0.0000 
     31 H          28.6737  -32.8329    9.6286 H         1 TDP887      0.0000 
     32 H          28.4414  -32.0624   12.1329 H         1 TDP887      0.0000 
     33 H          22.9877  -32.1461   11.8591 H         1 TDP887      0.0000 
     34 H          23.5474  -30.8799   12.9653 H         1 TDP887      0.0000 
     35 H          24.1361  -32.5226   14.6326 H         1 TDP887      0.0000 
     36 H          23.7615  -33.8465   13.5159 H         1 TDP887      0.0000 
     37 H          27.9952  -39.0038    7.4576 H         1 TDP887      0.0000 
     38 H          28.0492  -39.4199    9.0101 H         1 TDP887      0.0000 
     39 H          26.6305  -39.1995    8.2856 H         1 TDP887      0.0000 
     40 H          24.7565  -32.7495    8.9903 H         1 TDP887      0.0000 
     41 H          24.7742  -34.1877    9.7096 H         1 TDP887      0.0000 
     42 H          23.6357  -33.1154   10.0840 H         1 TDP887      0.0000 
@<TRIPOS>BOND
     1    2    1 ar   
     2    8    1 ar   
     3    3    2 1    
     4    4    2 ar   
     5   37    3 1    
     6   38    3 1    
     7   39    3 1    
     8    5    4 ar   
     9    6    5 1    
    10    7    5 ar   
    11   27    6 1    
    12   28    6 1    
    13    8    7 ar   
    14    9    7 1    
    15   29    8 1    
    16   10    9 1    
    17   30    9 1    
    18   31    9 1    
    19   11   10 2    
    20   14   10 1    
    21   12   11 1    
    22   32   11 1    
    23   13   12 1    
    24   14   13 2    
    25   16   13 1    
    26   15   14 1    
    27   40   15 1    
    28   41   15 1    
    29   42   15 1    
    30   17   16 1    
    31   33   16 1    
    32   34   16 1    
    33   18   17 1    
    34   35   17 1    
    35   36   17 1    
    36   19   18 1    
    37   20   19 1    
    38   21   19 ar   
    39   22   19 ar   
    40   23   20 1    
    41   24   23 ar   
    42   25   23 ar   
    43   26   23 ar   
@<TRIPOS>SUBSTRUCTURE
     1 TDP887      1 GROUP   
@<TRIPOS>SET

