#    Name: 2uzd_C85_1_INTS_M
#    Modification time : Tue Mar 25 00:33:49 2014

@<TRIPOS>MOLECULE
2uzd_C85_1_INTS_M
   46     0     9     0     0
SMALL
NO_CHARGES


@<TRIPOS>ATOM
      1 N         127.5135  109.3355   34.3750 N.am      2 SEC2        0.0000 
      2 N         126.8230  109.3590   35.7470 N.am      8 SEL2        0.0000 
      3 N         128.2040  109.3120   33.0030 N.am      5 SEP2        0.0000 
      4 CA        123.5935  105.7070   35.4770 C.3       3 GLC5        0.0000 
      5 CA        125.5200  106.2940   34.4840 C.3       9 GLL5        0.0000 
      6 CA        121.6670  105.1200   36.4700 C.3       6 GLP5        0.0000 
      7 CA        125.4525  109.6365   32.9645 C.3       3 GLC5        0.0000 
      8 CA        124.1310  108.1960   33.9270 C.3       9 GLL5        0.0000 
      9 CA        126.7740  111.0770   32.0020 C.3       6 GLP5        0.0000 
     10 CA        126.0150  103.4985   30.5270 C.3       3 GLC5        0.0000 
     11 CA        124.0880  104.4570   30.8570 C.3       9 GLL5        0.0000 
     12 CA        127.9420  102.5400   30.1970 C.3       6 GLP5        0.0000 
     13 CA        119.9390  103.8435   27.5855 C.3       3 GLC5        0.0000 
     14 CA        121.2840  105.1710   28.7000 C.3       9 GLL5        0.0000 
     15 CA        118.5940  102.5160   26.4710 C.3       6 GLP5        0.0000 
     16 CA        119.5610  109.8060   27.0710 C.3       3 GLC5        0.0000 
     17 CA        119.6460  108.5660   28.5440 C.3       9 GLL5        0.0000 
     18 CA        119.4760  111.0460   25.5980 C.3       6 GLP5        0.0000 
     19 O         118.5390  110.8695   27.9925 O.2       1 ALC1        0.0000 
     20 O         119.1880  109.7740   28.8390 O.2       7 ALL1        0.0000 
     21 O         117.8900  111.9650   27.1460 O.2       4 ALP1        0.0000 
     22 CA        123.1460  104.8150   33.6322 C.3       3 GLC5        0.0000 
     23 CA        125.0330  105.6110   33.3650 C.3       9 GLL5        0.0000 
     24 CA        121.7280  103.7130   34.3140 C.3       6 GLP5        0.0000 
     25 CA        126.9843  106.6841   33.9026 C.3       3 GLC5        0.0000 
     26 CA        128.8040  107.0910   33.8120 C.3       6 GLP5        0.0000 
     27 CA        124.7918  107.9888   31.5445 C.3       3 GLC5        0.0000 
     28 CA        123.6420  107.5130   32.8230 C.3       9 GLL5        0.0000 
     29 CA        125.6970  108.1230   29.7140 C.3       6 GLP5        0.0000 
     30 CA        122.7850  104.3618   32.7283 C.3       3 GLC5        0.0000 
     31 CA        123.5960  105.5640   31.4280 C.3       9 GLL5        0.0000 
     32 CA        124.8885  106.9318   30.9516 C.3       3 GLC5        0.0000 
     33 CA        122.3570  102.8925   30.4917 C.3       3 GLC5        0.0000 
     34 CA        121.0120  101.4760   30.6570 C.3       6 GLP5        0.0000 
     35 CA        124.3195  105.4555   29.1097 C.3       3 GLC5        0.0000 
     36 CA        123.3160  104.1610   29.7960 C.3       9 GLL5        0.0000 
     37 CA        124.9370  106.6020   27.8930 C.3       6 GLP5        0.0000 
     38 CA        121.4153  103.3032   29.9322 C.3       3 GLC5        0.0000 
     39 CA        119.9559  105.2424   30.3821 C.3       3 GLC5        0.0000 
     40 CA        122.3530  105.0900   29.7150 C.3       9 GLL5        0.0000 
     41 CA        118.6780  104.7410   31.9180 C.3       6 GLP5        0.0000 
     42 CA        123.0854  106.1729   28.3696 C.3       3 GLC5        0.0000 
     43 CA        120.6490  106.3570   28.4850 C.3       9 GLL5        0.0000 
     44 CA        118.7625  107.4887   30.4770 C.3       3 GLC5        0.0000 
     45 CA        120.5000  107.5870   29.6280 C.3       9 GLL5        0.0000 
     46 CA        117.4520  106.9010   31.8680 C.3       6 GLP5        0.0000 
@<TRIPOS>BOND
@<TRIPOS>SUBSTRUCTURE
     1 ALC1       19 GROUP        1 X    ALC  0     ROOT ALC X 1
     2 SEC2        1 GROUP        1 X    SEC  0     **** SEC X 2
     3 GLC5        4 GROUP        1 X    GLC  0     **** GLC X 6
     4 ALP1       21 GROUP        1 Y    ALP  0     ROOT ALP Y 8
     5 SEP2        3 GROUP        1 Y    SEP  0     **** SEP Y 9
     6 GLP5        6 GROUP        1 Y    GLP  0     **** GLP Y 13
     7 ALL1       20 GROUP        1 Z    ALL  0     ROOT ALL Z 15
     8 SEL2        2 GROUP        1 Z    SEL  0     **** SEL Z 16
     9 GLL5        5 GROUP        1 Z    GLL  0     **** GLL Z 20
@<TRIPOS>SET

