#    Name: 2uzd_C85_1_ligand
#    Modification time : Tue Mar 25 00:33:49 2014

@<TRIPOS>MOLECULE
2uzd_C85_1_ligand
   35    37     1     0     0
SMALL
NO_CHARGES


@<TRIPOS>ATOM
      1 O4        126.1770  107.4780   37.1910 O.2       1 C851297     0.0000 
      2 S2        125.6860  108.4660   36.1630 S.o2      1 C851297     0.0000 
      3 O3        126.8230  109.3590   35.7470 O.2       1 C851297     0.0000 
      4 N6        124.4850  109.3770   36.8050 N.pl3     1 C851297     0.0000 
      5 C16       125.0720  107.5930   34.7590 C.ar      1 C851297     0.0000 
      6 C15       125.5200  106.2940   34.4840 C.ar      1 C851297     0.0000 
      7 C14       125.0330  105.6110   33.3650 C.ar      1 C851297     0.0000 
      8 C13       124.0950  106.2230   32.5360 C.ar      1 C851297     0.0000 
      9 C18       123.6420  107.5130   32.8230 C.ar      1 C851297     0.0000 
     10 C17       124.1310  108.1960   33.9270 C.ar      1 C851297     0.0000 
     11 C4        123.5960  105.5640   31.4280 C.2       1 C851297     0.0000 
     12 O2        122.5330  105.9560   30.7170 O.3       1 C851297     0.0000 
     13 C3        124.0880  104.4570   30.8570 C.2       1 C851297     0.0000 
     14 C2        123.3160  104.1610   29.7960 C.2       1 C851297     0.0000 
     15 C1        122.3530  105.0900   29.7150 C.2       1 C851297     0.0000 
     16 C6        121.2840  105.1710   28.7000 C.2       1 C851297     0.0000 
     17 C7        120.6490  106.3570   28.4850 C.2       1 C851297     0.0000 
     18 S1        120.5000  107.5870   29.6280 S.3       1 C851297     0.0000 
     19 C9        119.6460  108.5660   28.5440 C.2       1 C851297     0.0000 
     20 N3        119.1880  109.7740   28.8390 N.pl3     1 C851297     0.0000 
     21 N2        119.4820  107.9730   27.3410 N.am      1 C851297     0.0000 
     22 C8        120.0420  106.7190   27.2790 C.2       1 C851297     0.0000 
     23 O1        120.0090  106.0000   26.2820 O.2       1 C851297     0.0000 
     24 H         124.0964  110.0777   36.2067 H         1 C851297     0.0000 
     25 H         124.2286  109.1656   37.7482 H         1 C851297     0.0000 
     26 H         126.2032  105.8465   35.1024 H         1 C851297     0.0000 
     27 H         125.3660  104.6645   33.1575 H         1 C851297     0.0000 
     28 H         122.9425  107.9547   32.2102 H         1 C851297     0.0000 
     29 H         123.8006  109.1478   34.1337 H         1 C851297     0.0000 
     30 H         124.8596  103.9576   31.1519 H         1 C851297     0.0000 
     31 H         123.4364  103.4116   29.2000 H         1 C851297     0.0000 
     32 H         121.0606  104.3189   28.1917 H         1 C851297     0.0000 
     33 H         118.7403  110.2688   28.0942 H         1 C851297     0.0000 
     34 H         119.3315  110.0814   29.7797 H         1 C851297     0.0000 
     35 H         119.0096  108.3881   26.5758 H         1 C851297     0.0000 
@<TRIPOS>BOND
     1    2    1 2    
     2    3    2 2    
     3    4    2 1    
     4    5    2 1    
     5   24    4 1    
     6   25    4 1    
     7    6    5 ar   
     8   10    5 ar   
     9    7    6 ar   
    10   26    6 1    
    11    8    7 ar   
    12   27    7 1    
    13    9    8 ar   
    14   11    8 1    
    15   10    9 ar   
    16   28    9 1    
    17   29   10 1    
    18   12   11 1    
    19   13   11 2    
    20   15   12 1    
    21   14   13 1    
    22   30   13 1    
    23   15   14 2    
    24   31   14 1    
    25   16   15 1    
    26   17   16 2    
    27   32   16 1    
    28   18   17 1    
    29   22   17 1    
    30   19   18 1    
    31   20   19 2    
    32   21   19 1    
    33   33   20 1    
    34   34   20 1    
    35   22   21 am   
    36   35   21 1    
    37   23   22 2    
@<TRIPOS>SUBSTRUCTURE
     1 C851297     1 GROUP   
@<TRIPOS>SET

