#    Name: 2buf_ADP_11_INTS_M
#    Modification time : Mon Mar 24 21:44:11 2014

@<TRIPOS>MOLECULE
2buf_ADP_11_INTS_M
   53     0    15     0     0
SMALL
NO_CHARGES


@<TRIPOS>ATOM
      1 N         -34.6365   34.0200  -29.3235 N.am      2 SEC2        0.0000 
      2 N         -35.7910   34.8250  -29.2010 N.am     12 SEL2        0.0000 
      3 N         -33.4820   33.2150  -29.4460 N.am      7 SEP2        0.0000 
      4 N         -34.9910   36.1360  -29.3880 N.am      2 SEC2        0.0000 
      5 N         -34.1910   37.4470  -29.5750 N.am      7 SEP2        0.0000 
      6 NZ        -37.2560   37.4575  -26.1045 N.4       3 LYC4        0.0000 
      7 NZ        -36.1950   36.3780  -27.2240 N.4      13 LYL4        0.0000 
      8 NZ        -38.3170   38.5370  -24.9850 N.4       8 LYP4        0.0000 
      9 N         -35.1930   36.9125  -28.3995 N.am      2 SEC2        0.0000 
     10 N         -36.1950   36.3780  -27.2240 N.am     12 SEL2        0.0000 
     11 NZ        -38.2960   36.6460  -24.9720 N.4       3 LYC4        0.0000 
     12 NZ        -38.2750   34.7550  -24.9590 N.4      13 LYL4        0.0000 
     13 Zn        -37.6390   33.7245  -25.0640 Zn        4 ZIC7        0.0000 
     14 Zn        -38.2750   34.7550  -24.9590 Zn       14 ZIL7        0.0000 
     15 Zn        -37.0030   32.6940  -25.1690 Zn        9 ZIP7        0.0000 
     16 Zn        -37.2025   33.4970  -26.2570 Zn        4 ZIC7        0.0000 
     17 Zn        -37.4020   34.3000  -27.3450 Zn       14 ZIL7        0.0000 
     18 N         -38.7580   37.3185  -25.8965 N.am      2 SEC2        0.0000 
     19 N         -39.1990   36.1000  -26.8080 N.am     12 SEL2        0.0000 
     20 N         -38.3170   38.5370  -24.9850 N.am      7 SEP2        0.0000 
     21 CA        -41.4190   37.6580  -31.7885 C.3       5 GLC5        0.0000 
     22 CA        -41.2660   36.2260  -30.1860 C.3      15 GLL5        0.0000 
     23 CA        -41.5720   39.0900  -33.3910 C.3      10 GLP5        0.0000 
     24 CA        -43.7625   36.3760  -27.1710 C.3       5 GLC5        0.0000 
     25 CA        -43.2250   35.4950  -28.8670 C.3      15 GLL5        0.0000 
     26 CA        -44.3000   37.2570  -25.4750 C.3      10 GLP5        0.0000 
     27 N         -47.4050   35.8290  -26.9385 N.am      2 SEC2        0.0000 
     28 N         -46.6150   36.5640  -27.9550 N.am     12 SEL2        0.0000 
     29 N         -48.1950   35.0940  -25.9220 N.am      7 SEP2        0.0000 
     30 CA        -47.2735   40.6775  -27.6970 C.3       5 GLC5        0.0000 
     31 CA        -46.7260   39.0220  -28.4450 C.3      15 GLL5        0.0000 
     32 CA        -47.8210   42.3330  -26.9490 C.3      10 GLP5        0.0000 
     33 CA        -45.6810   38.8755  -26.8865 C.3       5 GLC5        0.0000 
     34 CA        -44.6360   38.7290  -25.3280 C.3      10 GLP5        0.0000 
     35 O         -48.3650   40.5815  -28.8510 O.2       1 ALC1        0.0000 
     36 O         -47.9670   39.4320  -28.0970 O.2      11 ALL1        0.0000 
     37 O         -48.7630   41.7310  -29.6050 O.2       6 ALP1        0.0000 
     38 N         -46.0740   41.4710  -29.3780 N.am      2 SEC2        0.0000 
     39 N         -45.9410   40.0820  -28.9460 N.am     12 SEL2        0.0000 
     40 N         -46.2070   42.8600  -29.8100 N.am      7 SEP2        0.0000 
     41 CA        -42.6525   40.3235  -29.7345 C.3       5 GLC5        0.0000 
     42 CA        -44.6170   39.8450  -29.3570 C.3      15 GLL5        0.0000 
     43 CA        -40.6880   40.8020  -30.1120 C.3      10 GLP5        0.0000 
     44 CA        -44.7875   41.5555  -28.5710 C.3       5 GLC5        0.0000 
     45 CA        -44.9580   43.2660  -27.7850 C.3      10 GLP5        0.0000 
     46 CA        -45.6810   41.1355  -30.7515 C.3       5 GLC5        0.0000 
     47 CA        -46.7450   42.4260  -32.1460 C.3      10 GLP5        0.0000 
     48 CA        -43.9165   39.8245  -27.5115 C.3       5 GLC5        0.0000 
     49 CA        -43.2160   39.8040  -25.6660 C.3      10 GLP5        0.0000 
     50 CA        -47.9640   37.7535  -27.0273 C.3       5 GLC5        0.0000 
     51 CA        -46.1140   37.7440  -28.3800 C.3      15 GLL5        0.0000 
     52 CA        -49.5080   37.1240  -25.6420 C.3      10 GLP5        0.0000 
     53 CA        -44.8705   37.4725  -27.0380 C.3       5 GLC5        0.0000 
@<TRIPOS>BOND
@<TRIPOS>SUBSTRUCTURE
     1 ALC1       35 GROUP        1 X    ALC  0     ROOT ALC X 1
     2 SEC2        1 GROUP        1 X    SEC  0     **** SEC X 2
     3 LYC4        6 GROUP        1 X    LYC  0     **** LYC X 4
     4 ZIC7       13 GROUP        1 X    ZIC  0     **** ZIC X 5
     5 GLC5       21 GROUP        1 X    GLC  0     **** GLC X 6
     6 ALP1       37 GROUP        1 Y    ALP  0     ROOT ALP Y 8
     7 SEP2        3 GROUP        1 Y    SEP  0     **** SEP Y 9
     8 LYP4        8 GROUP        1 Y    LYP  0     **** LYP Y 11
     9 ZIP7       15 GROUP        1 Y    ZIP  0     **** ZIP Y 12
    10 GLP5       23 GROUP        1 Y    GLP  0     **** GLP Y 13
    11 ALL1       36 GROUP        1 Z    ALL  0     ROOT ALL Z 15
    12 SEL2        2 GROUP        1 Z    SEL  0     **** SEL Z 16
    13 LYL4        7 GROUP        1 Z    LYL  0     **** LYL Z 18
    14 ZIL7       14 GROUP        1 Z    ZIL  0     **** ZIL Z 19
    15 GLL5       22 GROUP        1 Z    GLL  0     **** GLL Z 20
@<TRIPOS>SET

