#    Name: 2buf_ADP_11_ligand
#    Modification time : Mon Mar 24 21:44:11 2014

@<TRIPOS>MOLECULE
2buf_ADP_11_ligand
   38    40     1     0     0
SMALL
NO_CHARGES


@<TRIPOS>ATOM
      1 PB        -35.9820   34.8840  -27.6840 P.3       1 ADP1300     0.0000 
      2 O1B       -35.7910   34.8250  -29.2010 O.co2     1 ADP1300     0.0000 
      3 O2B       -34.9430   34.1610  -26.8720 O.co2     1 ADP1300     0.0000 
      4 O3B       -36.1950   36.3780  -27.2240 O.co2     1 ADP1300     0.0000 
      5 PA        -38.6440   34.6640  -26.3670 P.3       1 ADP1300     0.0000 
      6 O1A       -39.6820   33.6240  -26.6150 O.co2     1 ADP1300     0.0000 
      7 O2A       -38.2750   34.7550  -24.9590 O.co2     1 ADP1300     0.0000 
      8 O3A       -37.4020   34.3000  -27.3450 O.3       1 ADP1300     0.0000 
      9 O5'       -39.1990   36.1000  -26.8080 O.3       1 ADP1300     0.0000 
     10 C5'       -39.6500   36.4760  -28.1570 C.3       1 ADP1300     0.0000 
     11 C4'       -40.8760   35.7520  -28.7490 C.3       1 ADP1300     0.0000 
     12 O4'       -42.1480   35.9270  -28.0010 O.3       1 ADP1300     0.0000 
     13 C3'       -41.2660   36.2260  -30.1860 C.3       1 ADP1300     0.0000 
     14 O3'       -40.2770   35.5990  -31.0840 O.3       1 ADP1300     0.0000 
     15 C2'       -42.7120   35.6720  -30.3040 C.3       1 ADP1300     0.0000 
     16 O2'       -42.6630   34.3950  -31.0060 O.3       1 ADP1300     0.0000 
     17 C1'       -43.2250   35.4950  -28.8670 C.3       1 ADP1300     0.0000 
     18 N9        -44.4340   36.3150  -28.6450 N.pl3     1 ADP1300     0.0000 
     19 C8        -45.6050   35.7850  -28.1310 C.2       1 ADP1300     0.0000 
     20 N7        -46.6150   36.5640  -27.9550 N.2       1 ADP1300     0.0000 
     21 C5        -46.1140   37.7440  -28.3800 C.ar      1 ADP1300     0.0000 
     22 C6        -46.7260   39.0220  -28.4450 C.ar      1 ADP1300     0.0000 
     23 N6        -47.9670   39.4320  -28.0970 N.pl3     1 ADP1300     0.0000 
     24 N1        -45.9410   40.0820  -28.9460 N.ar      1 ADP1300     0.0000 
     25 C2        -44.6170   39.8450  -29.3570 C.ar      1 ADP1300     0.0000 
     26 N3        -43.9400   38.6840  -29.3370 N.ar      1 ADP1300     0.0000 
     27 C4        -44.7680   37.6320  -28.8220 C.ar      1 ADP1300     0.0000 
     28 H         -38.8042   36.3498  -28.8917 H         1 ADP1300     0.0000 
     29 H         -39.8692   37.5814  -28.1924 H         1 ADP1300     0.0000 
     30 H         -40.6729   34.6843  -28.8347 H         1 ADP1300     0.0000 
     31 H         -41.2665   37.2546  -30.1881 H         1 ADP1300     0.0000 
     32 H         -43.3010   36.3904  -30.8019 H         1 ADP1300     0.0000 
     33 H         -43.4343   34.4578  -28.7202 H         1 ADP1300     0.0000 
     34 H         -45.6233   34.7702  -27.9053 H         1 ADP1300     0.0000 
     35 H         -44.0955   40.7247  -29.7343 H         1 ADP1300     0.0000 
     36 H         -39.4094   35.6499  -30.5892 H         1 ADP1300     0.0000 
     37 H         -41.7241   34.3203  -31.3419 H         1 ADP1300     0.0000 
     38 H         -48.0005   40.3989  -28.3501 H         1 ADP1300     0.0000 
@<TRIPOS>BOND
     1    2    1 ar   
     2    3    1 ar   
     3    4    1 ar   
     4    8    1 1    
     5    6    5 ar   
     6    7    5 ar   
     7    8    5 1    
     8    9    5 1    
     9   10    9 1    
    10   11   10 1    
    11   28   10 1    
    12   29   10 1    
    13   12   11 1    
    14   13   11 1    
    15   30   11 1    
    16   17   12 1    
    17   14   13 1    
    18   15   13 1    
    19   31   13 1    
    20   36   14 1    
    21   16   15 1    
    22   17   15 1    
    23   32   15 1    
    24   37   16 1    
    25   18   17 1    
    26   33   17 1    
    27   19   18 1    
    28   27   18 1    
    29   20   19 2    
    30   34   19 1    
    31   21   20 1    
    32   22   21 ar   
    33   27   21 ar   
    34   23   22 1    
    35   24   22 ar   
    36   38   23 1    
    37   25   24 ar   
    38   26   25 ar   
    39   35   25 1    
    40   27   26 ar   
@<TRIPOS>SUBSTRUCTURE
     1 ADP1300     1 GROUP   
@<TRIPOS>SET

