#    Name: 1djn_ADP_1_INTS_M
#    Modification time : Mon Mar 24 22:02:24 2014

@<TRIPOS>MOLECULE
1djn_ADP_1_INTS_M
   64     0     9     0     0
SMALL
NO_CHARGES


@<TRIPOS>ATOM
      1 N          61.4345    7.1785    4.3880 N.am      2 SEC2        0.0000 
      2 N          61.7450    5.7360    4.3550 N.am      8 SEL2        0.0000 
      3 N          61.1240    8.6210    4.4210 N.am      5 SEP2        0.0000 
      4 N          63.1665    5.9730    4.3220 N.am      2 SEC2        0.0000 
      5 N          64.5880    6.2100    4.2890 N.am      5 SEP2        0.0000 
      6 N          61.9605    5.9545    6.5990 N.am      2 SEC2        0.0000 
      7 N          61.4700    4.5930    6.5670 N.am      8 SEL2        0.0000 
      8 N          62.4510    7.3160    6.6310 N.am      5 SEP2        0.0000 
      9 N          60.8245    4.3040    7.8635 N.am      2 SEC2        0.0000 
     10 N          60.1790    4.0150    9.1600 N.am      5 SEP2        0.0000 
     11 N          62.4520    4.4630    7.4055 N.am      2 SEC2        0.0000 
     12 N          63.4340    4.3330    8.2440 N.am      5 SEP2        0.0000 
     13 N          61.4820    2.3400    1.0070 N.am      2 SEC2        0.0000 
     14 N          61.5490    3.0380    2.2470 N.am      8 SEL2        0.0000 
     15 N          61.4150    1.6420   -0.2330 N.am      5 SEP2        0.0000 
     16 N          60.2430    2.5695    2.2040 N.am      2 SEC2        0.0000 
     17 N          58.9370    2.1010    2.1610 N.am      5 SEP2        0.0000 
     18 CA         64.1700    1.7630    5.2985 C.3       3 GLC5        0.0000 
     19 CA         65.0170    2.4680    3.7310 C.3       9 GLL5        0.0000 
     20 CA         63.3230    1.0580    6.8660 C.3       6 GLP5        0.0000 
     21 CA         67.3960    4.0140    3.3255 C.3       3 GLC5        0.0000 
     22 CA         66.2580    2.5420    2.8520 C.3       9 GLL5        0.0000 
     23 CA         68.5340    5.4860    3.7990 C.3       6 GLP5        0.0000 
     24 CA         64.7530    2.2920    0.5380 C.3       3 GLC5        0.0000 
     25 CA         66.2450    1.4490    1.8360 C.3       9 GLL5        0.0000 
     26 CA         63.2610    3.1350   -0.7600 C.3       6 GLP5        0.0000 
     27 O          67.7900    2.2470    0.1540 O.2       1 ALC1        0.0000 
     28 O          66.2690    2.0490    0.5500 O.2       7 ALL1        0.0000 
     29 O          69.3110    2.4450   -0.2420 O.2       4 ALP1        0.0000 
     30 O          67.2070    3.1230    0.4385 O.2       1 ALC1        0.0000 
     31 O          68.1450    4.1970    0.3270 O.2       4 ALP1        0.0000 
     32 O          68.7235    1.3675    0.3590 O.2       1 ALC1        0.0000 
     33 O          68.1360    0.2900    0.9600 O.2       7 ALL1        0.0000 
     34 CA         68.4340    3.5485    3.3385 C.3       3 GLC5        0.0000 
     35 CA         68.3340    1.6110    2.8780 C.3       9 GLL5        0.0000 
     36 CA         74.1425   -0.2365    4.1195 C.3       3 GLC5        0.0000 
     37 CA         72.5090    0.5130    5.1140 C.3       9 GLL5        0.0000 
     38 CA         75.7760   -0.9860    3.1250 C.3       6 GLP5        0.0000 
     39 CA         74.3745    1.6310    5.6650 C.3       3 GLC5        0.0000 
     40 CA         76.2400    2.7490    6.2160 C.3       6 GLP5        0.0000 
     41 O          74.5360   -0.1950    6.6765 O.2       1 ALC1        0.0000 
     42 O          73.0660   -0.1900    6.0900 O.2       7 ALL1        0.0000 
     43 O          76.0060   -0.2000    7.2630 O.2       4 ALP1        0.0000 
     44 N          74.6920    1.0675    4.5540 N.am      2 SEC2        0.0000 
     45 N          73.2200    1.3550    4.3650 N.am      8 SEL2        0.0000 
     46 N          76.1640    0.7800    4.7430 N.am      5 SEP2        0.0000 
     47 CA         72.5250    3.1395    4.9345 C.3       3 GLC5        0.0000 
     48 CA         72.6070    2.0890    3.4160 C.3       9 GLL5        0.0000 
     49 CA         72.4430    4.1900    6.4530 C.3       6 GLP5        0.0000 
     50 CA         72.1580    3.1625    1.8470 C.3       3 GLC5        0.0000 
     51 CA         71.7090    4.2360    0.2780 C.3       6 GLP5        0.0000 
     52 CA         72.9945    0.7630    2.1085 C.3       3 GLC5        0.0000 
     53 CA         73.3820   -0.5630    0.8010 C.3       6 GLP5        0.0000 
     54 CA         74.1915    0.5515    3.2705 C.3       3 GLC5        0.0000 
     55 CA         74.4380    2.9760    4.3165 C.3       3 GLC5        0.0000 
     56 CA         76.2690    3.8630    5.2170 C.3       6 GLP5        0.0000 
     57 CA         72.0065    0.3385    2.3310 C.3       3 GLC5        0.0000 
     58 CA         70.6310    1.2400    3.8610 C.3       9 GLL5        0.0000 
     59 CA         66.2943    2.3335    5.2767 C.3       3 GLC5        0.0000 
     60 CA         66.9510    2.1620    7.2620 C.3       6 GLP5        0.0000 
     61 CA         71.8336    2.5235    5.4378 C.3       3 GLC5        0.0000 
     62 CA         71.1260    0.4350    4.8540 C.3       9 GLL5        0.0000 
     63 CA         70.3121    1.4000    6.0918 C.3       3 GLC5        0.0000 
     64 CA         69.4000    1.9430    7.7610 C.3       6 GLP5        0.0000 
@<TRIPOS>BOND
@<TRIPOS>SUBSTRUCTURE
     1 ALC1       27 GROUP        1 X    ALC  0     ROOT ALC X 1
     2 SEC2        1 GROUP        1 X    SEC  0     **** SEC X 2
     3 GLC5       18 GROUP        1 X    GLC  0     **** GLC X 6
     4 ALP1       29 GROUP        1 Y    ALP  0     ROOT ALP Y 8
     5 SEP2        3 GROUP        1 Y    SEP  0     **** SEP Y 9
     6 GLP5       20 GROUP        1 Y    GLP  0     **** GLP Y 13
     7 ALL1       28 GROUP        1 Z    ALL  0     ROOT ALL Z 15
     8 SEL2        2 GROUP        1 Z    SEL  0     **** SEL Z 16
     9 GLL5       19 GROUP        1 Z    GLL  0     **** GLL Z 20
@<TRIPOS>SET

