#    Name: 1djn_ADP_1_ligand
#    Modification time : Mon Mar 24 22:02:25 2014

@<TRIPOS>MOLECULE
1djn_ADP_1_ligand
   39    41     1     0     0
SMALL
NO_CHARGES


@<TRIPOS>ATOM
      1 PB         61.2720    4.5600    5.1040 P.3       1 ADP803      0.0000 
      2 O1B        61.7450    5.7360    4.3550 O.co2     1 ADP803      0.0000 
      3 O2B        61.4700    4.5930    6.5670 O.co2     1 ADP803      0.0000 
      4 O3B        59.8700    4.2220    4.7010 O.co2     1 ADP803      0.0000 
      5 PA         62.3900    2.5010    3.3400 P.3       1 ADP803      0.0000 
      6 O1A        62.3320    1.0740    3.6400 O.co2     1 ADP803      0.0000 
      7 O2A        61.5490    3.0380    2.2470 O.co2     1 ADP803      0.0000 
      8 O3A        62.1500    3.2610    4.7410 O.3       1 ADP803      0.0000 
      9 O5'        63.8950    2.9210    3.0050 O.3       1 ADP803      0.0000 
     10 C5'        65.0170    2.4680    3.7310 C.3       1 ADP803      0.0000 
     11 C4'        66.2580    2.5420    2.8520 C.3       1 ADP803      0.0000 
     12 O4'        67.4160    2.3420    3.6830 O.3       1 ADP803      0.0000 
     13 C3'        66.2450    1.4490    1.8360 C.3       1 ADP803      0.0000 
     14 O3'        66.2690    2.0490    0.5500 O.3       1 ADP803      0.0000 
     15 C2'        67.4660    0.6560    2.1360 C.3       1 ADP803      0.0000 
     16 O2'        68.1360    0.2900    0.9600 O.3       1 ADP803      0.0000 
     17 C1'        68.3340    1.6110    2.8780 C.3       1 ADP803      0.0000 
     18 N9         69.2950    0.9590    3.7900 N.pl3     1 ADP803      0.0000 
     19 C8         69.0660   -0.0030    4.7460 C.2       1 ADP803      0.0000 
     20 N7         70.1230   -0.3550    5.4210 N.2       1 ADP803      0.0000 
     21 C5         71.1260    0.4350    4.8540 C.ar      1 ADP803      0.0000 
     22 C6         72.5090    0.5130    5.1140 C.ar      1 ADP803      0.0000 
     23 N6         73.0660   -0.1900    6.0900 N.pl3     1 ADP803      0.0000 
     24 N1         73.2200    1.3550    4.3650 N.ar      1 ADP803      0.0000 
     25 C2         72.6070    2.0890    3.4160 C.ar      1 ADP803      0.0000 
     26 N3         71.3190    2.1110    3.0870 N.ar      1 ADP803      0.0000 
     27 C4         70.6310    1.2400    3.8610 C.ar      1 ADP803      0.0000 
     28 H          64.9039    1.4261    4.0595 H         1 ADP803      0.0000 
     29 H          65.2055    3.0784    4.6243 H         1 ADP803      0.0000 
     30 H          66.2904    3.4877    2.3687 H         1 ADP803      0.0000 
     31 H          65.3798    0.8523    2.0024 H         1 ADP803      0.0000 
     32 H          67.2256   -0.1510    2.7660 H         1 ADP803      0.0000 
     33 H          68.8248    2.2586    2.1970 H         1 ADP803      0.0000 
     34 H          68.1408   -0.3817    4.8843 H         1 ADP803      0.0000 
     35 H          72.4491   -0.7703    6.6217 H         1 ADP803      0.0000 
     36 H          74.0527   -0.0764    6.2063 H         1 ADP803      0.0000 
     37 H          73.2680    2.7597    2.8379 H         1 ADP803      0.0000 
     38 H          66.9540    2.7746    0.6158 H         1 ADP803      0.0000 
     39 H          68.5104    1.1441    0.5990 H         1 ADP803      0.0000 
@<TRIPOS>BOND
     1    2    1 ar   
     2    3    1 ar   
     3    4    1 ar   
     4    8    1 1    
     5    6    5 ar   
     6    7    5 ar   
     7    8    5 1    
     8    9    5 1    
     9   10    9 1    
    10   11   10 1    
    11   28   10 1    
    12   29   10 1    
    13   12   11 1    
    14   13   11 1    
    15   30   11 1    
    16   17   12 1    
    17   14   13 1    
    18   15   13 1    
    19   31   13 1    
    20   38   14 1    
    21   16   15 1    
    22   17   15 1    
    23   32   15 1    
    24   39   16 1    
    25   18   17 1    
    26   33   17 1    
    27   19   18 1    
    28   27   18 1    
    29   20   19 2    
    30   34   19 1    
    31   21   20 1    
    32   22   21 ar   
    33   27   21 ar   
    34   23   22 1    
    35   24   22 ar   
    36   35   23 1    
    37   36   23 1    
    38   25   24 ar   
    39   26   25 ar   
    40   37   25 1    
    41   27   26 ar   
@<TRIPOS>SUBSTRUCTURE
     1 ADP803      1 GROUP   
@<TRIPOS>SET

