#    Name: 2hiz_LIJ_3_INTS_M
#    Modification time : Tue Mar 25 16:34:04 2014

@<TRIPOS>MOLECULE
2hiz_LIJ_3_INTS_M
   76     0    12     0     0
SMALL
NO_CHARGES


@<TRIPOS>ATOM
      1 CA        -49.5415   13.0035  100.4560 C.3       4 GLC5        0.0000 
      2 CA        -47.9560   14.4340  101.1090 C.3      12 GLL5        0.0000 
      3 CA        -51.1270   11.5730   99.8030 C.3       8 GLP5        0.0000 
      4 CA        -46.1995   15.4850   97.0385 C.3       4 GLC5        0.0000 
      5 CA        -46.6520   14.0750   98.6640 C.3      12 GLL5        0.0000 
      6 CA        -45.7470   16.8950   95.4130 C.3       8 GLP5        0.0000 
      7 CA        -40.9865   11.9550  101.0215 C.3       4 GLC5        0.0000 
      8 CA        -42.7630   12.1580   99.6990 C.3      12 GLL5        0.0000 
      9 CA        -39.2100   11.7520  102.3440 C.3       8 GLP5        0.0000 
     10 O         -43.3405   10.3940   97.3905 O.2       1 ALC1        0.0000 
     11 O         -42.5350    9.9180   98.6660 O.2       9 ALL1        0.0000 
     12 O         -44.1460   10.8700   96.1150 O.2       5 ALP1        0.0000 
     13 CA        -43.1620    7.7490  101.2655 C.3       4 GLC5        0.0000 
     14 CA        -44.8110    8.2610  100.2060 C.3      12 GLL5        0.0000 
     15 CA        -41.5130    7.2370  102.3250 C.3       8 GLP5        0.0000 
     16 CA        -35.8255    7.7430   97.3355 C.3       4 GLC5        0.0000 
     17 CA        -37.3470    8.8600   97.8270 C.3      12 GLL5        0.0000 
     18 CA        -34.3040    6.6260   96.8440 C.3       8 GLP5        0.0000 
     19 CA        -36.2515    9.5035   96.2160 C.3       4 GLC5        0.0000 
     20 CA        -35.1560   10.1470   94.6050 C.3       8 GLP5        0.0000 
     21 CA        -48.4055    9.5405   95.9005 C.3       4 GLC5        0.0000 
     22 CA        -47.8900   11.1190   96.3670 C.3      12 GLL5        0.0000 
     23 CA        -48.9210    7.9620   95.4340 C.3       8 GLP5        0.0000 
     24 CA        -49.1730   12.1425   99.0210 C.3       4 GLC5        0.0000 
     25 CA        -47.2190   12.7120   98.2390 C.3      12 GLL5        0.0000 
     26 N         -44.0805   14.8575   96.6985 N.am      2 SEC2        0.0000 
     27 N         -44.0710   14.6450   98.2470 N.am     10 SEL2        0.0000 
     28 N         -44.0900   15.0700   95.1500 N.am      6 SEP2        0.0000 
     29 CA        -43.4780   12.6640   97.3020 C.3       4 GLC5        0.0000 
     30 CA        -44.2550   12.2520   99.3200 C.3      12 GLL5        0.0000 
     31 CA        -42.7010   13.0760   95.2840 C.3       8 GLP5        0.0000 
     32 N         -41.8035   10.5675  102.5455 N.am      2 SEC2        0.0000 
     33 N         -41.9460   10.3120  100.8740 N.am     10 SEL2        0.0000 
     34 N         -41.6610   10.8230  104.2170 N.am      6 SEP2        0.0000 
     35 CA        -42.5715    6.7160   99.1765 C.3       4 GLC5        0.0000 
     36 CA        -43.5900    7.9210   97.8850 C.3      12 GLL5        0.0000 
     37 CA        -41.5530    5.5110  100.4680 C.3       8 GLP5        0.0000 
     38 CA        -43.6885    8.7755   95.9935 C.3       4 GLC5        0.0000 
     39 CA        -43.7870    9.6300   94.1020 C.3       8 GLP5        0.0000 
     40 O         -41.5755    6.2405   96.5360 O.2       1 ALC1        0.0000 
     41 O         -40.8830    6.8490   97.3390 O.2       9 ALL1        0.0000 
     42 O         -42.2680    5.6320   95.7330 O.2       5 ALP1        0.0000 
     43 OD1       -39.0450    9.4590   96.3020 O.co2     3 ASC3        0.0000 
     44 OD1       -38.6250    8.4510   97.2090 O.co2    11 ASL3        0.0000 
     45 OD1       -39.4650   10.4670   95.3950 O.co2     7 ASP3        0.0000 
     46 CA        -38.0175    9.2290  102.5570 C.3       4 GLC5        0.0000 
     47 CA        -36.6870    7.7290  101.6220 C.3      12 GLL5        0.0000 
     48 CA        -39.3480   10.7290  103.4920 C.3       8 GLP5        0.0000 
     49 CA        -38.0105   10.1590  101.3780 C.3       4 GLC5        0.0000 
     50 CA        -36.8110    8.5660  100.4120 C.3      12 GLL5        0.0000 
     51 CA        -38.6885    3.5165   97.8580 C.3       4 GLC5        0.0000 
     52 CA        -37.2600    3.4810   98.9900 C.3      12 GLL5        0.0000 
     53 CA        -40.1170    3.5520   96.7260 C.3       8 GLP5        0.0000 
     54 CA        -36.0070    3.3630   97.4825 C.3       4 GLC5        0.0000 
     55 CA        -34.7540    3.2450   95.9750 C.3       8 GLP5        0.0000 
     56 CA        -43.1395   14.0435  106.1315 C.3       4 GLC5        0.0000 
     57 CA        -41.7370   15.1440  106.7140 C.3      12 GLL5        0.0000 
     58 CA        -44.5420   12.9430  105.5490 C.3       8 GLP5        0.0000 
     59 CA        -47.8472    8.1902   96.9445 C.3       4 GLC5        0.0000 
     60 CA        -46.1660    8.2990   98.0630 C.3      12 GLL5        0.0000 
     61 CA        -41.1455    7.0254   99.2595 C.3       4 GLC5        0.0000 
     62 CA        -42.2710    8.4840   98.4710 C.3      12 GLL5        0.0000 
     63 CA        -48.7468   11.6062   94.9175 C.3       4 GLC5        0.0000 
     64 CA        -47.2550   12.4840   96.7090 C.3      12 GLL5        0.0000 
     65 CA        -49.9210   11.4110   93.2970 C.3       8 GLP5        0.0000 
     66 CA        -45.1562    6.1959   97.7441 C.3       4 GLC5        0.0000 
     67 CA        -45.1170    4.2230   97.3030 C.3       8 GLP5        0.0000 
     68 CA        -38.6080    6.9546  102.2481 C.3       4 GLC5        0.0000 
     69 CA        -37.3490    5.6410  100.2760 C.3      12 GLL5        0.0000 
     70 CA        -40.2970    7.0640  103.2260 C.3       8 GLP5        0.0000 
     71 CA        -40.1701   14.2632  103.6664 C.3       4 GLC5        0.0000 
     72 CA        -41.5440   14.9020  105.2940 C.3      12 GLL5        0.0000 
     73 CA        -38.8520   13.1230  102.8950 C.3       8 GLP5        0.0000 
     74 CA        -42.4946   13.9132  104.5029 C.3       4 GLC5        0.0000 
     75 CA        -41.3300   15.7910  102.8280 C.3      12 GLL5        0.0000 
     76 CA        -43.5010   12.4230  104.5680 C.3       8 GLP5        0.0000 
@<TRIPOS>BOND
@<TRIPOS>SUBSTRUCTURE
     1 ALC1       10 GROUP        1 X    ALC  0     ROOT ALC X 1
     2 SEC2       26 GROUP        1 X    SEC  0     **** SEC X 2
     3 ASC3       43 GROUP        1 X    ASC  0     **** ASC X 3
     4 GLC5        1 GROUP        1 X    GLC  0     **** GLC X 6
     5 ALP1       12 GROUP        1 Y    ALP  0     ROOT ALP Y 8
     6 SEP2       28 GROUP        1 Y    SEP  0     **** SEP Y 9
     7 ASP3       45 GROUP        1 Y    ASP  0     **** ASP Y 10
     8 GLP5        3 GROUP        1 Y    GLP  0     **** GLP Y 13
     9 ALL1       11 GROUP        1 Z    ALL  0     ROOT ALL Z 15
    10 SEL2       27 GROUP        1 Z    SEL  0     **** SEL Z 16
    11 ASL3       44 GROUP        1 Z    ASL  0     **** ASL Z 17
    12 GLL5        2 GROUP        1 Z    GLL  0     **** GLL Z 20
@<TRIPOS>SET

