#    Name: 2hiz_LIJ_3_ligand
#    Modification time : Tue Mar 25 16:34:04 2014

@<TRIPOS>MOLECULE
2hiz_LIJ_3_ligand
   95    97     1     0     0
SMALL
NO_CHARGES


@<TRIPOS>ATOM
      1 C4        -48.7740   15.4460  101.9750 C.3       1 LIJ803      0.0000 
      2 C5        -47.9560   14.4340  101.1090 C.3       1 LIJ803      0.0000 
      3 C6        -47.5850   14.9350   99.6450 C.3       1 LIJ803      0.0000 
      4 C7        -46.6520   14.0750   98.6640 C.3       1 LIJ803      0.0000 
      5 C10       -42.7630   12.1580   99.6990 C.3       1 LIJ803      0.0000 
      6 N12       -42.5350    9.9180   98.6660 N.am      1 LIJ803      0.0000 
      7 C13       -42.2710    8.4840   98.4710 C.3       1 LIJ803      0.0000 
      8 C15       -44.8600    8.1560   98.7300 C.ar      1 LIJ803      0.0000 
      9 C17       -47.3810    8.5380   98.8470 C.ar      1 LIJ803      0.0000 
     10 C20       -44.8110    8.2610  100.2060 C.ar      1 LIJ803      0.0000 
     11 C21       -41.0810    8.2250   97.5210 C.3       1 LIJ803      0.0000 
     12 C22       -39.8000    8.7250   98.1060 C.3       1 LIJ803      0.0000 
     13 C24       -37.3470    8.8600   97.8270 C.3       1 LIJ803      0.0000 
     14 C26       -37.4610    6.5080   99.0830 C.ar      1 LIJ803      0.0000 
     15 C28       -36.9530    6.2820  101.5610 C.ar      1 LIJ803      0.0000 
     16 C1        -47.8900   11.1190   96.3670 C.3       1 LIJ803      0.0000 
     17 C2        -47.2550   12.4840   96.7090 C.3       1 LIJ803      0.0000 
     18 C3        -47.2190   12.7120   98.2390 C.3       1 LIJ803      0.0000 
     19 S8        -44.8880   13.9690   99.2200 S.o2      1 LIJ803      0.0000 
     20 O8B       -44.0710   14.6450   98.2470 O.2       1 LIJ803      0.0000 
     21 O8A       -44.8530   14.5790  100.5250 O.2       1 LIJ803      0.0000 
     22 C9        -44.2550   12.2520   99.3200 C.3       1 LIJ803      0.0000 
     23 C11       -42.3800   10.6960   99.7630 C.2       1 LIJ803      0.0000 
     24 O11       -41.9460   10.3120  100.8740 O.2       1 LIJ803      0.0000 
     25 C14       -43.5900    7.9210   97.8850 C.3       1 LIJ803      0.0000 
     26 C16       -46.1660    8.2990   98.0630 C.ar      1 LIJ803      0.0000 
     27 C18       -47.3020    8.6410  100.3060 C.ar      1 LIJ803      0.0000 
     28 C19       -46.0180    8.5010  100.9750 C.ar      1 LIJ803      0.0000 
     29 O21       -40.8830    6.8490   97.3390 O.3       1 LIJ803      0.0000 
     30 N23       -38.6250    8.4510   97.2090 N.4       1 LIJ803      0.0000 
     31 C25       -37.1990    7.9680   99.1200 C.ar      1 LIJ803      0.0000 
     32 C27       -37.3490    5.6410  100.2760 C.ar      1 LIJ803      0.0000 
     33 O27       -37.6330    4.2810  100.1410 O.3       1 LIJ803      0.0000 
     34 C29       -36.6870    7.7290  101.6220 C.ar      1 LIJ803      0.0000 
     35 C30       -36.8110    8.5660  100.4120 C.ar      1 LIJ803      0.0000 
     36 C31       -37.2600    3.4810   98.9900 C.3       1 LIJ803      0.0000 
     37 N40       -42.5960   12.9010  100.8990 N.am      1 LIJ803      0.0000 
     38 C41       -41.9120   14.1130  101.0510 C.2       1 LIJ803      0.0000 
     39 O42       -41.3600   14.6840  100.1000 O.2       1 LIJ803      0.0000 
     40 O43       -41.9510   14.5680  102.3710 O.3       1 LIJ803      0.0000 
     41 C44       -41.3300   15.7910  102.8280 C.3       1 LIJ803      0.0000 
     42 C45       -41.5350   16.0190  104.3350 C.ar      1 LIJ803      0.0000 
     43 C46       -41.7150   17.3690  104.8470 C.ar      1 LIJ803      0.0000 
     44 C47       -41.9070   17.6090  106.2650 C.ar      1 LIJ803      0.0000 
     45 C48       -41.9170   16.4990  107.2050 C.ar      1 LIJ803      0.0000 
     46 C49       -41.7370   15.1440  106.7140 C.ar      1 LIJ803      0.0000 
     47 C50       -41.5440   14.9020  105.2940 C.ar      1 LIJ803      0.0000 
     48 H         -48.5297   13.5028  101.0111 H         1 LIJ803      0.0000 
     49 H         -47.0198   14.1936  101.6301 H         1 LIJ803      0.0000 
     50 H         -47.1157   15.9536   99.7416 H         1 LIJ803      0.0000 
     51 H         -48.5485   15.1335   99.0978 H         1 LIJ803      0.0000 
     52 H         -46.5119   14.7016   97.7255 H         1 LIJ803      0.0000 
     53 H         -42.2232   12.6233   98.8692 H         1 LIJ803      0.0000 
     54 H         -42.9167   10.3966   97.7553 H         1 LIJ803      0.0000 
     55 H         -42.1018    8.0042   99.4085 H         1 LIJ803      0.0000 
     56 H         -48.2662    8.6310   98.3843 H         1 LIJ803      0.0000 
     57 H         -43.9207    8.1626  100.6715 H         1 LIJ803      0.0000 
     58 H         -41.2610    8.7275   96.5955 H         1 LIJ803      0.0000 
     59 H         -39.6293    8.2457   99.0817 H         1 LIJ803      0.0000 
     60 H         -39.8745    9.8084   98.2830 H         1 LIJ803      0.0000 
     61 H         -37.3672    9.8812   98.1386 H         1 LIJ803      0.0000 
     62 H         -36.5150    8.6497   97.1914 H         1 LIJ803      0.0000 
     63 H         -37.7301    6.0854   98.1947 H         1 LIJ803      0.0000 
     64 H         -36.8691    5.7188  102.3848 H         1 LIJ803      0.0000 
     65 H         -47.8385   13.2745   96.2469 H         1 LIJ803      0.0000 
     66 H         -46.2406   12.5121   96.3229 H         1 LIJ803      0.0000 
     67 H         -48.2426   12.6113   98.6324 H         1 LIJ803      0.0000 
     68 H         -46.6150   11.9137   98.6981 H         1 LIJ803      0.0000 
     69 H         -44.9091   11.8137  100.0517 H         1 LIJ803      0.0000 
     70 H         -44.4694   11.8759   98.3362 H         1 LIJ803      0.0000 
     71 H         -43.4662    6.8318   97.7269 H         1 LIJ803      0.0000 
     72 H         -43.7448    8.3643   96.8819 H         1 LIJ803      0.0000 
     73 H         -46.2207    8.2315   97.0606 H         1 LIJ803      0.0000 
     74 H         -48.1364    8.8083  100.8401 H         1 LIJ803      0.0000 
     75 H         -45.9678    8.5716  101.9819 H         1 LIJ803      0.0000 
     76 H         -36.4190    8.1516  102.4927 H         1 LIJ803      0.0000 
     77 H         -36.6293    9.5524  100.4693 H         1 LIJ803      0.0000 
     78 H         -43.0449   12.4817  101.7777 H         1 LIJ803      0.0000 
     79 H         -41.7402   16.6686  102.3000 H         1 LIJ803      0.0000 
     80 H         -40.2433   15.7823  102.6377 H         1 LIJ803      0.0000 
     81 H         -41.7059   18.1519  104.2024 H         1 LIJ803      0.0000 
     82 H         -42.0347   18.5527  106.6033 H         1 LIJ803      0.0000 
     83 H         -42.0474   16.6692  108.1856 H         1 LIJ803      0.0000 
     84 H         -41.7459   14.3691  107.3595 H         1 LIJ803      0.0000 
     85 H         -41.4140   13.9605  104.9534 H         1 LIJ803      0.0000 
     86 H         -48.2775   16.3031  102.1127 H         1 LIJ803      0.0000 
     87 H         -49.6478   15.6788  101.5480 H         1 LIJ803      0.0000 
     88 H         -48.9797   15.0775  102.8816 H         1 LIJ803      0.0000 
     89 H         -47.9163   10.9584   95.3803 H         1 LIJ803      0.0000 
     90 H         -47.3813   10.3603   96.7740 H         1 LIJ803      0.0000 
     91 H         -48.8307   11.0532   96.6998 H         1 LIJ803      0.0000 
     92 H         -36.2695    3.4660   98.8534 H         1 LIJ803      0.0000 
     93 H         -37.5570    2.5310   99.0860 H         1 LIJ803      0.0000 
     94 H         -37.6670    3.8315   98.1465 H         1 LIJ803      0.0000 
     95 H         -41.7696    6.4977   97.0383 H         1 LIJ803      0.0000 
@<TRIPOS>BOND
     1    2    1 1    
     2   86    1 1    
     3   87    1 1    
     4   88    1 1    
     5    3    2 1    
     6   48    2 1    
     7   49    2 1    
     8    4    3 1    
     9   50    3 1    
    10   51    3 1    
    11   18    4 1    
    12   19    4 1    
    13   52    4 1    
    14   22    5 1    
    15   23    5 1    
    16   37    5 1    
    17   53    5 1    
    18    7    6 1    
    19   23    6 am   
    20   54    6 1    
    21   11    7 1    
    22   25    7 1    
    23   55    7 1    
    24   10    8 ar   
    25   25    8 1    
    26   26    8 ar   
    27   26    9 ar   
    28   27    9 ar   
    29   56    9 1    
    30   28   10 ar   
    31   57   10 1    
    32   12   11 1    
    33   29   11 1    
    34   58   11 1    
    35   30   12 1    
    36   59   12 1    
    37   60   12 1    
    38   30   13 1    
    39   31   13 1    
    40   61   13 1    
    41   62   13 1    
    42   31   14 ar   
    43   32   14 ar   
    44   63   14 1    
    45   32   15 ar   
    46   34   15 ar   
    47   64   15 1    
    48   17   16 1    
    49   89   16 1    
    50   90   16 1    
    51   91   16 1    
    52   18   17 1    
    53   65   17 1    
    54   66   17 1    
    55   67   18 1    
    56   68   18 1    
    57   20   19 2    
    58   21   19 2    
    59   22   19 1    
    60   69   22 1    
    61   70   22 1    
    62   24   23 2    
    63   71   25 1    
    64   72   25 1    
    65   73   26 1    
    66   28   27 ar   
    67   74   27 1    
    68   75   28 1    
    69   95   29 1    
    70   35   31 ar   
    71   33   32 1    
    72   36   33 1    
    73   35   34 ar   
    74   76   34 1    
    75   77   35 1    
    76   92   36 1    
    77   93   36 1    
    78   94   36 1    
    79   38   37 am   
    80   78   37 1    
    81   39   38 2    
    82   40   38 1    
    83   41   40 1    
    84   42   41 1    
    85   79   41 1    
    86   80   41 1    
    87   43   42 ar   
    88   47   42 ar   
    89   44   43 ar   
    90   81   43 1    
    91   45   44 ar   
    92   82   44 1    
    93   46   45 ar   
    94   83   45 1    
    95   47   46 ar   
    96   84   46 1    
    97   85   47 1    
@<TRIPOS>SUBSTRUCTURE
     1 LIJ803      1 GROUP   
@<TRIPOS>SET

