#    Name: 3hub_469_1_INTS_M
#    Modification time : Tue Mar 25 15:05:13 2014

@<TRIPOS>MOLECULE
3hub_469_1_INTS_M
   81     0     6     0     0
SMALL
NO_CHARGES


@<TRIPOS>ATOM
      1 CA         24.2020    7.1390  -26.5375 C.3       2 GLC5        0.0000 
      2 CA         23.3340    7.5090  -27.9140 C.3       6 GLL5        0.0000 
      3 CA         25.0700    6.7690  -25.1610 C.3       4 GLP5        0.0000 
      4 CA         24.2275    8.3985  -26.2705 C.3       2 GLC5        0.0000 
      5 CA         23.3850   10.0280  -27.3800 C.3       6 GLL5        0.0000 
      6 CA         21.5530    3.5895  -26.1935 C.3       2 GLC5        0.0000 
      7 CA         19.8400    4.3680  -25.0650 C.3       6 GLL5        0.0000 
      8 CA         23.2660    2.8110  -27.3220 C.3       4 GLP5        0.0000 
      9 CA         17.6660    6.4495  -21.6270 C.3       2 GLC5        0.0000 
     10 CA         16.9630    7.8460  -23.1960 C.3       6 GLL5        0.0000 
     11 CA         18.3690    5.0530  -20.0580 C.3       4 GLP5        0.0000 
     12 CA         15.3585    4.6165  -23.4870 C.3       2 GLC5        0.0000 
     13 CA         17.4620    4.7540  -23.6110 C.3       6 GLL5        0.0000 
     14 CA         13.2550    4.4790  -23.3630 C.3       4 GLP5        0.0000 
     15 CA         15.0790    3.3185  -23.3710 C.3       2 GLC5        0.0000 
     16 CA         16.9030    2.1580  -23.3790 C.3       6 GLL5        0.0000 
     17 CA         16.1655    0.8175  -24.3735 C.3       2 GLC5        0.0000 
     18 CA         15.4280   -0.5230  -25.3680 C.3       4 GLP5        0.0000 
     19 CA         15.9900    0.7145  -22.5285 C.3       2 GLC5        0.0000 
     20 CA         15.0770   -0.7290  -21.6780 C.3       4 GLP5        0.0000 
     21 N          19.8400    0.9995  -27.4745 N.am      1 SEC2        0.0000 
     22 N          19.8200    1.5200  -26.0970 N.am      5 SEL2        0.0000 
     23 N          19.8600    0.4790  -28.8520 N.am      3 SEP2        0.0000 
     24 N          19.4240    2.2570  -27.2720 N.am      1 SEC2        0.0000 
     25 N          19.0280    2.9940  -28.4470 N.am      3 SEP2        0.0000 
     26 CA         18.7930   -2.8020  -24.1925 C.3       2 GLC5        0.0000 
     27 CA         19.4290   -1.2350  -23.4520 C.3       6 GLL5        0.0000 
     28 CA         18.1570   -4.3690  -24.9330 C.3       4 GLP5        0.0000 
     29 CA         17.4285   -0.8790  -24.4100 C.3       2 GLC5        0.0000 
     30 CA         19.4885    2.4550  -20.6460 C.3       2 GLC5        0.0000 
     31 CA         19.7190    1.6610  -22.4870 C.3       6 GLL5        0.0000 
     32 CA         19.2580    3.2490  -18.8050 C.3       4 GLP5        0.0000 
     33 CA         23.3265    3.8410  -22.6845 C.3       2 GLC5        0.0000 
     34 CA         21.9300    2.5430  -22.0670 C.3       6 GLL5        0.0000 
     35 CA         24.7230    5.1390  -23.3020 C.3       4 GLP5        0.0000 
     36 CA         23.8035    2.2805  -21.7855 C.3       2 GLC5        0.0000 
     37 CA         25.6770    2.0180  -21.5040 C.3       4 GLP5        0.0000 
     38 CA         21.9870    1.3995  -19.4910 C.3       2 GLC5        0.0000 
     39 CA         22.2790   -0.3190  -20.7460 C.3       6 GLL5        0.0000 
     40 CA         21.6950    3.1180  -18.2360 C.3       4 GLP5        0.0000 
     41 CA         23.7510    0.7500  -19.9450 C.3       2 GLC5        0.0000 
     42 CA         25.2230    1.8190  -19.1440 C.3       4 GLP5        0.0000 
     43 CA         24.8840   -0.0060  -21.4435 C.3       2 GLC5        0.0000 
     44 CA         24.0910   -2.0300  -21.3830 C.3       6 GLL5        0.0000 
     45 CA         24.4395   -1.0060  -22.9840 C.3       2 GLC5        0.0000 
     46 CA         24.7880    0.0180  -24.5850 C.3       4 GLP5        0.0000 
     47 CA         24.7850   -7.4310  -21.2355 C.3       2 GLC5        0.0000 
     48 CA         24.1680   -5.7040  -21.0340 C.3       6 GLL5        0.0000 
     49 CA         25.4020   -9.1580  -21.4370 C.3       4 GLP5        0.0000 
     50 CA         23.5315   -5.4715  -22.8445 C.3       2 GLC5        0.0000 
     51 CA         22.8950   -5.2390  -24.6550 C.3       4 GLP5        0.0000 
     52 CA         20.9185   -5.0255  -21.6180 C.3       2 GLC5        0.0000 
     53 CA         22.4350   -4.1580  -20.4980 C.3       6 GLL5        0.0000 
     54 CA         19.4020   -5.8930  -22.7380 C.3       4 GLP5        0.0000 
     55 CA         19.4827    5.3590  -26.7050 C.3       2 GLC5        0.0000 
     56 CA         19.4060    5.6500  -24.7460 C.3       6 GLL5        0.0000 
     57 CA         19.3070    4.4350  -28.5430 C.3       4 GLP5        0.0000 
     58 CA         17.3813    5.6865  -25.7748 C.3       2 GLC5        0.0000 
     59 CA         15.9520    5.6200  -27.1650 C.3       4 GLP5        0.0000 
     60 CA         19.3867    4.1312  -26.6968 C.3       2 GLC5        0.0000 
     61 CA         16.8182    4.8670  -25.4615 C.3       2 GLC5        0.0000 
     62 CA         17.9070    3.4740  -23.9050 C.3       6 GLL5        0.0000 
     63 CA         22.9402   -0.1225  -24.0460 C.3       2 GLC5        0.0000 
     64 CA         20.5040   -0.2380  -23.9710 C.3       6 GLL5        0.0000 
     65 CA         21.3574   -2.2635  -23.9013 C.3       2 GLC5        0.0000 
     66 CA         21.6810   -0.2880  -23.0430 C.3       6 GLL5        0.0000 
     67 CA         22.4540   -3.7780  -24.3230 C.3       4 GLP5        0.0000 
     68 CA         20.9753    2.9140  -20.3578 C.3       2 GLC5        0.0000 
     69 CA         20.8870    1.5350  -21.5500 C.3       6 GLL5        0.0000 
     70 CA         20.5420    3.7890  -18.9070 C.3       4 GLP5        0.0000 
     71 CA         22.9470   -2.8407  -22.7258 C.3       2 GLC5        0.0000 
     72 CA         22.7890   -1.7770  -20.8740 C.3       6 GLL5        0.0000 
     73 CA         25.5883   -2.2947  -20.0850 C.3       2 GLC5        0.0000 
     74 CA         26.8560   -1.8970  -18.7590 C.3       4 GLP5        0.0000 
     75 CA         23.2965   -3.8315  -22.7673 C.3       2 GLC5        0.0000 
     76 CA         23.7280   -4.4150  -20.9840 C.3       6 GLL5        0.0000 
     77 CA         25.5802   -5.6442  -20.3014 C.3       2 GLC5        0.0000 
     78 CA         27.0070   -6.4940  -19.4800 C.3       4 GLP5        0.0000 
     79 CA         22.9573   -6.3324  -19.7082 C.3       2 GLC5        0.0000 
     80 CA         22.7230   -8.0560  -18.6630 C.3       4 GLP5        0.0000 
     81 CA         22.3275   -3.6368  -22.3930 C.3       2 GLC5        0.0000 
@<TRIPOS>BOND
@<TRIPOS>SUBSTRUCTURE
     1 SEC2       21 GROUP        1 X    SEC  0     ROOT SEC X 2
     2 GLC5        1 GROUP        1 X    GLC  0     **** GLC X 6
     3 SEP2       23 GROUP        1 Y    SEP  0     ROOT SEP Y 9
     4 GLP5        3 GROUP        1 Y    GLP  0     **** GLP Y 13
     5 SEL2       22 GROUP        1 Z    SEL  0     ROOT SEL Z 16
     6 GLL5        2 GROUP        1 Z    GLL  0     **** GLL Z 20
@<TRIPOS>SET

