#    Name: 3hub_469_1_ligand
#    Modification time : Tue Mar 25 15:05:13 2014

@<TRIPOS>MOLECULE
3hub_469_1_ligand
   67    70     1     0     0
SMALL
NO_CHARGES


@<TRIPOS>ATOM
      1 CAC        23.3340    7.5090  -27.9140 C.3       1 469361      0.0000 
      2 NBG        22.7820    8.6990  -27.1480 N.am      1 469361      0.0000 
      3 CAD        23.3850   10.0280  -27.3800 C.3       1 469361      0.0000 
      4 CAV        21.7490    8.5850  -26.2310 C.2       1 469361      0.0000 
      5 OAG        21.3040    9.5420  -25.5950 O.2       1 469361      0.0000 
      6 CAU        21.1240    7.1880  -25.8850 C.2       1 469361      0.0000 
      7 OAF        21.5210    6.2570  -26.5740 O.2       1 469361      0.0000 
      8 CBB        19.9110    6.9160  -24.9880 C.2       1 469361      0.0000 
      9 CBC        19.4060    5.6500  -24.7460 C.ar      1 469361      0.0000 
     10 CAP        19.8400    4.3680  -25.0650 C.ar      1 469361      0.0000 
     11 CAQ        19.0510    7.8340  -24.5030 C.2       1 469361      0.0000 
     12 NBJ        18.0400    7.1880  -23.9040 N.pl3     1 469361      0.0000 
     13 CAE        16.9630    7.8460  -23.1960 C.3       1 469361      0.0000 
     14 CBD        18.2150    5.8560  -24.0230 C.ar      1 469361      0.0000 
     15 CAO        17.4620    4.7540  -23.6110 C.ar      1 469361      0.0000 
     16 CAY        17.9070    3.4740  -23.9050 C.ar      1 469361      0.0000 
     17 CLA        16.9030    2.1580  -23.3790 Cl        1 469361      0.0000 
     18 CBA        19.0930    3.2870  -24.6360 C.ar      1 469361      0.0000 
     19 CAW        19.6330    1.8900  -24.9520 C.2       1 469361      0.0000 
     20 OAH        19.8200    1.5200  -26.0970 O.2       1 469361      0.0000 
     21 NBI        19.9810    1.1290  -23.8830 N.am      1 469361      0.0000 
     22 CBF        20.5040   -0.2380  -23.9710 C.3       1 469361      0.0000 
     23 CAS        21.6810   -0.2880  -23.0430 C.3       1 469361      0.0000 
     24 CAB        19.4290   -1.2350  -23.4520 C.3       1 469361      0.0000 
     25 CAT        19.7190    1.6610  -22.4870 C.3       1 469361      0.0000 
     26 CBE        20.8870    1.5350  -21.5500 C.3       1 469361      0.0000 
     27 CAA        21.9300    2.5430  -22.0670 C.3       1 469361      0.0000 
     28 NBH        21.2560    0.1040  -21.6760 N.4       1 469361      0.0000 
     29 CAR        22.2790   -0.3190  -20.7460 C.3       1 469361      0.0000 
     30 CAZ        22.7890   -1.7770  -20.8740 C.ar      1 469361      0.0000 
     31 CAM        24.0910   -2.0300  -21.3830 C.ar      1 469361      0.0000 
     32 CAK        24.5500   -3.3550  -21.4390 C.ar      1 469361      0.0000 
     33 CAX        23.7280   -4.4150  -20.9840 C.ar      1 469361      0.0000 
     34 FAI        24.1680   -5.7040  -21.0340 F         1 469361      0.0000 
     35 CAL        22.4350   -4.1580  -20.4980 C.ar      1 469361      0.0000 
     36 CAN        21.9670   -2.8330  -20.4280 C.ar      1 469361      0.0000 
     37 H          20.6950    4.2317  -25.6062 H         1 469361      0.0000 
     38 H          19.1500    8.7928  -24.5766 H         1 469361      0.0000 
     39 H          16.5879    4.8952  -23.0956 H         1 469361      0.0000 
     40 H          20.7853   -0.4920  -24.9404 H         1 469361      0.0000 
     41 H          22.4548    0.3931  -23.4028 H         1 469361      0.0000 
     42 H          22.0895   -1.3005  -23.0307 H         1 469361      0.0000 
     43 H          18.8482    1.1262  -22.0601 H         1 469361      0.0000 
     44 H          19.4231    2.7256  -22.5617 H         1 469361      0.0000 
     45 H          20.5713    1.7814  -20.5858 H         1 469361      0.0000 
     46 H          20.3335   -0.5032  -21.4517 H         1 469361      0.0000 
     47 H          21.9297   -0.1916  -19.6857 H         1 469361      0.0000 
     48 H          23.1818    0.3458  -20.8186 H         1 469361      0.0000 
     49 H          24.6717   -1.2622  -21.6980 H         1 469361      0.0000 
     50 H          25.4817   -3.5623  -21.8091 H         1 469361      0.0000 
     51 H          21.8369   -4.9288  -20.1967 H         1 469361      0.0000 
     52 H          21.0377   -2.6352  -20.0567 H         1 469361      0.0000 
     53 H          24.3028    7.3579  -27.7176 H         1 469361      0.0000 
     54 H          22.8528    6.6633  -27.6834 H         1 469361      0.0000 
     55 H          23.2513    7.6330  -28.9028 H         1 469361      0.0000 
     56 H          24.3598   10.0376  -27.1569 H         1 469361      0.0000 
     57 H          23.3000   10.3128  -28.3348 H         1 469361      0.0000 
     58 H          22.9499   10.7356  -26.8232 H         1 469361      0.0000 
     59 H          17.3014    8.3926  -22.4300 H         1 469361      0.0000 
     60 H          16.4492    8.4631  -23.7920 H         1 469361      0.0000 
     61 H          16.3091    7.1889  -22.8209 H         1 469361      0.0000 
     62 H          19.7475   -2.1818  -23.4980 H         1 469361      0.0000 
     63 H          19.1838   -1.0542  -22.4995 H         1 469361      0.0000 
     64 H          18.5855   -1.1832  -23.9867 H         1 469361      0.0000 
     65 H          22.7600    2.5376  -21.5093 H         1 469361      0.0000 
     66 H          22.2070    2.3419  -23.0066 H         1 469361      0.0000 
     67 H          21.5777    3.4789  -22.0592 H         1 469361      0.0000 
@<TRIPOS>BOND
     1    2    1 1    
     2   53    1 1    
     3   54    1 1    
     4   55    1 1    
     5    3    2 1    
     6    4    2 am   
     7   56    3 1    
     8   57    3 1    
     9   58    3 1    
    10    5    4 2    
    11    6    4 1    
    12    7    6 2    
    13    8    6 1    
    14    9    8 1    
    15   11    8 2    
    16   10    9 ar   
    17   14    9 ar   
    18   18   10 ar   
    19   37   10 1    
    20   12   11 1    
    21   38   11 1    
    22   13   12 1    
    23   14   12 1    
    24   59   13 1    
    25   60   13 1    
    26   61   13 1    
    27   15   14 ar   
    28   16   15 ar   
    29   39   15 1    
    30   17   16 1    
    31   18   16 ar   
    32   19   18 1    
    33   20   19 2    
    34   21   19 am   
    35   22   21 1    
    36   25   21 1    
    37   23   22 1    
    38   24   22 1    
    39   40   22 1    
    40   28   23 1    
    41   41   23 1    
    42   42   23 1    
    43   62   24 1    
    44   63   24 1    
    45   64   24 1    
    46   26   25 1    
    47   43   25 1    
    48   44   25 1    
    49   27   26 1    
    50   28   26 1    
    51   45   26 1    
    52   65   27 1    
    53   66   27 1    
    54   67   27 1    
    55   29   28 1    
    56   46   28 1    
    57   30   29 1    
    58   47   29 1    
    59   48   29 1    
    60   31   30 ar   
    61   36   30 ar   
    62   32   31 ar   
    63   49   31 1    
    64   33   32 ar   
    65   50   32 1    
    66   34   33 1    
    67   35   33 ar   
    68   36   35 ar   
    69   51   35 1    
    70   52   36 1    
@<TRIPOS>SUBSTRUCTURE
     1 469361      1 GROUP   
@<TRIPOS>SET

