#    Name: 1vj3_TAB_1_INTS_M
#    Modification time : Tue Mar 25 07:56:34 2014

@<TRIPOS>MOLECULE
1vj3_TAB_1_INTS_M
   77     0     9     0     0
SMALL
NO_CHARGES


@<TRIPOS>ATOM
      1 CA         14.1520    5.3550   10.5390 C.3       3 GLC5        0.0000 
      2 CA         13.9460    5.8540   12.7210 C.3       9 GLL5        0.0000 
      3 CA         14.3580    4.8560    8.3570 C.3       6 GLP5        0.0000 
      4 CA         17.7360    5.3785   14.0160 C.3       3 GLC5        0.0000 
      5 CA         17.0920    7.2940   14.9000 C.3       9 GLL5        0.0000 
      6 CA         18.3800    3.4630   13.1320 C.3       6 GLP5        0.0000 
      7 CA         18.6715    8.1620   15.7580 C.3       3 GLC5        0.0000 
      8 CA         20.2510    9.0300   16.6160 C.3       6 GLP5        0.0000 
      9 CA         16.9445    9.4155   14.3175 C.3       3 GLC5        0.0000 
     10 CA         16.7970   11.5370   13.7350 C.3       6 GLP5        0.0000 
     11 CA         17.7060    6.3890   16.6495 C.3       3 GLC5        0.0000 
     12 CA         18.3200    5.4840   18.3990 C.3       6 GLP5        0.0000 
     13 CA         11.1855    3.9790   10.5245 C.3       3 GLC5        0.0000 
     14 CA         12.5690    3.2390   11.8700 C.3       9 GLL5        0.0000 
     15 CA          9.8020    4.7190    9.1790 C.3       6 GLP5        0.0000 
     16 N          11.9375    1.3850   10.4965 N.am      2 SEC2        0.0000 
     17 N          11.6230    2.4020   11.4010 N.am      8 SEL2        0.0000 
     18 N          12.2520    0.3680    9.5920 N.am      5 SEP2        0.0000 
     19 CA          8.5360    2.7950   12.6690 C.3       3 GLC5        0.0000 
     20 CA         10.4560    2.3120   12.1100 C.3       9 GLL5        0.0000 
     21 CA          6.6160    3.2780   13.2280 C.3       6 GLP5        0.0000 
     22 CA         11.4425    0.6410   12.7735 C.3       3 GLC5        0.0000 
     23 CA         12.4290   -1.0300   13.4370 C.3       6 GLP5        0.0000 
     24 CA         10.1290    3.5155   10.6445 C.3       3 GLC5        0.0000 
     25 O           9.8920    0.4360   10.6795 O.2       1 ALC1        0.0000 
     26 O           9.5130    1.4490   11.6050 O.2       7 ALL1        0.0000 
     27 O          10.2710   -0.5770    9.7540 O.2       4 ALP1        0.0000 
     28 O           8.1515    0.4800   11.7680 O.2       1 ALC1        0.0000 
     29 O           6.7900   -0.4890   11.9310 O.2       4 ALP1        0.0000 
     30 CA         10.2685    2.4320   15.1145 C.3       3 GLC5        0.0000 
     31 CA         11.2370    3.8170   13.8030 C.3       9 GLL5        0.0000 
     32 CA          9.3000    1.0470   16.4260 C.3       6 GLP5        0.0000 
     33 O           9.7915    4.1080   15.8660 O.2       1 ALC1        0.0000 
     34 O          11.0490    4.5360   14.9540 O.2       7 ALL1        0.0000 
     35 O           8.5340    3.6800   16.7780 O.2       4 ALP1        0.0000 
     36 CA         17.1905   10.0680   10.8270 C.3       3 GLC5        0.0000 
     37 CA         17.1610    8.0180   10.4040 C.3       9 GLL5        0.0000 
     38 CA         17.2200   12.1180   11.2500 C.3       6 GLP5        0.0000 
     39 CA         13.5300    0.4790   12.2875 C.3       3 GLC5        0.0000 
     40 CA         14.6310    1.9880   11.1380 C.3       9 GLL5        0.0000 
     41 CA         16.2850   10.6485   10.1910 C.3       3 GLC5        0.0000 
     42 CA         15.3500    9.1790    9.1320 C.3       9 GLL5        0.0000 
     43 CA         17.4280    9.7890    9.5845 C.3       3 GLC5        0.0000 
     44 CA         19.5060   10.3990   10.0370 C.3       6 GLP5        0.0000 
     45 CA         16.1565   10.7625    7.9510 C.3       3 GLC5        0.0000 
     46 CA         16.9630   12.3460    6.7700 C.3       6 GLP5        0.0000 
     47 CA         14.3910    6.6945    8.2355 C.3       3 GLC5        0.0000 
     48 CA         14.4240    8.5330    8.1140 C.3       9 GLL5        0.0000 
     49 CA         10.9235    9.7650    5.0435 C.3       3 GLC5        0.0000 
     50 CA         12.2830   10.6060    5.8570 C.3       9 GLL5        0.0000 
     51 CA          9.5640    8.9240    4.2300 C.3       6 GLP5        0.0000 
     52 CA         12.6930   11.4470    7.7890 C.3       3 GLC5        0.0000 
     53 CA         13.1030   12.2880    9.7210 C.3       6 GLP5        0.0000 
     54 CA         15.9240    6.1490    8.6905 C.3       3 GLC5        0.0000 
     55 CA         17.4900    7.4420    9.0240 C.3       9 GLL5        0.0000 
     56 CA         16.2093    5.0015   13.0950 C.3       3 GLC5        0.0000 
     57 CA         15.0450    6.6160   13.1760 C.3       9 GLL5        0.0000 
     58 CA         17.0270    3.5160   12.4230 C.3       6 GLP5        0.0000 
     59 CA         15.6305    8.1770   15.9490 C.3       3 GLC5        0.0000 
     60 CA         15.7380    6.3580   14.3580 C.3       9 GLL5        0.0000 
     61 CA         14.8460    9.5280   17.2690 C.3       6 GLP5        0.0000 
     62 CA         15.8525    4.2152   13.6513 C.3       3 GLC5        0.0000 
     63 CA         15.2280    5.2940   15.0970 C.3       9 GLL5        0.0000 
     64 CA         15.3665    4.4220   12.7650 C.3       3 GLC5        0.0000 
     65 CA         13.4660    4.8020   13.4930 C.3       9 GLL5        0.0000 
     66 CA         15.6248    3.0862   11.7447 C.3       3 GLC5        0.0000 
     67 CA         13.8140    3.3250   10.9950 C.3       9 GLL5        0.0000 
     68 CA         18.4157    9.0645    9.8755 C.3       3 GLC5        0.0000 
     69 CA         14.1346    3.7455    9.8211 C.3       3 GLC5        0.0000 
     70 CA         13.9950   10.5720    9.1720 C.3       3 GLC5        0.0000 
     71 CA         17.5625   10.2955    7.1110 C.3       3 GLC5        0.0000 
     72 CA         17.9760    8.3990    8.1030 C.3       9 GLL5        0.0000 
     73 CA         16.5347    5.2074    7.2435 C.3       3 GLC5        0.0000 
     74 CA         18.2120    6.7840    6.3860 C.3       9 GLL5        0.0000 
     75 CA         15.1870    4.0420    7.3320 C.3       6 GLP5        0.0000 
     76 CA         19.2260    8.7423    7.8625 C.3       3 GLC5        0.0000 
     77 CA         20.2650    9.9700    8.8060 C.3       6 GLP5        0.0000 
@<TRIPOS>BOND
@<TRIPOS>SUBSTRUCTURE
     1 ALC1       25 GROUP        1 X    ALC  0     ROOT ALC X 1
     2 SEC2       16 GROUP        1 X    SEC  0     **** SEC X 2
     3 GLC5        1 GROUP        1 X    GLC  0     **** GLC X 6
     4 ALP1       27 GROUP        1 Y    ALP  0     ROOT ALP Y 8
     5 SEP2       18 GROUP        1 Y    SEP  0     **** SEP Y 9
     6 GLP5        3 GROUP        1 Y    GLP  0     **** GLP Y 13
     7 ALL1       26 GROUP        1 Z    ALL  0     ROOT ALL Z 15
     8 SEL2       17 GROUP        1 Z    SEL  0     **** SEL Z 16
     9 GLL5        2 GROUP        1 Z    GLL  0     **** GLL Z 20
@<TRIPOS>SET

