#    Name: 1vj3_TAB_1_ligand
#    Modification time : Tue Mar 25 07:56:34 2014

@<TRIPOS>MOLECULE
1vj3_TAB_1_ligand
   59    61     1     0     0
SMALL
NO_CHARGES


@<TRIPOS>ATOM
      1 C1'        15.0450    6.6160   13.1760 C.ar      1 TAB300      0.0000 
      2 C2'        15.7380    6.3580   14.3580 C.ar      1 TAB300      0.0000 
      3 C3'        15.2280    5.2940   15.0970 C.ar      1 TAB300      0.0000 
      4 C4'        14.1280    4.5350   14.6620 C.ar      1 TAB300      0.0000 
      5 C5'        13.4660    4.8020   13.4930 C.ar      1 TAB300      0.0000 
      6 C6'        13.9460    5.8540   12.7210 C.ar      1 TAB300      0.0000 
      7 CL8        17.0920    7.2940   14.9000 Cl        1 TAB300      0.0000 
      8 N8'        15.4110    7.6330   12.4110 N.2       1 TAB300      0.0000 
      9 C9'        12.4070    4.0080   13.0710 C.ar      1 TAB300      0.0000 
     10 C10        12.5690    3.2390   11.8700 C.ar      1 TAB300      0.0000 
     11 C11        13.8140    3.3250   10.9950 C.3       1 TAB300      0.0000 
     12 N17        11.6230    2.4020   11.4010 N.ar      1 TAB300      0.0000 
     13 C14        10.4560    2.3120   12.1100 C.ar      1 TAB300      0.0000 
     14 N22         9.5130    1.4490   11.6050 N.pl3     1 TAB300      0.0000 
     15 N15        10.3270    2.9980   13.2700 N.ar      1 TAB300      0.0000 
     16 C15        11.2370    3.8170   13.8030 C.ar      1 TAB300      0.0000 
     17 N20        11.0490    4.5360   14.9540 N.pl3     1 TAB300      0.0000 
     18 N18        15.7300    8.3340   10.2010 N.pl3     1 TAB300      0.0000 
     19 C19        17.1610    8.0180   10.4040 C.3       1 TAB300      0.0000 
     20 C20        14.6310    1.9880   11.1380 C.3       1 TAB300      0.0000 
     21 C21        15.3500    9.1790    9.1320 C.3       1 TAB300      0.0000 
     22 C22        14.4240    8.5330    8.1140 C.3       1 TAB300      0.0000 
     23 O23        14.1680    9.5980    7.1140 O.3       1 TAB300      0.0000 
     24 C24        12.8350    9.7320    6.9620 C.2       1 TAB300      0.0000 
     25 C25        12.2830   10.6060    5.8570 C.3       1 TAB300      0.0000 
     26 O26        11.8920    9.1800    7.5760 O.2       1 TAB300      0.0000 
     27 C27        17.4900    7.4420    9.0240 C.ar      1 TAB300      0.0000 
     28 C28        17.3770    6.1060    8.5820 C.ar      1 TAB300      0.0000 
     29 C29        17.9760    8.3990    8.1030 C.ar      1 TAB300      0.0000 
     30 C30        18.3480    8.0910    6.8010 C.ar      1 TAB300      0.0000 
     31 C31        18.2120    6.7840    6.3860 C.ar      1 TAB300      0.0000 
     32 C32        17.7290    5.8170    7.2660 C.ar      1 TAB300      0.0000 
     33 N65        14.8150    7.9470   11.2370 N.2       1 TAB300      0.0000 
     34 H          15.6740    5.0471   16.0060 H         1 TAB300      0.0000 
     35 H          13.8143    3.7386   15.2648 H         1 TAB300      0.0000 
     36 H          13.5108    6.0838   11.8234 H         1 TAB300      0.0000 
     37 H          14.4401    4.1391   11.3169 H         1 TAB300      0.0000 
     38 H          13.5359    3.4417    9.9619 H         1 TAB300      0.0000 
     39 H           9.7608    0.9703   10.7627 H         1 TAB300      0.0000 
     40 H           8.6614    1.3751   12.1239 H         1 TAB300      0.0000 
     41 H          11.7974    5.1432   15.2207 H         1 TAB300      0.0000 
     42 H          10.1798    4.3906   15.4266 H         1 TAB300      0.0000 
     43 H          17.2876    7.2699   11.1292 H         1 TAB300      0.0000 
     44 H          17.7262    8.8889   10.5580 H         1 TAB300      0.0000 
     45 H          16.2435    9.5556    8.5733 H         1 TAB300      0.0000 
     46 H          14.8385   10.1019    9.5047 H         1 TAB300      0.0000 
     47 H          13.5164    8.2410    8.5981 H         1 TAB300      0.0000 
     48 H          14.9212    7.7007    7.6630 H         1 TAB300      0.0000 
     49 H          17.0485    5.3849    9.2108 H         1 TAB300      0.0000 
     50 H          18.0560    9.3930    8.4314 H         1 TAB300      0.0000 
     51 H          18.7078    8.8087    6.1793 H         1 TAB300      0.0000 
     52 H          18.4661    6.5138    5.4242 H         1 TAB300      0.0000 
     53 H          17.6269    4.8336    6.9232 H         1 TAB300      0.0000 
     54 H          15.4599    1.9977   10.5787 H         1 TAB300      0.0000 
     55 H          14.9166    1.8265   12.0826 H         1 TAB300      0.0000 
     56 H          14.0950    1.1930   10.8539 H         1 TAB300      0.0000 
     57 H          12.5845   11.5551    5.9485 H         1 TAB300      0.0000 
     58 H          12.5750   10.2914    4.9538 H         1 TAB300      0.0000 
     59 H          11.2830   10.6151    5.8551 H         1 TAB300      0.0000 
@<TRIPOS>BOND
     1    2    1 ar   
     2    6    1 ar   
     3    8    1 1    
     4    3    2 ar   
     5    7    2 1    
     6    4    3 ar   
     7   34    3 1    
     8    5    4 ar   
     9   35    4 1    
    10    6    5 ar   
    11    9    5 1    
    12   36    6 1    
    13   33    8 2    
    14   10    9 ar   
    15   16    9 ar   
    16   11   10 1    
    17   12   10 ar   
    18   20   11 1    
    19   37   11 1    
    20   38   11 1    
    21   13   12 ar   
    22   14   13 1    
    23   15   13 ar   
    24   39   14 1    
    25   40   14 1    
    26   16   15 ar   
    27   17   16 1    
    28   41   17 1    
    29   42   17 1    
    30   19   18 1    
    31   21   18 1    
    32   33   18 1    
    33   27   19 1    
    34   43   19 1    
    35   44   19 1    
    36   54   20 1    
    37   55   20 1    
    38   56   20 1    
    39   22   21 1    
    40   45   21 1    
    41   46   21 1    
    42   23   22 1    
    43   47   22 1    
    44   48   22 1    
    45   24   23 1    
    46   25   24 1    
    47   26   24 2    
    48   57   25 1    
    49   58   25 1    
    50   59   25 1    
    51   28   27 ar   
    52   29   27 ar   
    53   32   28 ar   
    54   49   28 1    
    55   30   29 ar   
    56   50   29 1    
    57   31   30 ar   
    58   51   30 1    
    59   32   31 ar   
    60   52   31 1    
    61   53   32 1    
@<TRIPOS>SUBSTRUCTURE
     1 TAB300      1 GROUP   
@<TRIPOS>SET

