#    Name: 3e7m_AT2_2_INTS_M
#    Modification time : Tue Mar 25 01:04:10 2014

@<TRIPOS>MOLECULE
3e7m_AT2_2_INTS_M
   41     0     9     0     0
SMALL
NO_CHARGES


@<TRIPOS>ATOM
      1 CA        126.8295  111.4280   92.8380 C.3       3 GLC5        0.0000 
      2 CA        125.8010  111.9390   94.5900 C.3       9 GLL5        0.0000 
      3 CA        127.8580  110.9170   91.0860 C.3       6 GLP5        0.0000 
      4 CA        125.8730  110.1080   94.3210 C.3       3 GLC5        0.0000 
      5 CA        125.9450  108.2770   94.0520 C.3       6 GLP5        0.0000 
      6 CA        123.9945  111.4095   94.3930 C.3       3 GLC5        0.0000 
      7 CA        122.1880  110.8800   94.1960 C.3       6 GLP5        0.0000 
      8 CA        124.0745  112.5935   95.8660 C.3       3 GLC5        0.0000 
      9 CA        122.3480  113.2480   97.1420 C.3       6 GLP5        0.0000 
     10 CA        124.0580  113.7560   96.3460 C.3       3 GLC5        0.0000 
     11 CA        125.7680  114.2640   95.5500 C.3       9 GLL5        0.0000 
     12 CA        127.2965  112.4185   92.2220 C.3       3 GLC5        0.0000 
     13 CA        126.7350  113.9200   93.3580 C.3       9 GLL5        0.0000 
     14 CA        125.1885  115.6880   91.2520 C.3       3 GLC5        0.0000 
     15 CA        126.7040  114.8660   90.1150 C.3       9 GLL5        0.0000 
     16 CA        123.6730  116.5100   92.3890 C.3       6 GLP5        0.0000 
     17 CA        124.4730  115.9700   90.4510 C.3       3 GLC5        0.0000 
     18 CA        126.0910  116.1780   89.5690 C.3       9 GLL5        0.0000 
     19 CA        122.8550  115.7620   91.3330 C.3       6 GLP5        0.0000 
     20 CA        125.1140  117.9460   90.0625 C.3       3 GLC5        0.0000 
     21 CA        124.1370  119.7140   90.5560 C.3       6 GLP5        0.0000 
     22 N         127.0700  117.5300   94.4070 N.am      2 SEC2        0.0000 
     23 N         126.6940  116.1820   94.3310 N.am      8 SEL2        0.0000 
     24 N         127.4460  118.8780   94.4830 N.am      5 SEP2        0.0000 
     25 O         128.1495  117.1450   92.4275 O.2       1 ALC1        0.0000 
     26 O         127.6340  115.8730   92.1380 O.2       7 ALL1        0.0000 
     27 O         128.6650  118.4170   92.7170 O.2       4 ALP1        0.0000 
     28 N         125.1060  117.7310   86.1145 N.am      2 SEC2        0.0000 
     29 N         125.8930  116.8930   86.8620 N.am      8 SEL2        0.0000 
     30 N         124.3190  118.5690   85.3670 N.am      5 SEP2        0.0000 
     31 CA        124.3540  115.7157   94.5505 C.3       3 GLC5        0.0000 
     32 CA        126.0620  115.6590   95.4600 C.3       9 GLL5        0.0000 
     33 CA        122.7930  116.4700   93.5960 C.3       6 GLP5        0.0000 
     34 CA        125.1999  115.5025   92.9910 C.3       3 GLC5        0.0000 
     35 CA        127.0310  115.3240   93.2600 C.3       9 GLL5        0.0000 
     36 CA        127.6058  112.9545   90.8090 C.3       3 GLC5        0.0000 
     37 CA        126.3782  114.6680   88.0905 C.3       3 GLC5        0.0000 
     38 CA        126.3590  113.8140   86.3390 C.3       6 GLP5        0.0000 
     39 CA        127.3057  117.8855   84.0877 C.3       3 GLC5        0.0000 
     40 CA        127.9290  118.1650   85.5820 C.3       9 GLL5        0.0000 
     41 CA        126.0110  117.2860   82.7560 C.3       6 GLP5        0.0000 
@<TRIPOS>BOND
@<TRIPOS>SUBSTRUCTURE
     1 ALC1       25 GROUP        1 X    ALC  0     ROOT ALC X 1
     2 SEC2       22 GROUP        1 X    SEC  0     **** SEC X 2
     3 GLC5        1 GROUP        1 X    GLC  0     **** GLC X 6
     4 ALP1       27 GROUP        1 Y    ALP  0     ROOT ALP Y 8
     5 SEP2       24 GROUP        1 Y    SEP  0     **** SEP Y 9
     6 GLP5        3 GROUP        1 Y    GLP  0     **** GLP Y 13
     7 ALL1       26 GROUP        1 Z    ALL  0     ROOT ALL Z 15
     8 SEL2       23 GROUP        1 Z    SEL  0     **** SEL Z 16
     9 GLL5        2 GROUP        1 Z    GLL  0     **** GLL Z 20
@<TRIPOS>SET

