#    Name: 3e7m_AT2_2_ligand
#    Modification time : Tue Mar 25 01:04:10 2014

@<TRIPOS>MOLECULE
3e7m_AT2_2_ligand
   40    41     1     0     0
SMALL
NO_CHARGES


@<TRIPOS>ATOM
      1 C1        125.8010  111.9390   94.5900 C.3       1 AT21906     0.0000 
      2 C2        126.1100  113.4120   94.4940 C.ar      1 AT21906     0.0000 
      3 C3        125.7680  114.2640   95.5500 C.ar      1 AT21906     0.0000 
      4 C4        126.0620  115.6590   95.4600 C.ar      1 AT21906     0.0000 
      5 C6        127.0310  115.3240   93.2600 C.ar      1 AT21906     0.0000 
      6 C7        126.7350  113.9200   93.3580 C.ar      1 AT21906     0.0000 
      7 C9        128.0030  115.1180   90.9490 C.3       1 AT21906     0.0000 
      8 C10       126.7040  114.8660   90.1150 C.3       1 AT21906     0.0000 
      9 C11       126.0910  116.1780   89.5690 C.3       1 AT21906     0.0000 
     10 N5        126.6940  116.1820   94.3310 N.ar      1 AT21906     0.0000 
     11 N8        127.6340  115.8730   92.1380 N.pl3     1 AT21906     0.0000 
     12 N12       127.1030  116.8920   88.7810 N.am      1 AT21906     0.0000 
     13 C13       128.3260  117.2260   89.5680 C.3       1 AT21906     0.0000 
     14 C14       128.9640  115.9520   90.0960 C.3       1 AT21906     0.0000 
     15 C15       126.9610  117.2050   87.4850 C.2       1 AT21906     0.0000 
     16 O16       125.8930  116.8930   86.8620 O.2       1 AT21906     0.0000 
     17 O17       128.0010  117.8240   86.9490 O.3       1 AT21906     0.0000 
     18 C18       127.9290  118.1650   85.5820 C.3       1 AT21906     0.0000 
     19 C19       129.2720  118.8050   85.2570 C.3       1 AT21906     0.0000 
     20 H         125.3104  113.9032   96.3860 H         1 AT21906     0.0000 
     21 H         125.8001  116.2708   96.2409 H         1 AT21906     0.0000 
     22 H         126.9925  113.3092   92.5799 H         1 AT21906     0.0000 
     23 H         128.4384  114.1907   91.1791 H         1 AT21906     0.0000 
     24 H         125.9744  114.3672   90.7517 H         1 AT21906     0.0000 
     25 H         126.9494  114.2105   89.2804 H         1 AT21906     0.0000 
     26 H         125.7619  116.7728   90.4170 H         1 AT21906     0.0000 
     27 H         125.2300  115.9176   88.9590 H         1 AT21906     0.0000 
     28 H         127.8504  116.9008   92.1179 H         1 AT21906     0.0000 
     29 H         128.0659  117.8673   90.4096 H         1 AT21906     0.0000 
     30 H         129.0455  117.7479   88.9378 H         1 AT21906     0.0000 
     31 H         129.3088  115.3417   89.2516 H         1 AT21906     0.0000 
     32 H         129.8424  116.2097   90.7014 H         1 AT21906     0.0000 
     33 H         127.1546  118.8904   85.3752 H         1 AT21906     0.0000 
     34 H         127.8079  117.3006   84.9442 H         1 AT21906     0.0000 
     35 H         126.0955  111.4437   93.7727 H         1 AT21906     0.0000 
     36 H         126.2582  111.5137   95.3711 H         1 AT21906     0.0000 
     37 H         124.8210  111.7713   94.6971 H         1 AT21906     0.0000 
     38 H         130.0323  118.1766   85.4213 H         1 AT21906     0.0000 
     39 H         129.3268  119.0873   84.2992 H         1 AT21906     0.0000 
     40 H         129.4395  119.6194   85.8127 H         1 AT21906     0.0000 
@<TRIPOS>BOND
     1    2    1 1    
     2   35    1 1    
     3   36    1 1    
     4   37    1 1    
     5    3    2 ar   
     6    6    2 ar   
     7    4    3 ar   
     8   20    3 1    
     9   10    4 ar   
    10   21    4 1    
    11    6    5 ar   
    12   10    5 ar   
    13   11    5 1    
    14   22    6 1    
    15    8    7 1    
    16   11    7 1    
    17   14    7 1    
    18   23    7 1    
    19    9    8 1    
    20   24    8 1    
    21   25    8 1    
    22   12    9 1    
    23   26    9 1    
    24   27    9 1    
    25   28   11 1    
    26   13   12 1    
    27   15   12 am   
    28   14   13 1    
    29   29   13 1    
    30   30   13 1    
    31   31   14 1    
    32   32   14 1    
    33   16   15 2    
    34   17   15 1    
    35   18   17 1    
    36   19   18 1    
    37   33   18 1    
    38   34   18 1    
    39   38   19 1    
    40   39   19 1    
    41   40   19 1    
@<TRIPOS>SUBSTRUCTURE
     1 AT21906     1 GROUP   
@<TRIPOS>SET

