#    Name: 4fhw_GTP_1_INTS_M
#    Modification time : Mon Mar 24 20:03:55 2014

@<TRIPOS>MOLECULE
4fhw_GTP_1_INTS_M
   60     0    12     0     0
SMALL
NO_CHARGES


@<TRIPOS>ATOM
      1 NZ         -8.9030    2.4285   -6.4820 N.4       2 LYC4        0.0000 
      2 NZ         -8.6890    3.6910   -5.1500 N.4      10 LYL4        0.0000 
      3 NZ         -9.1170    1.1660   -7.8140 N.4       6 LYP4        0.0000 
      4 NZ         -7.8450    5.2340   -4.5520 N.4       2 LYC4        0.0000 
      5 NZ         -7.0010    6.7770   -3.9540 N.4       6 LYP4        0.0000 
      6 N          -9.2965    5.0810   -5.9290 N.am      1 SEC2        0.0000 
      7 N          -8.6890    3.6910   -5.1500 N.am      9 SEL2        0.0000 
      8 N          -9.9040    6.4710   -6.7080 N.am      5 SEP2        0.0000 
      9 NZ         -8.2495    6.2210   -3.9225 N.4       2 LYC4        0.0000 
     10 NZ         -9.4980    5.6650   -3.8910 N.4      10 LYL4        0.0000 
     11 N          -8.2495    6.2210   -3.9225 N.am      1 SEC2        0.0000 
     12 N          -9.4980    5.6650   -3.8910 N.am      9 SEL2        0.0000 
     13 N          -7.0010    6.7770   -3.9540 N.am      5 SEP2        0.0000 
     14 N          -9.7010    6.0680   -5.2995 N.am      1 SEC2        0.0000 
     15 N         -10.5515    5.3105   -5.8030 N.am      1 SEC2        0.0000 
     16 N         -11.1990    4.1500   -4.8980 N.am      9 SEL2        0.0000 
     17 NZ         -9.9365    1.4975   -6.7920 N.4       2 LYC4        0.0000 
     18 NZ        -10.7560    1.8290   -5.7700 N.4      10 LYL4        0.0000 
     19 N         -11.2430    0.5610   -5.3190 N.am      1 SEC2        0.0000 
     20 N         -10.7560    1.8290   -5.7700 N.am      9 SEL2        0.0000 
     21 N         -11.7300   -0.7070   -4.8680 N.am      5 SEP2        0.0000 
     22 N          -9.9365    1.4975   -6.7920 N.am      1 SEC2        0.0000 
     23 N          -9.1170    1.1660   -7.8140 N.am      5 SEP2        0.0000 
     24 Zn        -13.2620    2.3320   -3.3515 Zn        3 ZIC7        0.0000 
     25 Zn        -12.3180    2.1240   -3.8550 Zn       11 ZIL7        0.0000 
     26 Zn        -14.2060    2.5400   -2.8480 Zn        7 ZIP7        0.0000 
     27 N         -12.0240    0.7085   -4.3615 N.am      1 SEC2        0.0000 
     28 N         -12.3180    2.1240   -3.8550 N.am      9 SEL2        0.0000 
     29 Zn        -14.2985    3.3755   -3.5460 Zn        3 ZIC7        0.0000 
     30 Zn        -14.3910    4.2110   -4.2440 Zn       11 ZIL7        0.0000 
     31 N         -15.0860    1.7990   -5.3455 N.am      1 SEC2        0.0000 
     32 N         -15.5800    2.8480   -6.0540 N.am      9 SEL2        0.0000 
     33 N         -14.5920    0.7500   -4.6370 N.am      5 SEP2        0.0000 
     34 CA        -19.1660    1.3410   -5.6095 C.3       4 GLC5        0.0000 
     35 CA        -17.8720    2.2920   -6.6430 C.3      12 GLL5        0.0000 
     36 CA        -20.4600    0.3900   -4.5760 C.3       8 GLP5        0.0000 
     37 CA        -19.8180    1.2230  -10.4420 C.3       4 GLC5        0.0000 
     38 CA        -18.8010    2.1180   -8.8500 C.3      12 GLL5        0.0000 
     39 CA        -20.8350    0.3280  -12.0340 C.3       8 GLP5        0.0000 
     40 N         -18.9705   -0.9065   -8.9150 N.am      1 SEC2        0.0000 
     41 N         -19.1760    0.7780   -9.0690 N.am      9 SEL2        0.0000 
     42 N         -18.7650   -2.5910   -8.7610 N.am      5 SEP2        0.0000 
     43 CA        -20.1280    1.5780   -6.2410 C.3       4 GLC5        0.0000 
     44 CA        -19.7960    2.7660   -7.9060 C.3      12 GLL5        0.0000 
     45 CA        -21.3390    1.6550   -7.5145 C.3       4 GLC5        0.0000 
     46 CA        -22.8820    0.5440   -7.1230 C.3       8 GLP5        0.0000 
     47 N         -22.3885    5.1930  -10.4645 N.am      1 SEC2        0.0000 
     48 N         -21.2450    5.6740   -9.5590 N.am      9 SEL2        0.0000 
     49 N         -23.5320    4.7120  -11.3700 N.am      5 SEP2        0.0000 
     50 N         -20.9085    9.1890  -10.3475 N.am      1 SEC2        0.0000 
     51 N         -20.2480    8.4000   -9.7370 N.am      9 SEL2        0.0000 
     52 N         -21.5690    9.9780  -10.9580 N.am      5 SEP2        0.0000 
     53 CA        -17.3715    5.3785   -9.2800 C.3       4 GLC5        0.0000 
     54 CA        -19.4100    5.2670   -8.3640 C.3      12 GLL5        0.0000 
     55 CA        -15.3330    5.4900  -10.1960 C.3       8 GLP5        0.0000 
     56 CA        -17.0547    0.2873   -6.9098 C.3       4 GLC5        0.0000 
     57 CA        -17.4770    2.2050   -8.1160 C.3      12 GLL5        0.0000 
     58 CA        -16.4350   -1.6740   -6.4400 C.3       8 GLP5        0.0000 
     59 CA        -17.2175    2.9153  -10.0890 C.3       4 GLC5        0.0000 
     60 CA        -16.2960    3.6690  -11.6950 C.3       8 GLP5        0.0000 
@<TRIPOS>BOND
@<TRIPOS>SUBSTRUCTURE
     1 SEC2        6 GROUP        1 X    SEC  0     ROOT SEC X 2
     2 LYC4        1 GROUP        1 X    LYC  0     **** LYC X 4
     3 ZIC7       24 GROUP        1 X    ZIC  0     **** ZIC X 5
     4 GLC5       34 GROUP        1 X    GLC  0     **** GLC X 6
     5 SEP2        8 GROUP        1 Y    SEP  0     ROOT SEP Y 9
     6 LYP4        3 GROUP        1 Y    LYP  0     **** LYP Y 11
     7 ZIP7       26 GROUP        1 Y    ZIP  0     **** ZIP Y 12
     8 GLP5       36 GROUP        1 Y    GLP  0     **** GLP Y 13
     9 SEL2        7 GROUP        1 Z    SEL  0     ROOT SEL Z 16
    10 LYL4        2 GROUP        1 Z    LYL  0     **** LYL Z 18
    11 ZIL7       25 GROUP        1 Z    ZIL  0     **** ZIL Z 19
    12 GLL5       35 GROUP        1 Z    GLL  0     **** GLL Z 20
@<TRIPOS>SET

