#    Name: 4fhw_GTP_1_ligand
#    Modification time : Mon Mar 24 20:03:55 2014

@<TRIPOS>MOLECULE
4fhw_GTP_1_ligand
   44    46     1     0     0
SMALL
NO_CHARGES


@<TRIPOS>ATOM
      1 PG         -9.7530    4.2080   -4.2030 P.3       1 GTP401      0.0000 
      2 O1G        -8.6890    3.6910   -5.1500 O.co2     1 GTP401      0.0000 
      3 O2G        -9.7560    3.3620   -2.9440 O.co2     1 GTP401      0.0000 
      4 O3G        -9.4980    5.6650   -3.8910 O.co2     1 GTP401      0.0000 
      5 O3B       -11.1990    4.1500   -4.8980 O.3       1 GTP401      0.0000 
      6 PB        -11.8270    2.7060   -5.1690 P.3       1 GTP401      0.0000 
      7 O1B       -10.7560    1.8290   -5.7700 O.co2     1 GTP401      0.0000 
      8 O2B       -12.3180    2.1240   -3.8550 O.co2     1 GTP401      0.0000 
      9 O3A       -13.0640    3.0170   -6.1710 O.3       1 GTP401      0.0000 
     10 PA        -14.3750    3.8770   -5.7270 P.3       1 GTP401      0.0000 
     11 O1A       -14.5160    5.1290   -6.5810 O.co2     1 GTP401      0.0000 
     12 O2A       -14.3910    4.2110   -4.2440 O.co2     1 GTP401      0.0000 
     13 O5'       -15.5800    2.8480   -6.0540 O.3       1 GTP401      0.0000 
     14 C5'       -16.9370    3.1530   -5.7860 C.3       1 GTP401      0.0000 
     15 C4'       -17.8720    2.2920   -6.6430 C.3       1 GTP401      0.0000 
     16 O4'       -19.1730    2.8580   -6.6350 O.3       1 GTP401      0.0000 
     17 C3'       -17.4770    2.2050   -8.1160 C.3       1 GTP401      0.0000 
     18 O3'       -16.6500    1.0940   -8.3970 O.3       1 GTP401      0.0000 
     19 C2'       -18.8010    2.1180   -8.8500 C.3       1 GTP401      0.0000 
     20 O2'       -19.1760    0.7780   -9.0690 O.3       1 GTP401      0.0000 
     21 C1'       -19.7960    2.7660   -7.9060 C.3       1 GTP401      0.0000 
     22 N9        -20.1360    4.0950   -8.4600 N.pl3     1 GTP401      0.0000 
     23 C8        -21.2600    4.3690   -9.2020 C.2       1 GTP401      0.0000 
     24 N7        -21.2450    5.6740   -9.5590 N.2       1 GTP401      0.0000 
     25 C5        -20.1210    6.2430   -9.0580 C.2       1 GTP401      0.0000 
     26 C6        -19.6190    7.5430   -9.1270 C.2       1 GTP401      0.0000 
     27 O6        -20.2480    8.4000   -9.7370 O.2       1 GTP401      0.0000 
     28 N1        -18.4200    7.8690   -8.5130 N.am      1 GTP401      0.0000 
     29 C2        -17.7280    6.8880   -7.8240 C.2       1 GTP401      0.0000 
     30 N2        -16.5760    7.1890   -7.2290 N.pl3     1 GTP401      0.0000 
     31 N3        -18.2330    5.5930   -7.7580 N.2       1 GTP401      0.0000 
     32 C4        -19.4100    5.2670   -8.3640 C.2       1 GTP401      0.0000 
     33 H         -17.1733    4.2078   -6.0012 H         1 GTP401      0.0000 
     34 H         -17.2000    2.9726   -4.7310 H         1 GTP401      0.0000 
     35 H         -17.8976    1.2913   -6.2412 H         1 GTP401      0.0000 
     36 H         -17.0248    3.1486   -8.3816 H         1 GTP401      0.0000 
     37 H         -18.7456    2.7016   -9.7292 H         1 GTP401      0.0000 
     38 H         -20.6691    2.1449   -7.8813 H         1 GTP401      0.0000 
     39 H         -21.9424    3.7260   -9.4256 H         1 GTP401      0.0000 
     40 H         -18.0518    8.8227   -8.5688 H         1 GTP401      0.0000 
     41 H         -16.2439    8.1230   -7.3603 H         1 GTP401      0.0000 
     42 H         -16.1465    6.4540   -6.7044 H         1 GTP401      0.0000 
     43 H         -16.0600    1.0013   -7.5950 H         1 GTP401      0.0000 
     44 H         -18.3434    0.2473   -8.9109 H         1 GTP401      0.0000 
@<TRIPOS>BOND
     1    2    1 ar   
     2    3    1 ar   
     3    4    1 ar   
     4    5    1 1    
     5    6    5 1    
     6    7    6 ar   
     7    8    6 ar   
     8    9    6 1    
     9   10    9 1    
    10   11   10 ar   
    11   12   10 ar   
    12   13   10 1    
    13   14   13 1    
    14   15   14 1    
    15   33   14 1    
    16   34   14 1    
    17   16   15 1    
    18   17   15 1    
    19   35   15 1    
    20   21   16 1    
    21   18   17 1    
    22   19   17 1    
    23   36   17 1    
    24   43   18 1    
    25   20   19 1    
    26   21   19 1    
    27   37   19 1    
    28   44   20 1    
    29   22   21 1    
    30   38   21 1    
    31   23   22 1    
    32   32   22 1    
    33   24   23 2    
    34   39   23 1    
    35   25   24 1    
    36   26   25 1    
    37   32   25 2    
    38   27   26 2    
    39   28   26 am   
    40   29   28 1    
    41   40   28 1    
    42   30   29 1    
    43   31   29 2    
    44   41   30 1    
    45   42   30 1    
    46   32   31 1    
@<TRIPOS>SUBSTRUCTURE
     1 GTP401      1 GROUP   
@<TRIPOS>SET

