#    Name: 6upj_NIU_1_INTS_M
#    Modification time : Tue Mar 25 13:56:22 2014

@<TRIPOS>MOLECULE
6upj_NIU_1_INTS_M
   49     0     9     0     0
SMALL
NO_CHARGES


@<TRIPOS>ATOM
      1 N          -2.3440   15.2630   22.0460 N.am      2 SEC2        0.0000 
      2 N          -1.7710   16.4940   21.2540 N.am      8 SEL2        0.0000 
      3 N          -2.9170   14.0320   22.8380 N.am      5 SEP2        0.0000 
      4 N          -4.1465   17.9405   21.7120 N.am      2 SEC2        0.0000 
      5 N          -2.5020   18.3810   21.9930 N.am      8 SEL2        0.0000 
      6 N          -5.7910   17.5000   21.4310 N.am      5 SEP2        0.0000 
      7 N           1.9860   20.1880   21.2390 N.am      2 SEC2        0.0000 
      8 N           0.9740   20.0970   20.3010 N.am      8 SEL2        0.0000 
      9 N           2.9980   20.2790   22.1770 N.am      5 SEP2        0.0000 
     10 O           1.1095   20.7955   19.2645 O.2       1 ALC1        0.0000 
     11 O           0.9740   20.0970   20.3010 O.2       7 ALL1        0.0000 
     12 O           1.2450   21.4940   18.2280 O.2       4 ALP1        0.0000 
     13 CA         -2.9005   17.1380   17.1410 C.3       3 GLC5        0.0000 
     14 CA         -0.8470   16.6580   16.4670 C.3       9 GLL5        0.0000 
     15 CA         -4.9540   17.6180   17.8150 C.3       6 GLP5        0.0000 
     16 CA         -2.1620   15.2975   14.6930 C.3       3 GLC5        0.0000 
     17 CA         -1.0470   15.2640   16.5180 C.3       9 GLL5        0.0000 
     18 CA         -3.2770   15.3310   12.8680 C.3       6 GLP5        0.0000 
     19 CA          1.9875   15.0280   23.1740 C.3       3 GLC5        0.0000 
     20 CA          1.1130   15.4320   21.6200 C.3       9 GLL5        0.0000 
     21 CA          2.8620   14.6240   24.7280 C.3       6 GLP5        0.0000 
     22 CA         -0.5600   14.1320   21.2355 C.3       3 GLC5        0.0000 
     23 CA         -2.2330   12.8320   20.8510 C.3       6 GLP5        0.0000 
     24 CA         -0.2360   15.4875   23.2550 C.3       3 GLC5        0.0000 
     25 CA         -1.5850   15.5430   24.8900 C.3       6 GLP5        0.0000 
     26 CA         -4.7755   19.3085   23.2665 C.3       3 GLC5        0.0000 
     27 CA         -3.3620   20.5360   22.8040 C.3       9 GLL5        0.0000 
     28 CA         -6.1890   18.0810   23.7290 C.3       6 GLP5        0.0000 
     29 CA         -4.5620   22.4730   19.0660 C.3       3 GLC5        0.0000 
     30 CA         -3.4120   22.1280   20.7460 C.3       9 GLL5        0.0000 
     31 CA         -5.7120   22.8180   17.3860 C.3       6 GLP5        0.0000 
     32 CA         -1.4400   24.3175   19.3230 C.3       3 GLC5        0.0000 
     33 CA         -1.9750   22.6960   20.7700 C.3       9 GLL5        0.0000 
     34 CA         -0.9050   25.9390   17.8760 C.3       6 GLP5        0.0000 
     35 CA         -1.1970   18.7445   16.5240 C.3       3 GLC5        0.0000 
     36 CA         -0.3250   17.3520   17.5770 C.3       9 GLL5        0.0000 
     37 CA         -1.8080   20.4840   16.0260 C.3       6 GLP5        0.0000 
     38 CA          1.1439   17.5865   16.5415 C.3       3 GLC5        0.0000 
     39 CA          2.7870   18.3480   15.7670 C.3       6 GLP5        0.0000 
     40 CA         -1.0095   13.1880   15.9480 C.3       3 GLC5        0.0000 
     41 CA         -0.7110   14.5580   17.6780 C.3       9 GLL5        0.0000 
     42 CA         -1.1400   11.4650   14.7980 C.3       6 GLP5        0.0000 
     43 CA         -1.3407   13.8610   19.5450 C.3       3 GLC5        0.0000 
     44 CA         -2.5088   15.3267   18.5840 C.3       3 GLC5        0.0000 
     45 CA         -0.1860   15.2220   18.8000 C.3       9 GLL5        0.0000 
     46 CA         -4.4850   15.5870   19.2190 C.3       6 GLP5        0.0000 
     47 CA         -0.4943   23.4988   22.3338 C.3       3 GLC5        0.0000 
     48 CA         -0.9560   21.9070   21.6170 C.3       9 GLL5        0.0000 
     49 CA          0.4770   24.6960   23.4740 C.3       6 GLP5        0.0000 
@<TRIPOS>BOND
@<TRIPOS>SUBSTRUCTURE
     1 ALC1       10 GROUP        1 X    ALC  0     ROOT ALC X 1
     2 SEC2        1 GROUP        1 X    SEC  0     **** SEC X 2
     3 GLC5       13 GROUP        1 X    GLC  0     **** GLC X 6
     4 ALP1       12 GROUP        1 Y    ALP  0     ROOT ALP Y 8
     5 SEP2        3 GROUP        1 Y    SEP  0     **** SEP Y 9
     6 GLP5       15 GROUP        1 Y    GLP  0     **** GLP Y 13
     7 ALL1       11 GROUP        1 Z    ALL  0     ROOT ALL Z 15
     8 SEL2        2 GROUP        1 Z    SEL  0     **** SEL Z 16
     9 GLL5       14 GROUP        1 Z    GLL  0     **** GLL Z 20
@<TRIPOS>SET

