#    Name: 6upj_NIU_1_ligand
#    Modification time : Tue Mar 25 13:56:22 2014

@<TRIPOS>MOLECULE
6upj_NIU_1_ligand
   44    46     1     0     0
SMALL
NO_CHARGES


@<TRIPOS>ATOM
      1 CA         -0.3910   18.2260   20.7610 C.2       1 NIU100      0.0000 
      2 CA2        -1.5590   17.6530   21.3460 C.2       1 NIU100      0.0000 
      3 OA2        -1.7710   16.4940   21.2540 O.2       1 NIU100      0.0000 
      4 OA3        -2.5020   18.3810   21.9930 O.3       1 NIU100      0.0000 
      5 CA4        -2.2600   19.7610   22.0620 C.2       1 NIU100      0.0000 
      6 CA5        -1.1310   20.4070   21.5150 C.2       1 NIU100      0.0000 
      7 CA6        -0.1860   19.5920   20.8550 C.2       1 NIU100      0.0000 
      8 OA6         0.9740   20.0970   20.3010 O.3       1 NIU100      0.0000 
      9 CB1         0.0220   16.6320   18.7530 C.ar      1 NIU100      0.0000 
     10 CB2        -0.3250   17.3520   17.5770 C.ar      1 NIU100      0.0000 
     11 CB3        -0.8470   16.6580   16.4670 C.ar      1 NIU100      0.0000 
     12 CB4        -1.0470   15.2640   16.5180 C.ar      1 NIU100      0.0000 
     13 CB5        -0.7110   14.5580   17.6780 C.ar      1 NIU100      0.0000 
     14 CB6        -0.1860   15.2220   18.8000 C.ar      1 NIU100      0.0000 
     15 CG1         0.6250   17.3830   19.9550 C.3       1 NIU100      0.0000 
     16 CG2         1.6480   16.5950   20.7860 C.3       1 NIU100      0.0000 
     17 CG3         1.1130   15.4320   21.6200 C.3       1 NIU100      0.0000 
     18 CD1        -3.3620   20.5360   22.8040 C.3       1 NIU100      0.0000 
     19 CD2        -3.9960   21.7450   22.1160 C.3       1 NIU100      0.0000 
     20 CD3        -3.4120   22.1280   20.7460 C.3       1 NIU100      0.0000 
     21 CD4        -1.9750   22.6960   20.7700 C.3       1 NIU100      0.0000 
     22 CD5        -0.9560   21.9070   21.6170 C.3       1 NIU100      0.0000 
     23 H          -0.1954   18.3595   17.5427 H         1 NIU100      0.0000 
     24 H          -1.0844   17.1742   15.6111 H         1 NIU100      0.0000 
     25 H          -1.4357   14.7756   15.7094 H         1 NIU100      0.0000 
     26 H          -0.8492   13.5373   17.7132 H         1 NIU100      0.0000 
     27 H           0.0475   14.7072   19.6463 H         1 NIU100      0.0000 
     28 H           1.2937   18.2195   19.4295 H         1 NIU100      0.0000 
     29 H           2.1739   17.3075   21.4633 H         1 NIU100      0.0000 
     30 H           2.4358   16.2082   20.0985 H         1 NIU100      0.0000 
     31 H          -2.9492   20.8667   23.7939 H         1 NIU100      0.0000 
     32 H          -4.1768   19.8122   23.0721 H         1 NIU100      0.0000 
     33 H          -3.9147   22.6239   22.7906 H         1 NIU100      0.0000 
     34 H          -5.0842   21.5573   21.9939 H         1 NIU100      0.0000 
     35 H          -4.0765   22.8747   20.2716 H         1 NIU100      0.0000 
     36 H          -3.4259   21.2364   20.0910 H         1 NIU100      0.0000 
     37 H          -2.0146   23.7375   21.1433 H         1 NIU100      0.0000 
     38 H          -1.6018   22.7527   19.7292 H         1 NIU100      0.0000 
     39 H           0.0561   22.1827   21.2893 H         1 NIU100      0.0000 
     40 H          -1.0596   22.2193   22.6655 H         1 NIU100      0.0000 
     41 H           1.8416   14.9742   22.1294 H         1 NIU100      0.0000 
     42 H           0.4342   15.7358   22.2885 H         1 NIU100      0.0000 
     43 H           0.6730   14.7379   21.0502 H         1 NIU100      0.0000 
     44 H           0.6788   20.5754   19.4740 H         1 NIU100      0.0000 
@<TRIPOS>BOND
     1    2    1 1    
     2    7    1 2    
     3   15    1 1    
     4    3    2 2    
     5    4    2 1    
     6    5    4 1    
     7    6    5 2    
     8   18    5 1    
     9    7    6 1    
    10   22    6 1    
    11    8    7 1    
    12   44    8 1    
    13   10    9 ar   
    14   14    9 ar   
    15   15    9 1    
    16   11   10 ar   
    17   23   10 1    
    18   12   11 ar   
    19   24   11 1    
    20   13   12 ar   
    21   25   12 1    
    22   14   13 ar   
    23   26   13 1    
    24   27   14 1    
    25   16   15 1    
    26   28   15 1    
    27   17   16 1    
    28   29   16 1    
    29   30   16 1    
    30   41   17 1    
    31   42   17 1    
    32   43   17 1    
    33   19   18 1    
    34   31   18 1    
    35   32   18 1    
    36   20   19 1    
    37   33   19 1    
    38   34   19 1    
    39   21   20 1    
    40   35   20 1    
    41   36   20 1    
    42   22   21 1    
    43   37   21 1    
    44   38   21 1    
    45   39   22 1    
    46   40   22 1    
@<TRIPOS>SUBSTRUCTURE
     1 NIU100      1 GROUP   
@<TRIPOS>SET

