#    Name: 1qxo_FMN_2_INTS_M
#    Modification time : Tue Mar 25 00:03:38 2014

@<TRIPOS>MOLECULE
1qxo_FMN_2_INTS_M
   78     0    12     0     0
SMALL
NO_CHARGES


@<TRIPOS>ATOM
      1 N          25.1150    5.7615    3.9245 N.am      2 SEC2        0.0000 
      2 N          24.5460    6.5940    2.7340 N.am     10 SEL2        0.0000 
      3 N          25.6840    4.9290    5.1150 N.am      6 SEP2        0.0000 
      4 N          25.5490    5.8475    2.5820 N.am      2 SEC2        0.0000 
      5 N          26.5520    5.1010    2.4300 N.am      6 SEP2        0.0000 
      6 O          26.7265    8.4125    2.2225 O.2       1 ALC1        0.0000 
      7 O          25.3310    8.6850    2.4490 O.2       9 ALL1        0.0000 
      8 O          28.1220    8.1400    1.9960 O.2       5 ALP1        0.0000 
      9 CA         20.8275   17.3075    3.3155 C.3       4 GLC5        0.0000 
     10 CA         20.3050   15.5780    2.5940 C.3      12 GLL5        0.0000 
     11 CA         21.3500   19.0370    4.0370 C.3       8 GLP5        0.0000 
     12 CA         18.9235   16.4525    4.0515 C.3       4 GLC5        0.0000 
     13 CA         17.5420   17.3270    5.5090 C.3       8 GLP5        0.0000 
     14 CA         17.3580   14.2920    1.0480 C.3       4 GLC5        0.0000 
     15 CA         18.1660   13.8060    3.0560 C.3      12 GLL5        0.0000 
     16 CA         16.5500   14.7780   -0.9600 C.3       8 GLP5        0.0000 
     17 CA         16.1185   13.7880    3.0285 C.3       4 GLC5        0.0000 
     18 CA         14.0710   13.7700    3.0010 C.3       8 GLP5        0.0000 
     19 CA         17.9420   14.9170    4.6880 C.3       4 GLC5        0.0000 
     20 CA         17.7180   16.0280    6.3200 C.3       8 GLP5        0.0000 
     21 CA         18.7305   10.5465    4.4525 C.3       4 GLC5        0.0000 
     22 CA         19.8440   11.8370    2.9870 C.3      12 GLL5        0.0000 
     23 CA         17.6170    9.2560    5.9180 C.3       8 GLP5        0.0000 
     24 CA         19.0495    9.1185    4.4965 C.3       4 GLC5        0.0000 
     25 CA         20.4820    8.9810    3.0750 C.3      12 GLL5        0.0000 
     26 CA         21.4100    6.2845    1.3605 C.3       4 GLC5        0.0000 
     27 CA         20.2220    7.9980    1.9680 C.3      12 GLL5        0.0000 
     28 CA         22.5980    4.5710    0.7530 C.3       8 GLP5        0.0000 
     29 N          18.6610    9.0110   -0.1145 N.am      2 SEC2        0.0000 
     30 N          19.8750    8.6170    0.7190 N.am     10 SEL2        0.0000 
     31 N          17.4470    9.4050   -0.9480 N.am      6 SEP2        0.0000 
     32 CA         17.6660    7.8075    3.8680 C.3       4 GLC5        0.0000 
     33 CA         18.9880    7.0930    2.2550 C.3      12 GLL5        0.0000 
     34 CA         16.3440    8.5220    5.4810 C.3       8 GLP5        0.0000 
     35 CA         20.3155    5.9400    3.5810 C.3       4 GLC5        0.0000 
     36 CA         21.6430    4.7870    4.9070 C.3       8 GLP5        0.0000 
     37 CA         20.7080    5.2355    1.0580 C.3       4 GLC5        0.0000 
     38 CA         18.8180    5.9000    1.3630 C.3      12 GLL5        0.0000 
     39 N          17.9880    7.9210   -0.4485 N.am      2 SEC2        0.0000 
     40 N          18.5290    6.4370    0.0510 N.am     10 SEL2        0.0000 
     41 CA         16.3190    3.9045    0.9390 C.3       4 GLC5        0.0000 
     42 CA         17.8190    4.8430    1.8040 C.3      12 GLL5        0.0000 
     43 CA         14.8190    2.9660    0.0740 C.3       8 GLP5        0.0000 
     44 CA         19.2025    3.3515    1.7735 C.3       4 GLC5        0.0000 
     45 CA         20.5860    1.8600    1.7430 C.3       8 GLP5        0.0000 
     46 NZ         17.2255    4.7570    5.1310 N.4       3 LYC4        0.0000 
     47 NZ         16.7090    5.7720    4.3750 N.4      11 LYL4        0.0000 
     48 NZ         17.7420    3.7420    5.8870 N.4       7 LYP4        0.0000 
     49 N          17.2255    4.7570    5.1310 N.am      2 SEC2        0.0000 
     50 N          16.7090    5.7720    4.3750 N.am     10 SEL2        0.0000 
     51 N          17.7420    3.7420    5.8870 N.am      6 SEP2        0.0000 
     52 NZ         16.4900    3.8505    4.7345 N.4       3 LYC4        0.0000 
     53 NZ         15.2380    3.9590    3.5820 N.4      11 LYL4        0.0000 
     54 N          15.1185    3.1195    2.4720 N.am      2 SEC2        0.0000 
     55 N          15.2380    3.9590    3.5820 N.am     10 SEL2        0.0000 
     56 N          14.9990    2.2800    1.3620 N.am      6 SEP2        0.0000 
     57 N          16.4900    3.8505    4.7345 N.am      2 SEC2        0.0000 
     58 N          15.2600    7.5605    3.6205 N.am      2 SEC2        0.0000 
     59 N          14.5940    6.3970    3.1330 N.am     10 SEL2        0.0000 
     60 N          15.9260    8.7240    4.1080 N.am      6 SEP2        0.0000 
     61 CA         21.0785   12.6427    1.0943 C.3       4 GLC5        0.0000 
     62 CA         22.2390   12.2310    2.6820 C.3      12 GLL5        0.0000 
     63 CA         20.0780   12.3590   -0.4450 C.3       8 GLP5        0.0000 
     64 CA         23.0853   11.6118    4.3540 C.3       4 GLC5        0.0000 
     65 CA         24.4640   11.4340    5.9240 C.3       8 GLP5        0.0000 
     66 CA         22.6700   14.0932    4.0312 C.3       4 GLC5        0.0000 
     67 CA         23.2610   15.2600    5.4290 C.3       8 GLP5        0.0000 
     68 CA         20.2777   13.5940    1.1015 C.3       4 GLC5        0.0000 
     69 CA         20.6500   14.0800    2.7020 C.3      12 GLL5        0.0000 
     70 CA         21.8693   15.0445    4.0385 C.3       4 GLC5        0.0000 
     71 CA         19.4705   12.9273    1.2710 C.3       4 GLC5        0.0000 
     72 CA         19.5600   13.1850    2.9180 C.3      12 GLL5        0.0000 
     73 CA         20.2935   11.9757    1.2458 C.3       4 GLC5        0.0000 
     74 CA         18.0562   11.4391    2.1100 C.3       4 GLC5        0.0000 
     75 CA         16.7590   10.2120    1.2330 C.3       8 GLP5        0.0000 
     76 CA         21.3300    7.3143    3.8392 C.3       4 GLC5        0.0000 
     77 CA         22.3080    6.1390    5.1570 C.3       8 GLP5        0.0000 
     78 CA         18.2145    9.0016    1.8106 C.3       4 GLC5        0.0000 
@<TRIPOS>BOND
@<TRIPOS>SUBSTRUCTURE
     1 ALC1        6 GROUP        1 X    ALC  0     ROOT ALC X 1
     2 SEC2        1 GROUP        1 X    SEC  0     **** SEC X 2
     3 LYC4       46 GROUP        1 X    LYC  0     **** LYC X 4
     4 GLC5        9 GROUP        1 X    GLC  0     **** GLC X 6
     5 ALP1        8 GROUP        1 Y    ALP  0     ROOT ALP Y 8
     6 SEP2        3 GROUP        1 Y    SEP  0     **** SEP Y 9
     7 LYP4       48 GROUP        1 Y    LYP  0     **** LYP Y 11
     8 GLP5       11 GROUP        1 Y    GLP  0     **** GLP Y 13
     9 ALL1        7 GROUP        1 Z    ALL  0     ROOT ALL Z 15
    10 SEL2        2 GROUP        1 Z    SEL  0     **** SEL Z 16
    11 LYL4       47 GROUP        1 Z    LYL  0     **** LYL Z 18
    12 GLL5       10 GROUP        1 Z    GLL  0     **** GLL Z 20
@<TRIPOS>SET

