#    Name: 2i76_NDP_2_INTS_M
#    Modification time : Tue Mar 25 17:32:17 2014

@<TRIPOS>MOLECULE
2i76_NDP_2_INTS_M
   76     0    12     0     0
SMALL
NO_CHARGES


@<TRIPOS>ATOM
      1 CA         -1.0155   22.7875   51.4725 C.3       4 GLC5        0.0000 
      2 CA         -0.5620   21.6770   49.6060 C.3      12 GLL5        0.0000 
      3 CA         -1.4690   23.8980   53.3390 C.3       8 GLP5        0.0000 
      4 CA         -2.4140   22.9195   49.8355 C.3       4 GLC5        0.0000 
      5 CA         -4.2660   24.1620   50.0650 C.3       8 GLP5        0.0000 
      6 CA          1.1590   21.6625   51.5565 C.3       4 GLC5        0.0000 
      7 CA         -0.2030   20.4290   50.3240 C.3      12 GLL5        0.0000 
      8 CA          2.5210   22.8960   52.7890 C.3       8 GLP5        0.0000 
      9 CA          1.8435   20.1915   50.5545 C.3       4 GLC5        0.0000 
     10 CA          3.8900   19.9540   50.7850 C.3       8 GLP5        0.0000 
     11 N           1.9035   20.8035   51.4840 N.am      2 SEC2        0.0000 
     12 N           0.7440   20.7550   51.3760 N.am     10 SEL2        0.0000 
     13 N           3.0630   20.8520   51.5920 N.am      6 SEP2        0.0000 
     14 CA         -1.7660   22.5190   52.3280 C.3       4 GLC5        0.0000 
     15 CA         -2.0630   21.1400   51.3170 C.3      12 GLL5        0.0000 
     16 CA         -3.1645   22.6510   50.6910 C.3       4 GLC5        0.0000 
     17 CA         -3.0730   22.6725   54.1060 C.3       4 GLC5        0.0000 
     18 CA         -4.6770   21.4470   54.8730 C.3      12 GLL5        0.0000 
     19 CA         -5.7955   23.2910   54.4360 C.3       4 GLC5        0.0000 
     20 CA         -6.9140   25.1350   53.9990 C.3       8 GLP5        0.0000 
     21 CA         -2.8505   22.4320   52.9920 C.3       4 GLC5        0.0000 
     22 CA         -4.2320   20.9660   52.6450 C.3      12 GLL5        0.0000 
     23 NZ         -3.3385   27.2930   44.5050 N.4       3 LYC4        0.0000 
     24 NZ         -2.6530   26.0200   44.8530 N.4      11 LYL4        0.0000 
     25 NZ         -5.0070   28.9160   44.9830 N.4       7 LYP4        0.0000 
     26 N          -3.3385   27.2930   44.5050 N.am      2 SEC2        0.0000 
     27 N          -2.6530   26.0200   44.8530 N.am     10 SEL2        0.0000 
     28 N          -4.0240   28.5660   44.1570 N.am      6 SEP2        0.0000 
     29 CA         -3.3025   27.0710   46.8745 C.3       4 GLC5        0.0000 
     30 CA         -1.4770   27.5150   47.8430 C.3      12 GLL5        0.0000 
     31 CA         -5.1280   26.6270   45.9060 C.3       8 GLP5        0.0000 
     32 CA         -1.7740   26.5060   49.6590 C.3       4 GLC5        0.0000 
     33 CA         -2.0710   25.4970   51.4750 C.3       8 GLP5        0.0000 
     34 CA         -3.3980   26.8965   48.7135 C.3       4 GLC5        0.0000 
     35 CA         -5.3190   26.2780   49.5840 C.3       8 GLP5        0.0000 
     36 CA         -3.2695   30.3350   50.1835 C.3       4 GLC5        0.0000 
     37 CA         -2.5020   29.8360   48.3480 C.3      12 GLL5        0.0000 
     38 CA         -4.0370   30.8340   52.0190 C.3       8 GLP5        0.0000 
     39 CA         -3.0890   31.7840   49.1215 C.3       4 GLC5        0.0000 
     40 CA         -3.6760   33.7320   49.8950 C.3       8 GLP5        0.0000 
     41 O          -4.3660   31.2075   47.7510 O.2       1 ALC1        0.0000 
     42 O          -3.2820   31.7900   47.2040 O.2       9 ALL1        0.0000 
     43 O          -5.4500   30.6250   48.2980 O.2       5 ALP1        0.0000 
     44 CA          0.9520   29.9875   46.5220 C.3       4 GLC5        0.0000 
     45 CA         -0.9210   30.8330   46.8860 C.3      12 GLL5        0.0000 
     46 CA          2.8250   29.1420   46.1580 C.3       8 GLP5        0.0000 
     47 CA          0.5225   31.5910   48.0345 C.3       4 GLC5        0.0000 
     48 CA          1.9660   32.3490   49.1830 C.3       8 GLP5        0.0000 
     49 CA          0.8400   29.7205   45.2855 C.3       4 GLC5        0.0000 
     50 CA         -1.1450   30.2990   44.4130 C.3      12 GLL5        0.0000 
     51 N          -1.6220   29.5415   39.6840 N.am      2 SEC2        0.0000 
     52 N          -1.8340   30.3980   40.9120 N.am     10 SEL2        0.0000 
     53 N          -1.4100   28.6850   38.4560 N.am      6 SEP2        0.0000 
     54 O          -2.5735   27.9635   41.3730 O.2       1 ALC1        0.0000 
     55 O          -1.4200   28.4550   41.9540 O.2       9 ALL1        0.0000 
     56 O          -3.7270   27.4720   40.7920 O.2       5 ALP1        0.0000 
     57 CA          1.2785   32.1400   47.1800 C.3       4 GLC5        0.0000 
     58 CA          0.5910   31.9310   45.1770 C.3      12 GLL5        0.0000 
     59 N          -0.2950   16.9320   54.3695 N.am      2 SEC2        0.0000 
     60 N          -0.7370   16.9440   53.0500 N.am     10 SEL2        0.0000 
     61 N           0.1470   16.9200   55.6890 N.am      6 SEP2        0.0000 
     62 N           2.0475   19.4400   51.6625 N.am      2 SEC2        0.0000 
     63 N           1.0320   18.0280   51.7330 N.am     10 SEL2        0.0000 
     64 NZ         -0.3725   14.9305   50.3840 N.4       3 LYC4        0.0000 
     65 NZ         -0.7840   16.7880   50.5710 N.4      11 LYL4        0.0000 
     66 NZ          0.0390   13.0730   50.1970 N.4       7 LYP4        0.0000 
     67 CA         -4.5693   22.4615   51.2863 C.3       4 GLC5        0.0000 
     68 CA          0.4635   27.8255   48.8377 C.3       4 GLC5        0.0000 
     69 CA          2.2820   27.4030   49.6000 C.3       8 GLP5        0.0000 
     70 CA         -2.0743   32.4520   48.0422 C.3       4 GLC5        0.0000 
     71 CA         -2.4470   34.1750   49.1070 C.3       8 GLP5        0.0000 
     72 CA          1.8145   30.5895   45.3377 C.3       4 GLC5        0.0000 
     73 CA          0.5590   33.8315   44.7657 C.3       4 GLC5        0.0000 
     74 CA          0.3140   35.6260   45.0140 C.3       8 GLP5        0.0000 
     75 CA          2.4780   32.7355   44.8023 C.3       4 GLC5        0.0000 
     76 CA          4.1520   33.4340   45.0870 C.3       8 GLP5        0.0000 
@<TRIPOS>BOND
@<TRIPOS>SUBSTRUCTURE
     1 ALC1       41 GROUP        1 X    ALC  0     ROOT ALC X 1
     2 SEC2       11 GROUP        1 X    SEC  0     **** SEC X 2
     3 LYC4       23 GROUP        1 X    LYC  0     **** LYC X 4
     4 GLC5        1 GROUP        1 X    GLC  0     **** GLC X 6
     5 ALP1       43 GROUP        1 Y    ALP  0     ROOT ALP Y 8
     6 SEP2       13 GROUP        1 Y    SEP  0     **** SEP Y 9
     7 LYP4       25 GROUP        1 Y    LYP  0     **** LYP Y 11
     8 GLP5        3 GROUP        1 Y    GLP  0     **** GLP Y 13
     9 ALL1       42 GROUP        1 Z    ALL  0     ROOT ALL Z 15
    10 SEL2       12 GROUP        1 Z    SEL  0     **** SEL Z 16
    11 LYL4       24 GROUP        1 Z    LYL  0     **** LYL Z 18
    12 GLL5        2 GROUP        1 Z    GLL  0     **** GLL Z 20
@<TRIPOS>SET

