#    Name: 2i76_NDP_2_ligand
#    Modification time : Tue Mar 25 17:32:17 2014

@<TRIPOS>MOLECULE
2i76_NDP_2_ligand
   74    78     1     0     0
SMALL
NO_CHARGES


@<TRIPOS>ATOM
      1 PA         -1.7670   23.1390   46.2030 P.3       1 NDP301      0.0000 
      2 O1A        -0.8880   22.4450   45.2850 O.co2     1 NDP301      0.0000 
      3 O2A        -3.2790   22.9860   46.2060 O.co2     1 NDP301      0.0000 
      4 O5B        -1.1910   22.8490   47.7140 O.3       1 NDP301      0.0000 
      5 C5B        -1.0890   21.5030   48.1950 C.3       1 NDP301      0.0000 
      6 C4B        -0.5620   21.6770   49.6060 C.3       1 NDP301      0.0000 
      7 O4B        -1.7840   22.1320   50.3070 O.3       1 NDP301      0.0000 
      8 C3B        -0.2030   20.4290   50.3240 C.3       1 NDP301      0.0000 
      9 O3B         0.7440   20.7550   51.3760 O.3       1 NDP301      0.0000 
     10 C2B        -1.4040   19.8970   50.9050 C.3       1 NDP301      0.0000 
     11 O2B        -1.3150   18.8710   51.8960 O.3       1 NDP301      0.0000 
     12 C1B        -2.0630   21.1400   51.3170 C.3       1 NDP301      0.0000 
     13 N9A        -3.5050   20.8320   51.4840 N.pl3     1 NDP301      0.0000 
     14 C8A        -4.4250   20.3370   50.5200 C.2       1 NDP301      0.0000 
     15 N7A        -5.6180   20.1760   51.0580 N.2       1 NDP301      0.0000 
     16 C5A        -5.5130   20.5560   52.3700 C.ar      1 NDP301      0.0000 
     17 C6A        -6.4180   20.6160   53.4900 C.ar      1 NDP301      0.0000 
     18 N6A        -7.6910   20.2410   53.3470 N.pl3     1 NDP301      0.0000 
     19 N1A        -5.9780   21.0600   54.7100 N.ar      1 NDP301      0.0000 
     20 C2A        -4.6770   21.4470   54.8730 C.ar      1 NDP301      0.0000 
     21 N3A        -3.7490   21.4210   53.8810 N.ar      1 NDP301      0.0000 
     22 C4A        -4.2320   20.9660   52.6450 C.ar      1 NDP301      0.0000 
     23 O3         -1.4410   24.6690   46.2250 O.3       1 NDP301      0.0000 
     24 PN         -1.3790   26.1740   45.5400 P.3       1 NDP301      0.0000 
     25 O1N        -2.6530   26.0200   44.8530 O.co2     1 NDP301      0.0000 
     26 O2N        -0.0880   25.9770   44.8070 O.co2     1 NDP301      0.0000 
     27 O5D        -1.2460   27.4990   46.4030 O.3       1 NDP301      0.0000 
     28 C5D        -1.4770   27.5150   47.8430 C.3       1 NDP301      0.0000 
     29 C4D        -1.2330   28.9810   48.3080 C.3       1 NDP301      0.0000 
     30 O4D        -0.3410   29.6280   47.3900 O.3       1 NDP301      0.0000 
     31 C3D        -2.5020   29.8360   48.3480 C.3       1 NDP301      0.0000 
     32 O3D        -2.4860   30.6370   49.5300 O.3       1 NDP301      0.0000 
     33 C2D        -2.4820   30.6250   47.0690 C.3       1 NDP301      0.0000 
     34 O2D        -3.2820   31.7900   47.2040 O.3       1 NDP301      0.0000 
     35 C1D        -0.9210   30.8330   46.8860 C.3       1 NDP301      0.0000 
     36 N1N        -0.4740   31.0270   45.4610 N.pl3     1 NDP301      0.0000 
     37 C2N        -1.1450   30.2990   44.4130 C.2       1 NDP301      0.0000 
     38 C3N        -0.6870   30.5380   43.0440 C.2       1 NDP301      0.0000 
     39 C7N        -1.3390   29.8220   41.9230 C.2       1 NDP301      0.0000 
     40 O7N        -1.8340   30.3980   40.9120 O.2       1 NDP301      0.0000 
     41 N7N        -1.4200   28.4550   41.9540 N.am      1 NDP301      0.0000 
     42 C4N         0.3880   31.4580   42.8370 C.3       1 NDP301      0.0000 
     43 C5N         1.0170   32.1430   43.8580 C.2       1 NDP301      0.0000 
     44 C6N         0.5910   31.9310   45.1770 C.2       1 NDP301      0.0000 
     45 P2B        -0.4060   17.6240   51.7970 P.3       1 NDP301      0.0000 
     46 O1X        -0.7370   16.9440   53.0500 O.co2     1 NDP301      0.0000 
     47 O2X         1.0320   18.0280   51.7330 O.co2     1 NDP301      0.0000 
     48 O3X        -0.7840   16.7880   50.5710 O.co2     1 NDP301      0.0000 
     49 H          -0.3817   20.9271   47.6336 H         1 NDP301      0.0000 
     50 H          -2.0432   21.0189   48.2428 H         1 NDP301      0.0000 
     51 H           0.1583   22.4095   49.6591 H         1 NDP301      0.0000 
     52 H           0.2256   19.7379   49.6319 H         1 NDP301      0.0000 
     53 H          -2.0300   19.5327   50.0272 H         1 NDP301      0.0000 
     54 H          -1.6493   21.4387   52.2715 H         1 NDP301      0.0000 
     55 H          -4.1553   20.1593   49.6023 H         1 NDP301      0.0000 
     56 H          -8.2650   20.3122   54.1628 H         1 NDP301      0.0000 
     57 H          -7.9563   19.9225   52.4370 H         1 NDP301      0.0000 
     58 H          -4.3766   21.7884   55.8354 H         1 NDP301      0.0000 
     59 H          -0.7818   26.8836   48.3667 H         1 NDP301      0.0000 
     60 H          -2.4916   27.2565   48.0883 H         1 NDP301      0.0000 
     61 H          -0.8034   28.9596   49.2948 H         1 NDP301      0.0000 
     62 H          -3.3347   29.1544   48.3230 H         1 NDP301      0.0000 
     63 H          -2.7895   29.9581   46.2866 H         1 NDP301      0.0000 
     64 H          -0.6397   31.6658   47.4926 H         1 NDP301      0.0000 
     65 H          -1.8782   29.6682   44.5993 H         1 NDP301      0.0000 
     66 H          -1.9017   28.0253   41.1902 H         1 NDP301      0.0000 
     67 H          -0.9904   28.0064   42.7377 H         1 NDP301      0.0000 
     68 H           0.0326   32.2268   42.0253 H         1 NDP301      0.0000 
     69 H           1.1982   30.9030   42.1953 H         1 NDP301      0.0000 
     70 H           1.7786   32.7934   43.6662 H         1 NDP301      0.0000 
     71 H           1.0437   32.4264   45.9523 H         1 NDP301      0.0000 
     72 H           1.0582   19.8717   51.7241 H         1 NDP301      0.0000 
     73 H          -2.8056   31.5379   49.2363 H         1 NDP301      0.0000 
     74 H          -4.1328   31.4725   47.6228 H         1 NDP301      0.0000 
@<TRIPOS>BOND
     1    2    1 ar   
     2    3    1 ar   
     3    4    1 1    
     4   23    1 1    
     5    5    4 1    
     6    6    5 1    
     7   49    5 1    
     8   50    5 1    
     9    7    6 1    
    10    8    6 1    
    11   51    6 1    
    12   12    7 1    
    13    9    8 1    
    14   10    8 1    
    15   52    8 1    
    16   72    9 1    
    17   11   10 1    
    18   12   10 1    
    19   53   10 1    
    20   45   11 1    
    21   13   12 1    
    22   54   12 1    
    23   14   13 1    
    24   22   13 1    
    25   15   14 2    
    26   55   14 1    
    27   16   15 1    
    28   17   16 ar   
    29   22   16 ar   
    30   18   17 1    
    31   19   17 ar   
    32   56   18 1    
    33   57   18 1    
    34   20   19 ar   
    35   21   20 ar   
    36   58   20 1    
    37   22   21 ar   
    38   24   23 1    
    39   25   24 ar   
    40   26   24 ar   
    41   27   24 1    
    42   28   27 1    
    43   29   28 1    
    44   59   28 1    
    45   60   28 1    
    46   30   29 1    
    47   31   29 1    
    48   61   29 1    
    49   35   30 1    
    50   32   31 1    
    51   33   31 1    
    52   62   31 1    
    53   73   32 1    
    54   34   33 1    
    55   35   33 1    
    56   63   33 1    
    57   74   34 1    
    58   36   35 1    
    59   64   35 1    
    60   37   36 1    
    61   44   36 1    
    62   38   37 2    
    63   65   37 1    
    64   39   38 1    
    65   42   38 1    
    66   40   39 2    
    67   41   39 am   
    68   66   41 1    
    69   67   41 1    
    70   43   42 1    
    71   68   42 1    
    72   69   42 1    
    73   44   43 2    
    74   70   43 1    
    75   71   44 1    
    76   46   45 ar   
    77   47   45 ar   
    78   48   45 ar   
@<TRIPOS>SUBSTRUCTURE
     1 NDP301      1 GROUP   
@<TRIPOS>SET

