#    Name: 3um5_UMP_4_INTS_M
#    Modification time : Mon Mar 24 22:56:19 2014

@<TRIPOS>MOLECULE
3um5_UMP_4_INTS_M
   63     0    12     0     0
SMALL
NO_CHARGES


@<TRIPOS>ATOM
      1 O          18.1035   11.2940    8.2315 O.2       1 ALC1        0.0000 
      2 O          17.1860   12.3250    8.0540 O.2       9 ALL1        0.0000 
      3 O          19.0210   10.2630    8.4090 O.2       5 ALP1        0.0000 
      4 N          15.8480   11.4100   11.4225 N.am      2 SEC2        0.0000 
      5 N          16.3320   11.8510   10.1300 N.am     10 SEL2        0.0000 
      6 N          15.3640   10.9690   12.7150 N.am      6 SEP2        0.0000 
      7 N          18.4670   11.3850    6.0685 N.am      2 SEC2        0.0000 
      8 N          18.0420   12.8050    5.9510 N.am     10 SEL2        0.0000 
      9 N          18.8920    9.9650    6.1860 N.am      6 SEP2        0.0000 
     10 N          13.0275   13.9345   13.5585 N.am      2 SEC2        0.0000 
     11 N          12.6600   14.4680   12.2900 N.am     10 SEL2        0.0000 
     12 N          13.3950   13.4010   14.8270 N.am      6 SEP2        0.0000 
     13 N          11.3260   14.6015   12.8180 N.am      2 SEC2        0.0000 
     14 N           9.9920   14.7350   13.3460 N.am      6 SEP2        0.0000 
     15 CA         15.5375   17.1825    9.6345 C.3       4 GLC5        0.0000 
     16 CA         13.5670   17.5180   10.2320 C.3      12 GLL5        0.0000 
     17 CA         17.5080   16.8470    9.0370 C.3       8 GLP5        0.0000 
     18 N          12.4305   17.9180   12.6675 N.am      2 SEC2        0.0000 
     19 N          13.1320   18.4710   11.2460 N.am     10 SEL2        0.0000 
     20 N          11.7290   17.3650   14.0890 N.am      6 SEP2        0.0000 
     21 N          12.0865   19.6455   11.4980 N.am      2 SEC2        0.0000 
     22 N          11.0410   20.8200   11.7500 N.am      6 SEP2        0.0000 
     23 N          11.9190   19.1225   10.4855 N.am      2 SEC2        0.0000 
     24 N          10.7060   19.7740    9.7250 N.am      6 SEP2        0.0000 
     25 NZ         12.9060   18.7310   14.0895 N.4       3 LYC4        0.0000 
     26 NZ         13.4030   20.2310   12.9630 N.4      11 LYL4        0.0000 
     27 NZ         12.4090   17.2310   15.2160 N.4       7 LYP4        0.0000 
     28 NZ         12.2220   20.5255   12.3565 N.4       3 LYC4        0.0000 
     29 NZ         10.2900   20.6050   10.6730 N.4       7 LYP4        0.0000 
     30 N          12.2220   20.5255   12.3565 N.am      2 SEC2        0.0000 
     31 N          13.4030   20.2310   12.9630 N.am     10 SEL2        0.0000 
     32 NZ         14.3715   17.8910   13.9910 N.4       3 LYC4        0.0000 
     33 NZ         15.0090   18.4610   12.7700 N.4      11 LYL4        0.0000 
     34 NZ         16.3670   19.0920   12.6575 N.4       3 LYC4        0.0000 
     35 NZ         18.3250   20.1530   11.4440 N.4       7 LYP4        0.0000 
     36 N          14.3715   17.8910   13.9910 N.am      2 SEC2        0.0000 
     37 N          15.0090   18.4610   12.7700 N.am     10 SEL2        0.0000 
     38 N          13.7340   17.3210   15.2120 N.am      6 SEP2        0.0000 
     39 N          16.3670   19.0920   12.6575 N.am      2 SEC2        0.0000 
     40 N          17.7250   19.7230   12.5450 N.am      6 SEP2        0.0000 
     41 N          15.4860   17.3075   13.2545 N.am      2 SEC2        0.0000 
     42 N          15.9630   16.1540   13.7390 N.am      6 SEP2        0.0000 
     43 NZ         14.2185   21.4335   10.5560 N.4       3 LYC4        0.0000 
     44 NZ         14.8550   20.2530   11.1500 N.4      11 LYL4        0.0000 
     45 NZ         14.1910   23.4960   10.7410 N.4       7 LYP4        0.0000 
     46 NZ         16.2300   20.3070   10.7505 N.4       3 LYC4        0.0000 
     47 N          14.9840   21.6665   11.3750 N.am      2 SEC2        0.0000 
     48 N          14.8550   20.2530   11.1500 N.am     10 SEL2        0.0000 
     49 N          15.1130   23.0800   11.6000 N.am      6 SEP2        0.0000 
     50 N          14.2185   21.4335   10.5560 N.am      2 SEC2        0.0000 
     51 N          13.5820   22.6140    9.9620 N.am      6 SEP2        0.0000 
     52 N          16.2900   19.9880   11.8475 N.am      2 SEC2        0.0000 
     53 N          16.2300   20.3070   10.7505 N.am      2 SEC2        0.0000 
     54 N          17.6050   20.3610   10.3510 N.am      6 SEP2        0.0000 
     55 CA         16.7045   15.5890    8.1555 C.3       4 GLC5        0.0000 
     56 CA         15.4670   14.4540    7.8050 C.3      12 GLL5        0.0000 
     57 CA         16.0742   15.6240    9.8253 C.3       4 GLC5        0.0000 
     58 CA         14.4330   14.1270    9.9320 C.3      12 GLL5        0.0000 
     59 CA         13.9603   12.5505   11.0392 C.3       4 GLC5        0.0000 
     60 CA         14.8480   14.6750   11.2950 C.3      12 GLL5        0.0000 
     61 CA         13.2800   10.7000   11.4650 C.3       8 GLP5        0.0000 
     62 CA         15.7640   15.7635   12.4570 C.3       4 GLC5        0.0000 
     63 CA         17.3000   16.4610   13.3840 C.3       8 GLP5        0.0000 
@<TRIPOS>BOND
@<TRIPOS>SUBSTRUCTURE
     1 ALC1        1 GROUP        1 X    ALC  0     ROOT ALC X 1
     2 SEC2        4 GROUP        1 X    SEC  0     **** SEC X 2
     3 LYC4       25 GROUP        1 X    LYC  0     **** LYC X 4
     4 GLC5       15 GROUP        1 X    GLC  0     **** GLC X 6
     5 ALP1        3 GROUP        1 Y    ALP  0     ROOT ALP Y 8
     6 SEP2        6 GROUP        1 Y    SEP  0     **** SEP Y 9
     7 LYP4       27 GROUP        1 Y    LYP  0     **** LYP Y 11
     8 GLP5       17 GROUP        1 Y    GLP  0     **** GLP Y 13
     9 ALL1        2 GROUP        1 Z    ALL  0     ROOT ALL Z 15
    10 SEL2        5 GROUP        1 Z    SEL  0     **** SEL Z 16
    11 LYL4       26 GROUP        1 Z    LYL  0     **** LYL Z 18
    12 GLL5       16 GROUP        1 Z    GLL  0     **** GLL Z 20
@<TRIPOS>SET

