#    Name: 3um5_UMP_4_ligand
#    Modification time : Mon Mar 24 22:56:20 2014

@<TRIPOS>MOLECULE
3um5_UMP_4_ligand
   31    32     1     0     0
SMALL
NO_CHARGES


@<TRIPOS>ATOM
      1 N1         15.4530   13.6850    8.9280 N.am      1 UMP711      0.0000 
      2 C2         16.3140   12.5690    9.1310 C.2       1 UMP711      0.0000 
      3 N3         17.1860   12.3250    8.0540 N.am      1 UMP711      0.0000 
      4 C4         17.2610   13.0780    6.8490 C.2       1 UMP711      0.0000 
      5 C5         16.3350   14.2080    6.7430 C.2       1 UMP711      0.0000 
      6 C6         15.4670   14.4540    7.8050 C.2       1 UMP711      0.0000 
      7 O2         16.3320   11.8510   10.1300 O.2       1 UMP711      0.0000 
      8 O4         18.0420   12.8050    5.9510 O.2       1 UMP711      0.0000 
      9 C1'        14.4330   14.1270    9.9320 C.3       1 UMP711      0.0000 
     10 C2'        14.8480   14.6750   11.2950 C.3       1 UMP711      0.0000 
     11 C3'        13.6080   15.4570   11.7650 C.3       1 UMP711      0.0000 
     12 C4'        12.9800   16.1260   10.5220 C.3       1 UMP711      0.0000 
     13 O3'        12.6600   14.4680   12.2900 O.3       1 UMP711      0.0000 
     14 O4'        13.4850   15.2110    9.4740 O.3       1 UMP711      0.0000 
     15 C5'        13.5670   17.5180   10.2320 C.3       1 UMP711      0.0000 
     16 O5'        13.1320   18.4710   11.2460 O.3       1 UMP711      0.0000 
     17 P          14.1220   19.3810   12.0460 P.3       1 UMP711      0.0000 
     18 OP1        13.4030   20.2310   12.9630 O.co2     1 UMP711      0.0000 
     19 OP2        15.0090   18.4610   12.7700 O.co2     1 UMP711      0.0000 
     20 OP3        14.8550   20.2530   11.1500 O.co2     1 UMP711      0.0000 
     21 H          17.8543   11.5016    8.1432 H         1 UMP711      0.0000 
     22 H          16.3507   14.7718    5.9123 H         1 UMP711      0.0000 
     23 H          14.8056   15.2645    7.7228 H         1 UMP711      0.0000 
     24 H          13.7439   13.2572   10.1756 H         1 UMP711      0.0000 
     25 H          15.6644   15.3398   11.1853 H         1 UMP711      0.0000 
     26 H          15.0372   13.8771   11.9643 H         1 UMP711      0.0000 
     27 H          13.8780   16.1694   12.4634 H         1 UMP711      0.0000 
     28 H          11.9660   16.1127   10.5736 H         1 UMP711      0.0000 
     29 H          13.2350   17.8226    9.2356 H         1 UMP711      0.0000 
     30 H          14.6567   17.4275   10.2168 H         1 UMP711      0.0000 
     31 H          12.5011   13.8346   11.5327 H         1 UMP711      0.0000 
@<TRIPOS>BOND
     1    2    1 1    
     2    6    1 1    
     3    9    1 1    
     4    3    2 1    
     5    7    2 2    
     6    4    3 1    
     7   21    3 1    
     8    5    4 1    
     9    8    4 2    
    10    6    5 2    
    11   22    5 1    
    12   23    6 1    
    13   10    9 1    
    14   14    9 1    
    15   24    9 1    
    16   11   10 1    
    17   25   10 1    
    18   26   10 1    
    19   12   11 1    
    20   13   11 1    
    21   27   11 1    
    22   14   12 1    
    23   15   12 1    
    24   28   12 1    
    25   31   13 1    
    26   16   15 1    
    27   29   15 1    
    28   30   15 1    
    29   17   16 1    
    30   18   17 ar   
    31   19   17 ar   
    32   20   17 ar   
@<TRIPOS>SUBSTRUCTURE
     1 UMP711      1 GROUP   
@<TRIPOS>SET

