#    Name: 1b16_NAQ_1_INTS_M
#    Modification time : Mon Mar 24 19:14:41 2014

@<TRIPOS>MOLECULE
1b16_NAQ_1_INTS_M
  133     0     9     0     0
SMALL
NO_CHARGES


@<TRIPOS>ATOM
      1 N           7.4855  -11.1545   -3.1780 N.am      2 SEC2        0.0000 
      2 N           6.6690  -11.3810   -2.0200 N.am      8 SEL2        0.0000 
      3 N           8.3020  -10.9280   -4.3360 N.am      5 SEP2        0.0000 
      4 N          11.2260  -10.8055    3.3035 N.am      2 SEC2        0.0000 
      5 N          11.1780  -11.9350    2.1020 N.am      8 SEL2        0.0000 
      6 N          11.2740   -9.6760    4.5050 N.am      5 SEP2        0.0000 
      7 O          12.9690  -14.4860    0.0760 O.2       1 ALC1        0.0000 
      8 O          12.0380  -13.2800   -0.5790 O.2       7 ALL1        0.0000 
      9 O          13.9000  -15.6920    0.7310 O.2       4 ALP1        0.0000 
     10 O          12.9325  -14.2860   -1.0005 O.2       1 ALC1        0.0000 
     11 O          13.8270  -15.2920   -1.4220 O.2       4 ALP1        0.0000 
     12 O          12.6405  -15.5655    0.9305 O.2       1 ALC1        0.0000 
     13 O          11.3810  -15.4390    1.1300 O.2       7 ALL1        0.0000 
     14 CA         13.0270  -12.3850    1.5810 C.3       3 GLC5        0.0000 
     15 CA         11.6020  -13.1970    2.2460 C.3       9 GLL5        0.0000 
     16 CA         14.4520  -11.5730    0.9160 C.3       6 GLP5        0.0000 
     17 CA         12.6075  -11.6230    3.1145 C.3       3 GLC5        0.0000 
     18 CA         13.6130  -10.0490    3.9830 C.3       6 GLP5        0.0000 
     19 CA         11.8735  -12.9610    6.8645 C.3       3 GLC5        0.0000 
     20 CA         12.0900  -14.5910    5.5720 C.3       9 GLL5        0.0000 
     21 CA         11.6570  -11.3310    8.1570 C.3       6 GLP5        0.0000 
     22 CA         14.7900  -16.5130    6.8990 C.3       3 GLC5        0.0000 
     23 CA         13.0070  -15.2150    6.5840 C.3       9 GLL5        0.0000 
     24 CA         16.5730  -17.8110    7.2140 C.3       6 GLP5        0.0000 
     25 CA         14.1910  -13.9675    7.5355 C.3       3 GLC5        0.0000 
     26 CA         15.3750  -12.7200    8.4870 C.3       6 GLP5        0.0000 
     27 CA         11.5570  -14.4770    8.0450 C.3       3 GLC5        0.0000 
     28 CA         10.1070  -13.7390    9.5060 C.3       6 GLP5        0.0000 
     29 O          13.6390  -16.4700    8.5185 O.2       1 ALC1        0.0000 
     30 O          12.6600  -15.6190    7.7740 O.2       7 ALL1        0.0000 
     31 O          14.6180  -17.3210    9.2630 O.2       4 ALP1        0.0000 
     32 N          15.5260  -15.4125    7.0505 N.am      2 SEC2        0.0000 
     33 N          14.3270  -15.3530    6.1190 N.am      8 SEL2        0.0000 
     34 N          16.7250  -15.4720    7.9820 N.am      5 SEP2        0.0000 
     35 CA         13.9210  -16.7430    4.3085 C.3       3 GLC5        0.0000 
     36 CA         14.7430  -14.9810    4.9100 C.3       9 GLL5        0.0000 
     37 CA         13.0990  -18.5050    3.7070 C.3       6 GLP5        0.0000 
     38 CA         15.6580  -16.3960    6.0620 C.3       3 GLC5        0.0000 
     39 CA         15.9750  -13.8600    5.8410 C.3       3 GLC5        0.0000 
     40 CA         17.2070  -12.7390    6.7720 C.3       6 GLP5        0.0000 
     41 CA         14.5090  -13.0015    4.9315 C.3       3 GLC5        0.0000 
     42 CA         14.2750  -11.0220    4.9530 C.3       6 GLP5        0.0000 
     43 CA         12.8350  -16.3585    4.0155 C.3       3 GLC5        0.0000 
     44 CA         12.5710  -14.2120    4.3240 C.3       9 GLL5        0.0000 
     45 N           5.2885   -7.5240   -1.8610 N.am      2 SEC2        0.0000 
     46 N           6.4470   -7.2110   -1.2780 N.am      8 SEL2        0.0000 
     47 N           4.1300   -7.8370   -2.4440 N.am      5 SEP2        0.0000 
     48 N           8.7080   -8.3695   -3.6410 N.am      2 SEC2        0.0000 
     49 N           8.3830   -8.5990   -2.2620 N.am      8 SEL2        0.0000 
     50 N           9.0330   -8.1400   -5.0200 N.am      5 SEP2        0.0000 
     51 CA          9.9975   -6.7355   -2.1530 C.3       3 GLC5        0.0000 
     52 CA          9.9570   -7.4340   -0.1100 C.3       9 GLL5        0.0000 
     53 CA         10.0380   -6.0370   -4.1960 C.3       6 GLP5        0.0000 
     54 CA         11.6795   -4.8520    0.6920 C.3       3 GLC5        0.0000 
     55 CA         10.5450   -6.4070    0.8170 C.3       9 GLL5        0.0000 
     56 CA         12.8140   -3.2970    0.5670 C.3       6 GLP5        0.0000 
     57 N          11.1795   -5.1510    4.1625 N.am      2 SEC2        0.0000 
     58 N          11.1910   -6.1630    3.1280 N.am      8 SEL2        0.0000 
     59 N          11.1680   -4.1390    5.1970 N.am      5 SEP2        0.0000 
     60 O          12.1770   -7.2705    2.5160 O.2       1 ALC1        0.0000 
     61 O          11.1910   -6.1630    3.1280 O.2       7 ALL1        0.0000 
     62 O          13.1630   -8.3780    1.9040 O.2       4 ALP1        0.0000 
     63 CA          7.0380   -6.1615    2.3405 C.3       3 GLC5        0.0000 
     64 CA          8.9280   -5.7390    2.5480 C.3       9 GLL5        0.0000 
     65 CA          5.1480   -6.5840    2.1330 C.3       6 GLP5        0.0000 
     66 N           9.9800   -4.7945    4.5455 N.am      2 SEC2        0.0000 
     67 N           8.7920   -5.4500    3.8940 N.am      8 SEL2        0.0000 
     68 O           7.7135   -4.6465    4.2945 O.2       1 ALC1        0.0000 
     69 O           8.7920   -5.4500    3.8940 O.2       7 ALL1        0.0000 
     70 O           6.6350   -3.8430    4.6950 O.2       4 ALP1        0.0000 
     71 CA         11.0465   -3.9350    1.1235 C.3       3 GLC5        0.0000 
     72 CA          9.2790   -4.5730    1.6800 C.3       9 GLL5        0.0000 
     73 N           3.7210   -2.1375   -2.2330 N.am      2 SEC2        0.0000 
     74 N           4.1780   -2.6690   -1.0290 N.am      8 SEL2        0.0000 
     75 N           3.2640   -1.6060   -3.4370 N.am      5 SEP2        0.0000 
     76 O           3.9385   -4.6325   -2.4850 O.2       1 ALC1        0.0000 
     77 O           4.9760   -4.8490   -1.2650 O.2       7 ALL1        0.0000 
     78 O           2.9010   -4.4160   -3.7050 O.2       4 ALP1        0.0000 
     79 CA          9.5685   -1.1765    0.4695 C.3       3 GLC5        0.0000 
     80 CA          8.4850   -2.3270    1.4680 C.3       9 GLL5        0.0000 
     81 CA         10.6520   -0.0260   -0.5290 C.3       6 GLP5        0.0000 
     82 CA          5.4525    2.0940    1.7075 C.3       3 GLC5        0.0000 
     83 CA          5.1620    0.3690    1.5040 C.3       9 GLL5        0.0000 
     84 CA          5.7430    3.8190    1.9110 C.3       6 GLP5        0.0000 
     85 CA          4.7255    0.7995    3.4915 C.3       3 GLC5        0.0000 
     86 CA          4.2890    1.2300    5.4790 C.3       6 GLP5        0.0000 
     87 CA          5.3535    1.5345   -0.0595 C.3       3 GLC5        0.0000 
     88 CA          5.5450    2.7000   -1.6230 C.3       6 GLP5        0.0000 
     89 N           6.6025   -0.6640    3.8060 N.am      2 SEC2        0.0000 
     90 N           5.8520   -1.7190    3.5550 N.am      8 SEL2        0.0000 
     91 N           7.3530    0.3910    4.0570 N.am      5 SEP2        0.0000 
     92 N           6.2435   -2.7810    4.1250 N.am      2 SEC2        0.0000 
     93 N           6.6350   -3.8430    4.6950 N.am      5 SEP2        0.0000 
     94 CA          4.9835   -3.4845    4.2920 C.3       3 GLC5        0.0000 
     95 CA          3.9300   -3.0410    2.6450 C.3       9 GLL5        0.0000 
     96 CA          6.0370   -3.9280    5.9390 C.3       6 GLP5        0.0000 
     97 CA          4.5390   -4.8125    2.3890 C.3       3 GLC5        0.0000 
     98 CA          1.7145   -1.0985    4.0595 C.3       3 GLC5        0.0000 
     99 CA          2.6960   -2.3620    3.2530 C.3       9 GLL5        0.0000 
    100 CA          0.7330    0.1650    4.8660 C.3       6 GLP5        0.0000 
    101 CA          4.0145   -2.5980    4.8260 C.3       3 GLC5        0.0000 
    102 CA          5.3330   -2.8340    6.3990 C.3       6 GLP5        0.0000 
    103 CA          2.1445   -0.8915    1.9955 C.3       3 GLC5        0.0000 
    104 CA          1.5930    0.5790    0.7380 C.3       6 GLP5        0.0000 
    105 CA          0.6190   -1.8765    2.5395 C.3       3 GLC5        0.0000 
    106 CA         -1.4580   -1.3910    1.8260 C.3       6 GLP5        0.0000 
    107 CA         12.5555  -12.0628    0.6813 C.3       3 GLC5        0.0000 
    108 CA         10.5770  -11.8350    0.7550 C.3       9 GLL5        0.0000 
    109 CA         10.2740  -12.5362   -1.4638 C.3       3 GLC5        0.0000 
    110 CA          9.8890  -12.5200   -3.3740 C.3       6 GLP5        0.0000 
    111 CA         12.0557  -16.7435    5.8875 C.3       3 GLC5        0.0000 
    112 CA         11.5630  -18.5840    5.6970 C.3       6 GLP5        0.0000 
    113 CA         13.3027  -12.7118    4.9505 C.3       3 GLC5        0.0000 
    114 CA          9.8745   -7.5928    3.8450 C.3       3 GLC5        0.0000 
    115 CA         10.1720   -6.6200    2.3400 C.3       9 GLL5        0.0000 
    116 CA         10.1990   -9.0060    5.2460 C.3       6 GLP5        0.0000 
    117 CA          9.5593   -4.3585    4.0395 C.3       3 GLC5        0.0000 
    118 CA         10.0150   -3.5610    5.9650 C.3       6 GLP5        0.0000 
    119 CA          7.6182   -3.9745   -1.2872 C.3       3 GLC5        0.0000 
    120 CA          7.0640   -4.0490    0.5400 C.3       9 GLL5        0.0000 
    121 CA          8.5800   -4.3990   -2.9090 C.3       6 GLP5        0.0000 
    122 CA          5.9022   -5.0670    1.2338 C.3       3 GLC5        0.0000 
    123 CA          8.3852   -0.9085    2.7837 C.3       3 GLC5        0.0000 
    124 CA          7.6200   -1.3430    1.0410 C.3       9 GLL5        0.0000 
    125 CA          8.7180    0.0180    4.3130 C.3       6 GLP5        0.0000 
    126 CA          7.9150   -1.0324   -0.7236 C.3       3 GLC5        0.0000 
    127 CA          8.8650   -0.2180   -2.0940 C.3       6 GLP5        0.0000 
    128 CA          3.3812    0.0938    1.0573 C.3       3 GLC5        0.0000 
    129 CA          5.1770   -1.1520    1.2490 C.3       9 GLL5        0.0000 
    130 CA          2.4530   -4.3123    3.7800 C.3       3 GLC5        0.0000 
    131 CA          1.5930   -5.9230    4.6110 C.3       6 GLP5        0.0000 
    132 CA          2.3510   -3.7968    1.7250 C.3       3 GLC5        0.0000 
    133 CA          1.3890   -4.8920    0.5010 C.3       6 GLP5        0.0000 
@<TRIPOS>BOND
@<TRIPOS>SUBSTRUCTURE
     1 ALC1        7 GROUP        1 X    ALC  0     ROOT ALC X 1
     2 SEC2        1 GROUP        1 X    SEC  0     **** SEC X 2
     3 GLC5       14 GROUP        1 X    GLC  0     **** GLC X 6
     4 ALP1        9 GROUP        1 Y    ALP  0     ROOT ALP Y 8
     5 SEP2        3 GROUP        1 Y    SEP  0     **** SEP Y 9
     6 GLP5       16 GROUP        1 Y    GLP  0     **** GLP Y 13
     7 ALL1        8 GROUP        1 Z    ALL  0     ROOT ALL Z 15
     8 SEL2        2 GROUP        1 Z    SEL  0     **** SEL Z 16
     9 GLL5       15 GROUP        1 Z    GLL  0     **** GLL Z 20
@<TRIPOS>SET

