#    Name: 1b16_NAQ_1_ligand
#    Modification time : Mon Mar 24 19:14:41 2014

@<TRIPOS>MOLECULE
1b16_NAQ_1_ligand
   84    88     1     0     0
SMALL
NO_CHARGES


@<TRIPOS>ATOM
      1 PA          7.0350  -11.0060   -0.5640 P.3       1 NAQ600      0.0000 
      2 O1A         6.2730  -11.7040    0.5250 O.co2     1 NAQ600      0.0000 
      3 O2A         6.6690  -11.3810   -2.0200 O.co2     1 NAQ600      0.0000 
      4 O5'         8.5950  -11.2640   -0.3940 O.3       1 NAQ600      0.0000 
      5 C5'         9.1620  -11.4720    0.9830 C.3       1 NAQ600      0.0000 
      6 C4'        10.5770  -11.8350    0.7550 C.3       1 NAQ600      0.0000 
      7 O4'        11.1780  -11.9350    2.1020 O.3       1 NAQ600      0.0000 
      8 C3'        10.7410  -13.2700    0.1380 C.3       1 NAQ600      0.0000 
      9 O3'        12.0380  -13.2800   -0.5790 O.3       1 NAQ600      0.0000 
     10 C2'        10.7910  -14.1990    1.3150 C.3       1 NAQ600      0.0000 
     11 O2'        11.3810  -15.4390    1.1300 O.3       1 NAQ600      0.0000 
     12 C1'        11.6020  -13.1970    2.2460 C.3       1 NAQ600      0.0000 
     13 N9A        11.5310  -13.6480    3.5900 N.pl3     1 NAQ600      0.0000 
     14 C8A        10.4480  -13.7490    4.4540 C.2       1 NAQ600      0.0000 
     15 N7A        10.7490  -14.2890    5.6150 N.2       1 NAQ600      0.0000 
     16 C5A        12.0900  -14.5910    5.5720 C.ar      1 NAQ600      0.0000 
     17 C6A        13.0070  -15.2150    6.5840 C.ar      1 NAQ600      0.0000 
     18 N6A        12.6600  -15.6190    7.7740 N.pl3     1 NAQ600      0.0000 
     19 N1A        14.3270  -15.3530    6.1190 N.ar      1 NAQ600      0.0000 
     20 C2A        14.7430  -14.9810    4.9100 C.ar      1 NAQ600      0.0000 
     21 N3A        13.9250  -14.4030    3.9130 N.ar      1 NAQ600      0.0000 
     22 C4A        12.5710  -14.2120    4.3240 C.ar      1 NAQ600      0.0000 
     23 OPP         6.9900   -9.4620   -0.3510 O.3       1 NAQ600      0.0000 
     24 PN          7.5540   -8.1400   -1.1080 P.3       1 NAQ600      0.0000 
     25 O1N         6.4470   -7.2110   -1.2780 O.co2     1 NAQ600      0.0000 
     26 O2N         8.3830   -8.5990   -2.2620 O.co2     1 NAQ600      0.0000 
     27 O5B         8.4990   -7.4910   -0.0110 O.3       1 NAQ600      0.0000 
     28 C5B         9.9570   -7.4340   -0.1100 C.3       1 NAQ600      0.0000 
     29 C4B        10.5450   -6.4070    0.8170 C.3       1 NAQ600      0.0000 
     30 O4B         9.8500   -5.1180    0.5100 O.3       1 NAQ600      0.0000 
     31 C3B        10.1720   -6.6200    2.3400 C.3       1 NAQ600      0.0000 
     32 O3B        11.1910   -6.1630    3.1280 O.3       1 NAQ600      0.0000 
     33 C2B         8.9280   -5.7390    2.5480 C.3       1 NAQ600      0.0000 
     34 O2B         8.7920   -5.4500    3.8940 O.3       1 NAQ600      0.0000 
     35 C1B         9.2790   -4.5730    1.6800 C.3       1 NAQ600      0.0000 
     36 N1N         8.1960   -3.6330    1.2660 N.pl3     1 NAQ600      0.0000 
     37 C2N         7.0640   -4.0490    0.5400 C.ar      1 NAQ600      0.0000 
     38 C3N         6.2490   -3.0510    0.1290 C.ar      1 NAQ600      0.0000 
     39 C7N         5.0340   -3.5580   -0.7980 C.2       1 NAQ600      0.0000 
     40 O7N         4.1780   -2.6690   -1.0290 O.2       1 NAQ600      0.0000 
     41 N7N         4.9760   -4.8490   -1.2650 N.am      1 NAQ600      0.0000 
     42 C4N         6.3710   -1.6500    0.3760 C.ar      1 NAQ600      0.0000 
     43 C5N         7.6200   -1.3430    1.0410 C.ar      1 NAQ600      0.0000 
     44 C6N         8.4850   -2.3270    1.4680 C.ar      1 NAQ600      0.0000 
     45 C5P         5.1620    0.3690    1.5040 C.3       1 NAQ600      0.0000 
     46 C4P         5.1770   -1.1520    1.2490 C.3       1 NAQ600      0.0000 
     47 C3P         5.0360   -2.0100    2.5210 C.2       1 NAQ600      0.0000 
     48 OP          5.8520   -1.7190    3.5550 O.2       1 NAQ600      0.0000 
     49 C2P         3.9300   -3.0410    2.6450 C.3       1 NAQ600      0.0000 
     50 C1P         2.6960   -2.3620    3.2530 C.3       1 NAQ600      0.0000 
     51 H           8.6404  -12.2723    1.4697 H         1 NAQ600      0.0000 
     52 H           9.0913  -10.5602    1.5426 H         1 NAQ600      0.0000 
     53 H          11.0874  -11.1444    0.1749 H         1 NAQ600      0.0000 
     54 H           9.9344  -13.4615   -0.4745 H         1 NAQ600      0.0000 
     55 H           9.7983  -14.1948    1.7489 H         1 NAQ600      0.0000 
     56 H          12.6571  -13.3177    1.8915 H         1 NAQ600      0.0000 
     57 H           9.5410  -13.4303    4.1829 H         1 NAQ600      0.0000 
     58 H          11.6967  -15.5010    8.0152 H         1 NAQ600      0.0000 
     59 H          13.3890  -16.0097    8.3360 H         1 NAQ600      0.0000 
     60 H          15.7699  -15.1167    4.6414 H         1 NAQ600      0.0000 
     61 H          10.2614   -7.1926   -1.1433 H         1 NAQ600      0.0000 
     62 H          10.3957   -8.4182    0.1294 H         1 NAQ600      0.0000 
     63 H          11.5642   -6.2942    0.7224 H         1 NAQ600      0.0000 
     64 H           9.8990   -7.6227    2.4584 H         1 NAQ600      0.0000 
     65 H           8.1163   -6.2649    2.1057 H         1 NAQ600      0.0000 
     66 H          10.0677   -3.9916    2.1965 H         1 NAQ600      0.0000 
     67 H           6.8995   -5.0162    0.3565 H         1 NAQ600      0.0000 
     68 H           4.1868   -5.0754   -1.8359 H         1 NAQ600      0.0000 
     69 H           5.7281   -5.4494   -0.9932 H         1 NAQ600      0.0000 
     70 H           7.8441   -0.3413    1.1869 H         1 NAQ600      0.0000 
     71 H           9.3658   -2.0514    1.9492 H         1 NAQ600      0.0000 
     72 H           4.2501   -1.3796    0.6300 H         1 NAQ600      0.0000 
     73 H           4.2482   -3.8435    3.2934 H         1 NAQ600      0.0000 
     74 H           3.6772   -3.4264    1.6686 H         1 NAQ600      0.0000 
     75 H           5.9858    0.6736    1.9821 H         1 NAQ600      0.0000 
     76 H           5.1094    0.8881    0.6509 H         1 NAQ600      0.0000 
     77 H           4.3800    0.6441    2.0632 H         1 NAQ600      0.0000 
     78 H           2.8889   -1.9827    4.1580 H         1 NAQ600      0.0000 
     79 H           2.3681   -1.6085    2.6832 H         1 NAQ600      0.0000 
     80 H           1.9348   -3.0017    3.3595 H         1 NAQ600      0.0000 
     81 H          12.2838  -14.2463   -0.6555 H         1 NAQ600      0.0000 
     82 H          12.3524  -15.2454    0.9929 H         1 NAQ600      0.0000 
     83 H          12.0201   -6.3064    2.5877 H         1 NAQ600      0.0000 
     84 H           7.9800   -4.8694    3.9532 H         1 NAQ600      0.0000 
@<TRIPOS>BOND
     1    2    1 ar   
     2    3    1 ar   
     3    4    1 1    
     4   23    1 1    
     5    5    4 1    
     6    6    5 1    
     7   51    5 1    
     8   52    5 1    
     9    7    6 1    
    10    8    6 1    
    11   53    6 1    
    12   12    7 1    
    13    9    8 1    
    14   10    8 1    
    15   54    8 1    
    16   81    9 1    
    17   11   10 1    
    18   12   10 1    
    19   55   10 1    
    20   82   11 1    
    21   13   12 1    
    22   56   12 1    
    23   14   13 1    
    24   22   13 1    
    25   15   14 2    
    26   57   14 1    
    27   16   15 1    
    28   17   16 ar   
    29   22   16 ar   
    30   18   17 1    
    31   19   17 ar   
    32   58   18 1    
    33   59   18 1    
    34   20   19 ar   
    35   21   20 ar   
    36   60   20 1    
    37   22   21 ar   
    38   24   23 1    
    39   25   24 ar   
    40   26   24 ar   
    41   27   24 1    
    42   28   27 1    
    43   29   28 1    
    44   61   28 1    
    45   62   28 1    
    46   30   29 1    
    47   31   29 1    
    48   63   29 1    
    49   35   30 1    
    50   32   31 1    
    51   33   31 1    
    52   64   31 1    
    53   83   32 1    
    54   34   33 1    
    55   35   33 1    
    56   65   33 1    
    57   84   34 1    
    58   36   35 1    
    59   66   35 1    
    60   37   36 ar   
    61   44   36 ar   
    62   38   37 ar   
    63   67   37 1    
    64   39   38 1    
    65   42   38 ar   
    66   40   39 2    
    67   41   39 am   
    68   68   41 1    
    69   69   41 1    
    70   43   42 ar   
    71   46   42 1    
    72   44   43 ar   
    73   70   43 1    
    74   71   44 1    
    75   46   45 1    
    76   75   45 1    
    77   76   45 1    
    78   77   45 1    
    79   47   46 1    
    80   72   46 1    
    81   48   47 2    
    82   49   47 1    
    83   50   49 1    
    84   73   49 1    
    85   74   49 1    
    86   78   50 1    
    87   79   50 1    
    88   80   50 1    
@<TRIPOS>SUBSTRUCTURE
     1 NAQ600      1 GROUP   
@<TRIPOS>SET

