#    Name: 3l0t_INN_1_INTS_M
#    Modification time : Mon Mar 24 20:45:40 2014

@<TRIPOS>MOLECULE
3l0t_INN_1_INTS_M
   50     0    12     0     0
SMALL
NO_CHARGES


@<TRIPOS>ATOM
      1 CA          8.9695    9.8830   27.7005 C.3       4 GLC5        0.0000 
      2 CA          8.6630    8.0030   27.0680 C.3      12 GLL5        0.0000 
      3 CA          9.2760   11.7630   28.3330 C.3       8 GLP5        0.0000 
      4 CA          9.0500    6.1715   27.4795 C.3       4 GLC5        0.0000 
      5 CA          9.4370    4.3400   27.8910 C.3       8 GLP5        0.0000 
      6 N           8.9225    3.9770   25.5780 N.am      2 SEC2        0.0000 
      7 N           8.0380    3.5970   24.6840 N.am     10 SEL2        0.0000 
      8 N           9.8070    4.3570   26.4720 N.am      6 SEP2        0.0000 
      9 Zn          7.7250   12.6940   24.5725 Zn        3 ZIC7        0.0000 
     10 Zn          6.5560   12.8630   24.8170 Zn       11 ZIL7        0.0000 
     11 Zn          8.8940   12.5250   24.3280 Zn        7 ZIP7        0.0000 
     12 O           5.7500   13.5150   25.7475 O.2       1 ALC1        0.0000 
     13 O           6.5560   12.8630   24.8170 O.2       9 ALL1        0.0000 
     14 O           4.9440   14.1670   26.6780 O.2       5 ALP1        0.0000 
     15 CA          9.6970    4.0955   21.6640 C.3       4 GLC5        0.0000 
     16 CA          8.0150    4.7460   21.8220 C.3      12 GLL5        0.0000 
     17 CA         11.3790    3.4450   21.5060 C.3       8 GLP5        0.0000 
     18 O           4.3680   11.5130   24.6015 O.2       1 ALC1        0.0000 
     19 O           5.8940   11.6430   24.6270 O.2       9 ALL1        0.0000 
     20 O           2.8420   11.3830   24.5760 O.2       5 ALP1        0.0000 
     21 Zn          8.3060   11.7890   23.8090 Zn        3 ZIC7        0.0000 
     22 Zn          7.7180   11.0530   23.2900 Zn       11 ZIL7        0.0000 
     23 CA          6.1365    9.0885   30.3840 C.3       4 GLC5        0.0000 
     24 CA          6.8470    8.4010   28.8680 C.3      12 GLL5        0.0000 
     25 CA          5.4260    9.7760   31.9000 C.3       8 GLP5        0.0000 
     26 CA          7.8460   10.1085   29.3200 C.3       4 GLC5        0.0000 
     27 CA          8.8450   11.8160   29.7720 C.3       8 GLP5        0.0000 
     28 N           3.3670    7.0900   25.3655 N.am      2 SEC2        0.0000 
     29 N           4.6960    7.1090   24.9610 N.am     10 SEL2        0.0000 
     30 N           2.0380    7.0710   25.7700 N.am      6 SEP2        0.0000 
     31 O           4.4300    3.4430   25.0625 O.2       1 ALC1        0.0000 
     32 O           5.8070    3.0610   25.2570 O.2       9 ALL1        0.0000 
     33 O           3.0530    3.8250   24.8680 O.2       5 ALP1        0.0000 
     34 N           3.0760    1.3005   26.3805 N.am      2 SEC2        0.0000 
     35 N           4.2870    0.6630   25.4020 N.am     10 SEL2        0.0000 
     36 N           1.8650    1.9380   27.3590 N.am      6 SEP2        0.0000 
     37 CA          3.8620   -1.1955   23.7605 C.3       4 GLC5        0.0000 
     38 CA          5.8570   -0.8930   23.5680 C.3      12 GLL5        0.0000 
     39 CA          1.8670   -1.4980   23.9530 C.3       8 GLP5        0.0000 
     40 CA          5.0070    3.4413   27.6830 C.3       4 GLC5        0.0000 
     41 CA          6.1020    1.8960   26.1210 C.3      12 GLL5        0.0000 
     42 CA          4.2390    5.0330   28.5560 C.3       8 GLP5        0.0000 
     43 CA          6.8585    3.0082   27.4355 C.3       4 GLC5        0.0000 
     44 CA          5.4480    1.8030   27.4990 C.3      12 GLL5        0.0000 
     45 CA          7.9420    4.1670   28.0610 C.3       8 GLP5        0.0000 
     46 CA          7.7077   10.3332   27.0410 C.3       4 GLC5        0.0000 
     47 CA          7.1910    8.1130   27.3560 C.3      12 GLL5        0.0000 
     48 CA          8.5970   12.0990   27.2140 C.3       8 GLP5        0.0000 
     49 CA          5.6290    6.6450   28.3340 C.3       4 GLC5        0.0000 
     50 CA          7.4805    6.2120   28.0865 C.3       4 GLC5        0.0000 
@<TRIPOS>BOND
@<TRIPOS>SUBSTRUCTURE
     1 ALC1       12 GROUP        1 X    ALC  0     ROOT ALC X 1
     2 SEC2        6 GROUP        1 X    SEC  0     **** SEC X 2
     3 ZIC7        9 GROUP        1 X    ZIC  0     **** ZIC X 5
     4 GLC5        1 GROUP        1 X    GLC  0     **** GLC X 6
     5 ALP1       14 GROUP        1 Y    ALP  0     ROOT ALP Y 8
     6 SEP2        8 GROUP        1 Y    SEP  0     **** SEP Y 9
     7 ZIP7       11 GROUP        1 Y    ZIP  0     **** ZIP Y 12
     8 GLP5        3 GROUP        1 Y    GLP  0     **** GLP Y 13
     9 ALL1       13 GROUP        1 Z    ALL  0     ROOT ALL Z 15
    10 SEL2        7 GROUP        1 Z    SEL  0     **** SEL Z 16
    11 ZIL7       10 GROUP        1 Z    ZIL  0     **** ZIL Z 19
    12 GLL5        2 GROUP        1 Z    GLL  0     **** GLL Z 20
@<TRIPOS>SET

