#    Name: 3l0t_INN_1_ligand
#    Modification time : Mon Mar 24 20:45:40 2014

@<TRIPOS>MOLECULE
3l0t_INN_1_ligand
   67    66     1     0     0
SMALL
NO_CHARGES


@<TRIPOS>ATOM
      1 N1          6.7080    6.2070   24.1600 N.am      1 INN485      0.0000 
      2 C2          8.6630    8.0030   27.0680 C.3       1 INN485      0.0000 
      3 O2          8.0380    3.5970   24.6840 O.2       1 INN485      0.0000 
      4 N3          6.3260    0.1630   24.4390 N.am      1 INN485      0.0000 
      5 C4          5.8970    7.1910   24.7200 C.2       1 INN485      0.0000 
      6 O4          6.5560   12.8630   24.8170 O.3       1 INN485      0.0000 
      7 C5          6.2260    4.9050   23.7570 C.3       1 INN485      0.0000 
      8 C6          6.5030    4.7610   22.2130 C.3       1 INN485      0.0000 
      9 C8          5.8660    5.9130   21.3390 C.3       1 INN485      0.0000 
     10 C9          8.0150    4.7460   21.8220 C.3       1 INN485      0.0000 
     11 C10         6.8120    3.7970   24.6060 C.2       1 INN485      0.0000 
     12 C11         6.1020    1.8960   26.1210 C.3       1 INN485      0.0000 
     13 C12         5.4480    1.8030   27.4990 C.3       1 INN485      0.0000 
     14 N           5.8940   11.6430   24.6270 N.am      1 INN485      0.0000 
     15 C           6.6250   10.8270   23.8320 C.2       1 INN485      0.0000 
     16 O           7.7180   11.0530   23.2900 O.2       1 INN485      0.0000 
     17 C0          6.0400    9.4390   23.8560 C.3       1 INN485      0.0000 
     18 CA          6.6630    8.5110   24.9710 C.3       1 INN485      0.0000 
     19 CB          6.4460    9.0220   26.3800 C.3       1 INN485      0.0000 
     20 C1          7.1910    8.1130   27.3560 C.3       1 INN485      0.0000 
     21 C3          6.8470    8.4010   28.8680 C.3       1 INN485      0.0000 
     22 O1          4.6960    7.1090   24.9610 O.2       1 INN485      0.0000 
     23 C7          5.8040    3.4470   21.7750 C.3       1 INN485      0.0000 
     24 N2          5.8070    3.0610   25.2570 N.am      1 INN485      0.0000 
     25 C13         5.4780    0.8390   25.2830 C.2       1 INN485      0.0000 
     26 O3          4.2870    0.6630   25.4020 O.2       1 INN485      0.0000 
     27 C14         5.8570   -0.8930   23.5680 C.3       1 INN485      0.0000 
     28 C15         6.9400   -1.5290   22.6880 C.3       1 INN485      0.0000 
     29 N4          6.3170   -1.8390   21.3960 N.4       1 INN485      0.0000 
     30 H           7.7251    6.3997   24.0141 H         1 INN485      0.0000 
     31 H           7.3353    0.3930   24.4024 H         1 INN485      0.0000 
     32 H           5.1274    4.8867   23.8636 H         1 INN485      0.0000 
     33 H           7.1365    1.7021   26.1611 H         1 INN485      0.0000 
     34 H           5.0336   11.4374   25.0211 H         1 INN485      0.0000 
     35 H           6.1974    8.9428   22.8895 H         1 INN485      0.0000 
     36 H           4.9577    9.4852   24.0336 H         1 INN485      0.0000 
     37 H           7.6747    8.3562   24.7351 H         1 INN485      0.0000 
     38 H           5.3899    9.0086   26.6156 H         1 INN485      0.0000 
     39 H           6.8305   10.0298   26.4671 H         1 INN485      0.0000 
     40 H           6.7572    7.0616   27.1712 H         1 INN485      0.0000 
     41 H           4.8146    3.3185   25.1479 H         1 INN485      0.0000 
     42 H           5.0547   -0.5194   22.8903 H         1 INN485      0.0000 
     43 H           5.3848   -1.7121   24.1585 H         1 INN485      0.0000 
     44 H           7.2947   -2.4248   23.1750 H         1 INN485      0.0000 
     45 H           7.7467   -0.8210   22.5722 H         1 INN485      0.0000 
     46 H           9.1178    8.8925   27.1132 H         1 INN485      0.0000 
     47 H           9.1255    7.4038   27.7215 H         1 INN485      0.0000 
     48 H           8.8362    7.6312   26.1560 H         1 INN485      0.0000 
     49 H           6.2169    6.8129   21.5980 H         1 INN485      0.0000 
     50 H           6.0606    5.7915   20.3657 H         1 INN485      0.0000 
     51 H           4.8714    5.9469   21.4371 H         1 INN485      0.0000 
     52 H           8.4778    5.5891   22.0959 H         1 INN485      0.0000 
     53 H           8.5034    3.9891   22.2563 H         1 INN485      0.0000 
     54 H           8.1424    4.6491   20.8349 H         1 INN485      0.0000 
     55 H           5.7205    0.9721   27.9841 H         1 INN485      0.0000 
     56 H           5.6967    2.5771   28.0811 H         1 INN485      0.0000 
     57 H           4.4500    1.7920   27.4365 H         1 INN485      0.0000 
     58 H           7.1844    7.6773   29.4700 H         1 INN485      0.0000 
     59 H           7.2528    9.2584   29.1844 H         1 INN485      0.0000 
     60 H           5.8607    8.4707   29.0177 H         1 INN485      0.0000 
     61 H           5.9287    3.2674   20.7992 H         1 INN485      0.0000 
     62 H           6.1625    2.6537   22.2671 H         1 INN485      0.0000 
     63 H           4.8188    3.4762   21.9441 H         1 INN485      0.0000 
     64 H           6.9651   -2.2631   20.7634 H         1 INN485      0.0000 
     65 H           5.5488   -2.4713   21.4963 H         1 INN485      0.0000 
     66 H           5.9641   -1.0179   20.9473 H         1 INN485      0.0000 
     67 H           6.0048   13.3540   25.4917 H         1 INN485      0.0000 
@<TRIPOS>BOND
     1    5    1 am   
     2    7    1 1    
     3   30    1 1    
     4   20    2 1    
     5   46    2 1    
     6   47    2 1    
     7   48    2 1    
     8   11    3 2    
     9   25    4 am   
    10   27    4 1    
    11   31    4 1    
    12   18    5 1    
    13   22    5 2    
    14   14    6 1    
    15   67    6 1    
    16    8    7 1    
    17   11    7 1    
    18   32    7 1    
    19    9    8 1    
    20   10    8 1    
    21   23    8 1    
    22   49    9 1    
    23   50    9 1    
    24   51    9 1    
    25   52   10 1    
    26   53   10 1    
    27   54   10 1    
    28   24   11 am   
    29   13   12 1    
    30   24   12 1    
    31   25   12 1    
    32   33   12 1    
    33   55   13 1    
    34   56   13 1    
    35   57   13 1    
    36   15   14 am   
    37   34   14 1    
    38   16   15 2    
    39   17   15 1    
    40   18   17 1    
    41   35   17 1    
    42   36   17 1    
    43   19   18 1    
    44   37   18 1    
    45   20   19 1    
    46   38   19 1    
    47   39   19 1    
    48   21   20 1    
    49   40   20 1    
    50   58   21 1    
    51   59   21 1    
    52   60   21 1    
    53   61   23 1    
    54   62   23 1    
    55   63   23 1    
    56   41   24 1    
    57   26   25 2    
    58   28   27 1    
    59   42   27 1    
    60   43   27 1    
    61   29   28 1    
    62   44   28 1    
    63   45   28 1    
    64   64   29 1    
    65   65   29 1    
    66   66   29 1    
@<TRIPOS>SUBSTRUCTURE
     1 INN485      1 GROUP   
@<TRIPOS>SET

