#    Name: 1yi3_LY2_1_INTS_M
#    Modification time : Tue Mar 25 11:04:33 2014

@<TRIPOS>MOLECULE
1yi3_LY2_1_INTS_M
   55     0     3     0     0
SMALL
NO_CHARGES


@<TRIPOS>ATOM
      1 CA        -21.4165   35.0575   -4.3055 C.3       1 GLC5        0.0000 
      2 CA        -19.2090   34.9420   -4.6080 C.3       3 GLL5        0.0000 
      3 CA        -23.6240   35.1730   -4.0030 C.3       2 GLP5        0.0000 
      4 CA        -20.2405   33.5515   -5.5055 C.3       1 GLC5        0.0000 
      5 CA        -21.2720   32.1610   -6.4030 C.3       2 GLP5        0.0000 
      6 CA        -19.6495   32.5675   -5.2160 C.3       1 GLC5        0.0000 
      7 CA        -18.0270   32.9740   -4.0290 C.3       3 GLL5        0.0000 
      8 CA        -18.5970   31.0570   -4.7670 C.3       1 GLC5        0.0000 
      9 CA        -19.1670   29.1400   -5.5050 C.3       2 GLP5        0.0000 
     10 CA        -20.0395   37.3315    4.4480 C.3       1 GLC5        0.0000 
     11 CA        -19.5450   38.2140    2.9450 C.3       3 GLL5        0.0000 
     12 CA        -20.5340   36.4490    5.9510 C.3       2 GLP5        0.0000 
     13 CA        -18.2250   38.0445    4.4745 C.3       1 GLC5        0.0000 
     14 CA        -18.7110   37.0930    2.8240 C.3       3 GLL5        0.0000 
     15 CA        -17.7390   38.9960    6.1250 C.3       2 GLP5        0.0000 
     16 CA        -19.0505   36.2645    4.4280 C.3       1 GLC5        0.0000 
     17 CA        -19.3900   35.4360    6.0320 C.3       2 GLP5        0.0000 
     18 CA        -20.5510   35.3680    0.0840 C.3       1 GLC5        0.0000 
     19 CA        -19.2240   37.0140    0.4420 C.3       3 GLL5        0.0000 
     20 CA        -21.8780   33.7220   -0.2740 C.3       2 GLP5        0.0000 
     21 CA        -22.5425   37.8900    1.0995 C.3       1 GLC5        0.0000 
     22 CA        -22.0450   39.2220   -0.5840 C.3       3 GLL5        0.0000 
     23 CA        -23.0400   36.5580    2.7830 C.3       2 GLP5        0.0000 
     24 CA        -17.1478   32.0120   -3.3025 C.3       1 GLC5        0.0000 
     25 CA        -17.4860   33.6420   -2.7550 C.3       3 GLL5        0.0000 
     26 CA        -16.5390   30.7160   -3.2130 C.3       2 GLP5        0.0000 
     27 CA        -18.9017   32.6720   -1.9325 C.3       1 GLC5        0.0000 
     28 CA        -20.0470   32.0360   -0.4730 C.3       2 GLP5        0.0000 
     29 CA        -19.0247   33.5063   -0.4582 C.3       1 GLC5        0.0000 
     30 CA        -18.3620   35.2400   -0.9500 C.3       3 GLL5        0.0000 
     31 CA        -16.7687   36.6843   -0.5677 C.3       1 GLC5        0.0000 
     32 CA        -17.6430   34.7130    0.0630 C.3       3 GLL5        0.0000 
     33 CA        -15.5350   38.3920   -0.6920 C.3       2 GLP5        0.0000 
     34 CA        -21.0840   37.1058    2.8337 C.3       1 GLC5        0.0000 
     35 CA        -19.2662   39.9278    3.4928 C.3       1 GLC5        0.0000 
     36 CA        -18.6600   41.3830    4.6060 C.3       2 GLP5        0.0000 
     37 CA        -19.1898   39.9677    1.3022 C.3       1 GLC5        0.0000 
     38 CA        -18.5070   41.4630    0.2250 C.3       2 GLP5        0.0000 
     39 CA        -17.4225   38.7563    2.4457 C.3       1 GLC5        0.0000 
     40 CA        -15.7170   39.8590    2.0070 C.3       2 GLP5        0.0000 
     41 CA        -21.5805   37.4963    1.9810 C.3       1 GLC5        0.0000 
     42 CA        -20.2000   38.7310    1.8140 C.3       3 GLL5        0.0000 
     43 CA        -17.2130   37.5735    0.1550 C.3       1 GLC5        0.0000 
     44 CA        -22.7668   37.8240   -1.3505 C.3       1 GLC5        0.0000 
     45 CA        -20.7120   38.7420   -0.6560 C.3       3 GLL5        0.0000 
     46 CA        -24.1550   36.6660   -2.0810 C.3       2 GLP5        0.0000 
     47 CA        -23.9795   39.6685   -0.3618 C.3       1 GLC5        0.0000 
     48 CA        -25.6070   39.8270    0.4280 C.3       2 GLP5        0.0000 
     49 CA        -19.8590   40.1470   -0.0475 C.3       1 GLC5        0.0000 
     50 CA        -23.2275   38.2565   -2.2032 C.3       1 GLC5        0.0000 
     51 CA        -22.6590   39.7980   -1.7190 C.3       3 GLL5        0.0000 
     52 CA        -22.4710   41.7585   -2.3652 C.3       1 GLC5        0.0000 
     53 CA        -22.6420   43.6700   -2.4050 C.3       2 GLP5        0.0000 
     54 CA        -19.4078   40.2985   -1.1117 C.3       1 GLC5        0.0000 
     55 CA        -20.6130   39.4210   -3.0170 C.3       3 GLL5        0.0000 
@<TRIPOS>BOND
@<TRIPOS>SUBSTRUCTURE
     1 GLC5        1 GROUP        1 X    GLC  0     ROOT GLC X 6
     2 GLP5        3 GROUP        1 Y    GLP  0     ROOT GLP Y 13
     3 GLL5        2 GROUP        1 Z    GLL  0     ROOT GLL Z 20
@<TRIPOS>SET

