#    Name: 1yi3_LY2_1_ligand
#    Modification time : Tue Mar 25 11:04:33 2014

@<TRIPOS>MOLECULE
1yi3_LY2_1_ligand
   41    44     1     0     0
SMALL
NO_CHARGES


@<TRIPOS>ATOM
      1 N14       -18.4710   34.6380   -2.2930 N.4       1 LY2306      0.0000 
      2 C15       -18.6950   35.6450   -3.3450 C.3       1 LY2306      0.0000 
      3 C19       -17.4860   33.6420   -2.7550 C.3       1 LY2306      0.0000 
      4 C11       -18.3620   35.2400   -0.9500 C.2       1 LY2306      0.0000 
      5 C16       -19.2090   34.9420   -4.6080 C.3       1 LY2306      0.0000 
      6 O17       -18.2620   33.9630   -5.0290 O.3       1 LY2306      0.0000 
      7 C18       -18.0270   32.9740   -4.0290 C.3       1 LY2306      0.0000 
      8 C1        -19.5450   38.2140    2.9450 C.ar      1 LY2306      0.0000 
      9 C2        -18.7110   37.0930    2.8240 C.ar      1 LY2306      0.0000 
     10 C6        -20.2000   38.7310    1.8140 C.ar      1 LY2306      0.0000 
     11 C3        -18.5580   36.4960    1.5620 C.ar      1 LY2306      0.0000 
     12 C4        -19.2240   37.0140    0.4420 C.ar      1 LY2306      0.0000 
     13 C9        -17.6820   35.3350    1.4010 C.2       1 LY2306      0.0000 
     14 C5        -20.0420   38.1380    0.5440 C.ar      1 LY2306      0.0000 
     15 O12       -19.0870   36.3760   -0.7780 O.3       1 LY2306      0.0000 
     16 C20       -20.7120   38.7420   -0.6560 C.ar      1 LY2306      0.0000 
     17 C25       -22.0450   39.2220   -0.5840 C.ar      1 LY2306      0.0000 
     18 C24       -22.6590   39.7980   -1.7190 C.ar      1 LY2306      0.0000 
     19 C21       -20.0040   38.8470   -1.8800 C.ar      1 LY2306      0.0000 
     20 C22       -20.6130   39.4210   -3.0170 C.ar      1 LY2306      0.0000 
     21 C23       -21.9410   39.8960   -2.9320 C.ar      1 LY2306      0.0000 
     22 C10       -17.6430   34.7130    0.0630 C.2       1 LY2306      0.0000 
     23 O13       -16.9870   34.8340    2.2770 O.2       1 LY2306      0.0000 
     24 H         -19.4948   34.0509   -2.2803 H         1 LY2306      0.0000 
     25 H         -17.7702   36.1599   -3.5911 H         1 LY2306      0.0000 
     26 H         -19.4378   36.3736   -3.0314 H         1 LY2306      0.0000 
     27 H         -17.3311   32.8742   -2.0051 H         1 LY2306      0.0000 
     28 H         -16.5393   34.1149   -2.9918 H         1 LY2306      0.0000 
     29 H         -19.3707   35.7102   -5.3716 H         1 LY2306      0.0000 
     30 H         -20.1795   34.4956   -4.3664 H         1 LY2306      0.0000 
     31 H         -18.9442   32.4401   -3.7570 H         1 LY2306      0.0000 
     32 H         -17.2878   32.2325   -4.3516 H         1 LY2306      0.0000 
     33 H         -19.6780   38.6579    3.8589 H         1 LY2306      0.0000 
     34 H         -18.2259   36.7188    3.6341 H         1 LY2306      0.0000 
     35 H         -20.8072   39.5583    1.9121 H         1 LY2306      0.0000 
     36 H         -22.5623   39.1497    0.2949 H         1 LY2306      0.0000 
     37 H         -23.6170   40.1417   -1.6627 H         1 LY2306      0.0000 
     38 H         -19.0406   38.5020   -1.9372 H         1 LY2306      0.0000 
     39 H         -20.0990   39.4925   -3.8929 H         1 LY2306      0.0000 
     40 H         -22.3856   40.3136   -3.7541 H         1 LY2306      0.0000 
     41 H         -17.0532   33.8830   -0.0394 H         1 LY2306      0.0000 
@<TRIPOS>BOND
     1    2    1 1    
     2    3    1 1    
     3    4    1 1    
     4   24    1 1    
     5    5    2 1    
     6   25    2 1    
     7   26    2 1    
     8    7    3 1    
     9   27    3 1    
    10   28    3 1    
    11   15    4 1    
    12   22    4 2    
    13    6    5 1    
    14   29    5 1    
    15   30    5 1    
    16    7    6 1    
    17   31    7 1    
    18   32    7 1    
    19    9    8 ar   
    20   10    8 ar   
    21   33    8 1    
    22   11    9 ar   
    23   34    9 1    
    24   14   10 ar   
    25   35   10 1    
    26   12   11 ar   
    27   13   11 1    
    28   14   12 ar   
    29   15   12 1    
    30   22   13 1    
    31   23   13 2    
    32   16   14 1    
    33   17   16 ar   
    34   19   16 ar   
    35   18   17 ar   
    36   36   17 1    
    37   21   18 ar   
    38   37   18 1    
    39   20   19 ar   
    40   38   19 1    
    41   21   20 ar   
    42   39   20 1    
    43   40   21 1    
    44   41   22 1    
@<TRIPOS>SUBSTRUCTURE
     1 LY2306      1 GROUP   
@<TRIPOS>SET

