#    Name: 3EPX_2_CAVITY_N1_6.mol2
#    Modification time : Mon Mar 10 13:54:32 2014

@<TRIPOS>MOLECULE
3EPX_2_CAVITY_N1_6.mol2
   81     0     5     0     0
SMALL
NO_CHARGES


@<TRIPOS>ATOM
      1 NZ         26.7932   23.4218   20.8468 N.2       2 LYS4        0.0000 
      2 NZ         27.8949   23.7105   19.0572 N.2       2 LYS4        0.0000 
      3 DU         26.6253   24.2737   19.6237 H         5 CUB7        0.0000 
      4 CZ         25.3557   24.8369   20.1902 C.ar      3 PHE5        0.0000 
      5 N          27.7271   24.5625   17.8340 N.2       1 ALA2        0.0000 
      6 NZ         26.4575   25.1257   18.4006 N.2       2 LYS4        0.0000 
      7 NZ         25.1879   25.6888   18.9671 N.2       2 LYS4        0.0000 
      8 NZ         27.2818   21.7600   19.6222 N.2       2 LYS4        0.0000 
      9 NZ         26.0122   22.3231   20.1888 N.2       2 LYS4        0.0000 
     10 N          27.1139   22.6119   18.3991 N.2       1 ALA2        0.0000 
     11 N          25.8443   23.1751   18.9656 N.2       1 ALA2        0.0000 
     12 CA         24.5748   23.7382   19.5322 C.3       4 GLY6        0.0000 
     13 O          25.6765   24.0270   17.7425 O.2       1 ALA2        0.0000 
     14 N          30.1434   21.6062   30.1597 N.2       1 ALA2        0.0000 
     15 CA         29.9756   22.4581   28.9366 C.3       4 GLY6        0.0000 
     16 N          28.7060   23.0213   29.5031 N.2       1 ALA2        0.0000 
     17 CA         31.0773   22.7469   27.1469 C.3       4 GLY6        0.0000 
     18 CZ         29.8077   23.3100   27.7134 C.ar      3 PHE5        0.0000 
     19 CA         30.9094   23.5988   25.9238 C.3       4 GLY6        0.0000 
     20 CZ         29.6398   24.1620   26.4903 C.ar      3 PHE5        0.0000 
     21 CA         30.7415   24.4507   24.7007 C.3       4 GLY6        0.0000 
     22 CZ         29.4719   25.0139   25.2672 C.ar      3 PHE5        0.0000 
     23 CZ         28.2023   25.5771   25.8337 C.ar      3 PHE5        0.0000 
     24 CZ         29.3041   25.8658   24.0441 C.ar      3 PHE5        0.0000 
     25 CZ         28.0345   26.4290   24.6106 C.ar      3 PHE5        0.0000 
     26 CZ         29.1362   26.7178   22.8209 C.ar      3 PHE5        0.0000 
     27 CZ         27.8666   27.2809   23.3875 C.ar      3 PHE5        0.0000 
     28 CZ         28.9683   27.5697   21.5978 C.ar      3 PHE5        0.0000 
     29 O          27.6987   28.1329   22.1643 O.2       1 ALA2        0.0000 
     30 CZ         26.4291   28.6961   22.7309 C.ar      3 PHE5        0.0000 
     31 O          24.9916   30.1112   22.0743 O.2       1 ALA2        0.0000 
     32 CZ         23.7220   30.6743   22.6408 C.ar      3 PHE5        0.0000 
     33 CA         23.5541   31.5263   21.4176 C.3       4 GLY6        0.0000 
     34 N          30.1284   22.5001   25.2657 N.2       1 ALA2        0.0000 
     35 N          29.9605   23.3521   24.0426 N.2       1 ALA2        0.0000 
     36 CZ         28.6909   23.9152   24.6091 C.ar      3 PHE5        0.0000 
     37 NZ         29.7927   24.2040   22.8195 N.2       2 LYS4        0.0000 
     38 CZ         28.5231   24.7672   23.3860 C.ar      3 PHE5        0.0000 
     39 CZ         29.6248   25.0559   21.5964 C.ar      3 PHE5        0.0000 
     40 CZ         28.3552   25.6191   22.1629 C.ar      3 PHE5        0.0000 
     41 CZ         29.4569   25.9079   20.3732 C.ar      3 PHE5        0.0000 
     42 CZ         28.1873   26.4710   20.9398 C.ar      3 PHE5        0.0000 
     43 O          26.9177   27.0342   21.5063 O.2       1 ALA2        0.0000 
     44 CA         28.0194   27.3230   19.7166 C.3       4 GLY6        0.0000 
     45 CZ         27.7421   23.6685   22.7280 C.ar      3 PHE5        0.0000 
     46 CZ         27.5742   24.5205   21.5048 C.ar      3 PHE5        0.0000 
     47 DU         27.4063   25.3724   20.2817 H         5 CUB7        0.0000 
     48 CZ         26.1367   25.9356   20.8482 C.ar      3 PHE5        0.0000 
     49 CA         27.2384   26.2243   19.0586 C.3       4 GLY6        0.0000 
     50 CA         33.2957   22.4304   28.4615 C.3       4 GLY6        0.0000 
     51 CA         32.0261   22.9936   29.0281 C.3       4 GLY6        0.0000 
     52 N          30.7566   23.5568   29.5946 N.2       1 ALA2        0.0000 
     53 N          29.4870   24.1200   30.1611 N.2       1 ALA2        0.0000 
     54 CA         33.1279   23.2823   27.2384 C.3       4 GLY6        0.0000 
     55 CA         31.8583   23.8455   27.8049 C.3       4 GLY6        0.0000 
     56 DU         30.5887   24.4087   28.3715 H         5 CUB7        0.0000 
     57 CZ         29.3191   24.9719   28.9380 C.ar      3 PHE5        0.0000 
     58 O          30.4208   25.2606   27.1483 O.2       1 ALA2        0.0000 
     59 N          29.1512   25.8238   27.7149 N.2       1 ALA2        0.0000 
     60 O          30.2529   26.1126   25.9252 O.2       1 ALA2        0.0000 
     61 CZ         30.0850   26.9645   24.7021 C.ar      3 PHE5        0.0000 
     62 N          28.6476   28.3796   24.0455 N.2       1 ALA2        0.0000 
     63 CA         27.2101   29.7947   23.3889 C.3       4 GLY6        0.0000 
     64 N          25.9405   30.3579   23.9554 N.2       1 ALA2        0.0000 
     65 CA         25.7726   31.2098   22.7323 C.3       4 GLY6        0.0000 
     66 CZ         24.5030   31.7730   23.2988 C.ar      3 PHE5        0.0000 
     67 DU         32.1506   26.6060   29.6875 H         5 CUB7        0.0000 
     68 N          30.7132   28.0211   29.0309 N.2       1 ALA2        0.0000 
     69 CA         27.3346   33.4071   24.0484 C.3       4 GLY6        0.0000 
     70 DU         32.8071   24.0922   29.6861 H         5 CUB7        0.0000 
     71 DU         31.5375   24.6554   30.2526 H         5 CUB7        0.0000 
     72 DU         30.2679   25.2186   30.8192 H         5 CUB7        0.0000 
     73 CA         33.9089   24.3810   27.8965 C.3       4 GLY6        0.0000 
     74 CA         32.6393   24.9442   28.4630 C.3       4 GLY6        0.0000 
     75 DU         31.3697   25.5074   29.0295 H         5 CUB7        0.0000 
     76 DU         30.1001   26.0705   29.5960 H         5 CUB7        0.0000 
     77 O          31.2018   26.3593   27.8064 O.2       1 ALA2        0.0000 
     78 N          29.9322   26.9225   28.3729 N.2       1 ALA2        0.0000 
     79 O          31.0339   27.2112   26.5833 O.2       1 ALA2        0.0000 
     80 O          25.4519   32.0197   25.1800 O.2       1 ALA2        0.0000 
     81 CA         26.5536   32.3085   23.3903 C.3       4 GLY6        0.0000 
@<TRIPOS>BOND
@<TRIPOS>SUBSTRUCTURE
     1 ALA2        5 GROUP   
     2 LYS4        1 GROUP   
     3 PHE5        4 GROUP   
     4 GLY6       12 GROUP   
     5 CUB7        3 GROUP   
@<TRIPOS>SET

