#    Name: 3epx_IMQ_2_INTS_M
#    Modification time : Tue Mar 25 02:19:19 2014

@<TRIPOS>MOLECULE
3epx_IMQ_2_INTS_M
   43     0     9     0     0
SMALL
NO_CHARGES


@<TRIPOS>ATOM
      1 N          29.6830   22.8735   21.7550 N.am      2 SEC2        0.0000 
      2 N          29.4710   23.8240   22.7290 N.am      8 SEL2        0.0000 
      3 N          29.8950   21.9230   20.7810 N.am      5 SEP2        0.0000 
      4 CA         28.6610   27.0230   19.2260 C.3       3 GLC5        0.0000 
      5 CA         27.9750   26.8450   21.3110 C.3       9 GLL5        0.0000 
      6 CA         29.3470   27.2010   17.1410 C.3       6 GLP5        0.0000 
      7 CA         29.6965   24.5080   19.0760 C.3       3 GLC5        0.0000 
      8 CA         28.3390   24.6660   20.1210 C.3       9 GLL5        0.0000 
      9 CA         31.0540   24.3500   18.0310 C.3       6 GLP5        0.0000 
     10 CA         30.0610   25.8240   20.8350 C.3       3 GLC5        0.0000 
     11 CA         31.7830   26.9820   21.5490 C.3       6 GLP5        0.0000 
     12 CA         28.8430   25.9335   18.6310 C.3       3 GLC5        0.0000 
     13 CA         25.9080   23.7190   22.5785 C.3       3 GLC5        0.0000 
     14 CA         26.7620   23.1190   21.3310 C.3       9 GLL5        0.0000 
     15 CA         25.0540   24.3190   23.8260 C.3       6 GLP5        0.0000 
     16 N          24.9565   20.1260   20.1735 N.am      2 SEC2        0.0000 
     17 N          26.0780   20.9040   20.6570 N.am      8 SEL2        0.0000 
     18 N          23.8350   19.3480   19.6900 N.am      5 SEP2        0.0000 
     19 N          24.9185   22.3610   17.0675 N.am      2 SEC2        0.0000 
     20 N          24.8540   21.9290   18.5360 N.am      8 SEL2        0.0000 
     21 N          24.9830   22.7930   15.5990 N.am      5 SEP2        0.0000 
     22 N          24.3445   20.6385   19.1130 N.am      2 SEC2        0.0000 
     23 O          23.6830   21.4165   18.7050 O.2       1 ALC1        0.0000 
     24 O          24.8540   21.9290   18.5360 O.2       7 ALL1        0.0000 
     25 O          22.5120   20.9040   18.8740 O.2       4 ALP1        0.0000 
     26 CA         24.3155   25.1865   20.9000 C.3       3 GLC5        0.0000 
     27 CA         25.3730   25.3710   19.4260 C.3       9 GLL5        0.0000 
     28 CA         23.2580   25.0020   22.3740 C.3       6 GLP5        0.0000 
     29 N          25.9480   27.7975   19.3140 N.am      2 SEC2        0.0000 
     30 N          26.1100   26.4020   18.7600 N.am      8 SEL2        0.0000 
     31 N          25.7860   29.1930   19.8680 N.am      5 SEP2        0.0000 
     32 O          25.7675   26.4555   17.4870 O.2       1 ALC1        0.0000 
     33 O          26.1100   26.4020   18.7600 O.2       7 ALL1        0.0000 
     34 O          25.4250   26.5090   16.2140 O.2       4 ALP1        0.0000 
     35 CA         31.8575   23.5197   23.9928 C.3       3 GLC5        0.0000 
     36 CA         29.9850   23.3600   23.8570 C.3       9 GLL5        0.0000 
     37 CA         33.6920   23.2730   23.5630 C.3       6 GLP5        0.0000 
     38 CA         24.8231   23.6288   21.3537 C.3       3 GLC5        0.0000 
     39 CA         26.0250   23.9970   19.1900 C.3       9 GLL5        0.0000 
     40 CA         23.9810   23.9770   22.9960 C.3       6 GLP5        0.0000 
     41 CA         23.8477   24.3252   18.3023 C.3       3 GLC5        0.0000 
     42 CA         25.0190   22.8910   19.5920 C.3       9 GLL5        0.0000 
     43 CA         22.2480   24.2430   17.1960 C.3       6 GLP5        0.0000 
@<TRIPOS>BOND
@<TRIPOS>SUBSTRUCTURE
     1 ALC1       23 GROUP        1 X    ALC  0     ROOT ALC X 1
     2 SEC2        1 GROUP        1 X    SEC  0     **** SEC X 2
     3 GLC5        4 GROUP        1 X    GLC  0     **** GLC X 6
     4 ALP1       25 GROUP        1 Y    ALP  0     ROOT ALP Y 8
     5 SEP2        3 GROUP        1 Y    SEP  0     **** SEP Y 9
     6 GLP5        6 GROUP        1 Y    GLP  0     **** GLP Y 13
     7 ALL1       24 GROUP        1 Z    ALL  0     ROOT ALL Z 15
     8 SEL2        2 GROUP        1 Z    SEL  0     **** SEL Z 16
     9 GLL5        5 GROUP        1 Z    GLL  0     **** GLL Z 20
@<TRIPOS>SET

