#    Name: 3epx_IMQ_2_ligand
#    Modification time : Tue Mar 25 02:19:19 2014

@<TRIPOS>MOLECULE
3epx_IMQ_2_ligand
   39    41     1     0     0
SMALL
NO_CHARGES


@<TRIPOS>ATOM
      1 C9         28.9930   25.0850   22.6100 C.ar      1 IMQ1003     0.0000 
      2 N1         29.4710   23.8240   22.7290 N.ar      1 IMQ1003     0.0000 
      3 C10        29.9850   23.3600   23.8570 C.ar      1 IMQ1003     0.0000 
      4 C2         30.0610   24.1730   24.9880 C.ar      1 IMQ1003     0.0000 
      5 C3         29.5870   25.4760   24.9060 C.ar      1 IMQ1003     0.0000 
      6 C4         29.0470   25.9400   23.7100 C.ar      1 IMQ1003     0.0000 
      7 C5         28.5620   27.2480   23.6170 C.ar      1 IMQ1003     0.0000 
      8 C6         28.0270   27.6960   22.4140 C.ar      1 IMQ1003     0.0000 
      9 C7         27.9750   26.8450   21.3110 C.ar      1 IMQ1003     0.0000 
     10 C8         28.4420   25.5280   21.3960 C.ar      1 IMQ1003     0.0000 
     11 C1         28.3390   24.6660   20.1210 C.3       1 IMQ1003     0.0000 
     12 N4'        27.1820   23.7180   20.0720 N.4       1 IMQ1003     0.0000 
     13 C1'        26.7620   23.1190   21.3310 C.3       1 IMQ1003     0.0000 
     14 C2'        25.5920   22.2370   20.8740 C.3       1 IMQ1003     0.0000 
     15 O2'        26.0780   20.9040   20.6570 O.3       1 IMQ1003     0.0000 
     16 C3'        25.0190   22.8910   19.5920 C.3       1 IMQ1003     0.0000 
     17 O3'        24.8540   21.9290   18.5360 O.3       1 IMQ1003     0.0000 
     18 C4'        26.0250   23.9970   19.1900 C.3       1 IMQ1003     0.0000 
     19 C5'        25.3730   25.3710   19.4260 C.3       1 IMQ1003     0.0000 
     20 O5'        26.1100   26.4020   18.7600 O.3       1 IMQ1003     0.0000 
     21 H          30.3444   22.3841   23.9332 H         1 IMQ1003     0.0000 
     22 H          30.4569   23.8154   25.8559 H         1 IMQ1003     0.0000 
     23 H          29.6341   26.0952   25.7232 H         1 IMQ1003     0.0000 
     24 H          28.6019   27.8685   24.4299 H         1 IMQ1003     0.0000 
     25 H          27.6685   28.6570   22.3364 H         1 IMQ1003     0.0000 
     26 H          27.5871   27.1884   20.4178 H         1 IMQ1003     0.0000 
     27 H          29.2904   24.1009   20.0136 H         1 IMQ1003     0.0000 
     28 H          28.2973   25.3526   19.2475 H         1 IMQ1003     0.0000 
     29 H          27.6777   22.7438   19.5065 H         1 IMQ1003     0.0000 
     30 H          26.3944   23.8441   22.0104 H         1 IMQ1003     0.0000 
     31 H          27.5143   22.4971   21.7431 H         1 IMQ1003     0.0000 
     32 H          24.8397   22.2811   21.6360 H         1 IMQ1003     0.0000 
     33 H          24.0989   23.3743   19.8593 H         1 IMQ1003     0.0000 
     34 H          26.2697   23.8576   18.1784 H         1 IMQ1003     0.0000 
     35 H          25.3337   25.5349   20.5116 H         1 IMQ1003     0.0000 
     36 H          24.3378   25.3111   19.0631 H         1 IMQ1003     0.0000 
     37 H          26.7217   20.9841   19.8959 H         1 IMQ1003     0.0000 
     38 H          23.8707   21.9093   18.3552 H         1 IMQ1003     0.0000 
     39 H          25.8044   26.3651   17.8086 H         1 IMQ1003     0.0000 
@<TRIPOS>BOND
     1    2    1 ar   
     2    6    1 ar   
     3   10    1 ar   
     4    3    2 ar   
     5    4    3 ar   
     6   21    3 1    
     7    5    4 ar   
     8   22    4 1    
     9    6    5 ar   
    10   23    5 1    
    11    7    6 ar   
    12    8    7 ar   
    13   24    7 1    
    14    9    8 ar   
    15   25    8 1    
    16   10    9 ar   
    17   26    9 1    
    18   11   10 1    
    19   12   11 1    
    20   27   11 1    
    21   28   11 1    
    22   13   12 1    
    23   18   12 1    
    24   29   12 1    
    25   14   13 1    
    26   30   13 1    
    27   31   13 1    
    28   15   14 1    
    29   16   14 1    
    30   32   14 1    
    31   37   15 1    
    32   17   16 1    
    33   18   16 1    
    34   33   16 1    
    35   38   17 1    
    36   19   18 1    
    37   34   18 1    
    38   20   19 1    
    39   35   19 1    
    40   36   19 1    
    41   39   20 1    
@<TRIPOS>SUBSTRUCTURE
     1 IMQ1003     1 GROUP   
@<TRIPOS>SET

