#    Name: 3nwl_NDP_3_INTS_M
#    Modification time : Tue Mar 25 02:49:46 2014

@<TRIPOS>MOLECULE
3nwl_NDP_3_INTS_M
   75     0    12     0     0
SMALL
NO_CHARGES


@<TRIPOS>ATOM
      1 N          55.5315   36.9360   99.1145 N.am      2 SEC2        0.0000 
      2 N          55.6280   36.3460   97.7910 N.am     10 SEL2        0.0000 
      3 N          55.4350   37.5260  100.4380 N.am      6 SEP2        0.0000 
      4 N          55.6240   38.1485   98.8500 N.am      2 SEC2        0.0000 
      5 N          55.8130   38.7710   97.2620 N.am     10 SEL2        0.0000 
      6 CA         57.7990   40.2195   95.2240 C.3       4 GLC5        0.0000 
      7 CA         56.4420   39.9390   96.7450 C.3      12 GLL5        0.0000 
      8 CA         59.1560   40.5000   93.7030 C.3       8 GLP5        0.0000 
      9 N          53.4590   45.0615   98.5470 N.am      2 SEC2        0.0000 
     10 N          53.6260   43.3470   98.6740 N.am     10 SEL2        0.0000 
     11 N          53.2920   46.7760   98.4200 N.am      6 SEP2        0.0000 
     12 CA         56.5455   42.8105   95.4645 C.3       4 GLC5        0.0000 
     13 CA         55.6980   43.3690   97.4560 C.3      12 GLL5        0.0000 
     14 CA         57.3930   42.2520   93.4730 C.3       8 GLP5        0.0000 
     15 O          57.7925   49.1460   93.5365 O.2       1 ALC1        0.0000 
     16 O          56.9330   48.1560   94.0560 O.2       9 ALL1        0.0000 
     17 O          58.6520   50.1360   93.0170 O.2       5 ALP1        0.0000 
     18 CA         56.1750   48.1070   97.2975 C.3       4 GLC5        0.0000 
     19 CA         58.0700   47.0460   97.2760 C.3      12 GLL5        0.0000 
     20 CA         54.2800   49.1680   97.3190 C.3       8 GLP5        0.0000 
     21 N          57.8325   35.8020  100.3160 N.am      2 SEC2        0.0000 
     22 N          57.8500   36.8410   99.2690 N.am     10 SEL2        0.0000 
     23 N          57.8150   34.7630  101.3630 N.am      6 SEP2        0.0000 
     24 CA         61.8575   40.7025   95.1150 C.3       4 GLC5        0.0000 
     25 CA         60.9730   39.5940   96.8360 C.3      12 GLL5        0.0000 
     26 CA         62.7420   41.8110   93.3940 C.3       8 GLP5        0.0000 
     27 CA         62.3710   42.1035   96.3855 C.3       4 GLC5        0.0000 
     28 CA         61.6640   41.3100   98.3500 C.3      12 GLL5        0.0000 
     29 CA         63.0780   42.8970   94.4210 C.3       8 GLP5        0.0000 
     30 N          63.5800   42.7975   98.4360 N.am      2 SEC2        0.0000 
     31 N          62.5510   42.2710   97.7480 N.am     10 SEL2        0.0000 
     32 N          64.6090   43.3240   99.1240 N.am      6 SEP2        0.0000 
     33 CA         60.5555   42.8085   96.2860 C.3       4 GLC5        0.0000 
     34 CA         60.2290   41.5580   97.8870 C.3      12 GLL5        0.0000 
     35 CA         60.8820   44.0590   94.6850 C.3       8 GLP5        0.0000 
     36 CA         59.6925   41.0290   95.7950 C.3       4 GLC5        0.0000 
     37 CA         60.7560   40.1835  100.8540 C.3       4 GLC5        0.0000 
     38 CA         59.2330   40.7470  100.0070 C.3      12 GLL5        0.0000 
     39 CA         62.2790   39.6200  101.7010 C.3       8 GLP5        0.0000 
     40 CA         60.0900   41.3260  102.0790 C.3       4 GLC5        0.0000 
     41 CA         58.3900   40.9360  101.1160 C.3      12 GLL5        0.0000 
     42 CA         61.7900   41.7160  103.0420 C.3       8 GLP5        0.0000 
     43 O          59.0850   37.5770  102.8575 O.2       1 ALC1        0.0000 
     44 O          58.7340   38.6580  101.8700 O.2       9 ALL1        0.0000 
     45 O          59.4360   36.4960  103.8450 O.2       5 ALP1        0.0000 
     46 N          51.9525   44.7085   96.8245 N.am      2 SEC2        0.0000 
     47 N          51.6350   43.1720   97.2270 N.am     10 SEL2        0.0000 
     48 N          52.2700   46.2450   96.4220 N.am      6 SEP2        0.0000 
     49 NZ         51.8875   45.4155   97.8725 N.4       3 LYC4        0.0000 
     50 NZ         51.5050   44.5860   99.3230 N.4      11 LYL4        0.0000 
     51 NZ         53.0200   47.0640   97.1490 N.4       7 LYP4        0.0000 
     52 N          52.3985   45.6810   98.8715 N.am      2 SEC2        0.0000 
     53 N          51.5050   44.5860   99.3230 N.am     10 SEL2        0.0000 
     54 N          51.8875   45.4155   97.8725 N.am      2 SEC2        0.0000 
     55 NZ         51.5980   41.6430  100.6725 N.4       3 LYC4        0.0000 
     56 NZ         51.7670   42.0730   99.5740 N.4      11 LYL4        0.0000 
     57 NZ         51.4290   41.2130  101.7710 N.4       7 LYP4        0.0000 
     58 N          51.5980   41.6430  100.6725 N.am      2 SEC2        0.0000 
     59 N          51.7670   42.0730   99.5740 N.am     10 SEL2        0.0000 
     60 N          51.4290   41.2130  101.7710 N.am      6 SEP2        0.0000 
     61 CA         56.9213   44.0453   94.6845 C.3       4 GLC5        0.0000 
     62 CA         56.3550   46.2070   95.3170 C.3      12 GLL5        0.0000 
     63 CA         55.4550   47.6510   96.5892 C.3       4 GLC5        0.0000 
     64 CA         56.5440   45.4700   96.4750 C.3      12 GLL5        0.0000 
     65 CA         61.9322   38.0023   95.4890 C.3       4 GLC5        0.0000 
     66 CA         63.1010   37.1390   94.1430 C.3       8 GLP5        0.0000 
     67 CA         59.9597   39.6827   95.2690 C.3       4 GLC5        0.0000 
     68 CA         60.5540   38.1370   96.8340 C.3      12 GLL5        0.0000 
     69 CA         62.0513   40.1078   99.9190 C.3       4 GLC5        0.0000 
     70 CA         61.9830   39.8810   97.9240 C.3      12 GLL5        0.0000 
     71 CA         61.1513   43.3375   98.5162 C.3       4 GLC5        0.0000 
     72 CA         61.3560   45.2410   98.9140 C.3       8 GLP5        0.0000 
     73 CA         58.7015   43.7463  102.0020 C.3       4 GLC5        0.0000 
     74 CA         57.7860   43.0970  100.2760 C.3      12 GLL5        0.0000 
     75 CA         59.6850   44.8860  103.2400 C.3       8 GLP5        0.0000 
@<TRIPOS>BOND
@<TRIPOS>SUBSTRUCTURE
     1 ALC1       15 GROUP        1 X    ALC  0     ROOT ALC X 1
     2 SEC2        1 GROUP        1 X    SEC  0     **** SEC X 2
     3 LYC4       49 GROUP        1 X    LYC  0     **** LYC X 4
     4 GLC5        6 GROUP        1 X    GLC  0     **** GLC X 6
     5 ALP1       17 GROUP        1 Y    ALP  0     ROOT ALP Y 8
     6 SEP2        3 GROUP        1 Y    SEP  0     **** SEP Y 9
     7 LYP4       51 GROUP        1 Y    LYP  0     **** LYP Y 11
     8 GLP5        8 GROUP        1 Y    GLP  0     **** GLP Y 13
     9 ALL1       16 GROUP        1 Z    ALL  0     ROOT ALL Z 15
    10 SEL2        2 GROUP        1 Z    SEL  0     **** SEL Z 16
    11 LYL4       50 GROUP        1 Z    LYL  0     **** LYL Z 18
    12 GLL5        7 GROUP        1 Z    GLL  0     **** GLL Z 20
@<TRIPOS>SET

