#    Name: 3nwl_NDP_3_ligand
#    Modification time : Tue Mar 25 02:49:46 2014

@<TRIPOS>MOLECULE
3nwl_NDP_3_ligand
   74    78     1     0     0
SMALL
NO_CHARGES


@<TRIPOS>ATOM
      1 PA         56.1940   37.2960   96.7670 P.3       1 NDP528      0.0000 
      2 O1A        55.7820   37.2080   95.3170 O.co2     1 NDP528      0.0000 
      3 O2A        55.6280   36.3460   97.7910 O.co2     1 NDP528      0.0000 
      4 O5B        55.8130   38.7710   97.2620 O.3       1 NDP528      0.0000 
      5 C5B        56.4420   39.9390   96.7450 C.3       1 NDP528      0.0000 
      6 C4B        56.0640   41.0950   97.6600 C.3       1 NDP528      0.0000 
      7 O4B        56.6130   42.3140   97.1750 O.3       1 NDP528      0.0000 
      8 C3B        54.5560   41.2820   97.7650 C.3       1 NDP528      0.0000 
      9 O3B        54.1300   40.9060   99.0810 O.3       1 NDP528      0.0000 
     10 C2B        54.3170   42.7640   97.5610 C.3       1 NDP528      0.0000 
     11 O2B        53.6260   43.3470   98.6740 O.3       1 NDP528      0.0000 
     12 C1B        55.6980   43.3690   97.4560 C.3       1 NDP528      0.0000 
     13 N9A        55.7660   44.3910   96.3920 N.pl3     1 NDP528      0.0000 
     14 C8A        55.1030   44.4160   95.2140 C.2       1 NDP528      0.0000 
     15 N7A        55.4610   45.5430   94.5460 N.2       1 NDP528      0.0000 
     16 C5A        56.3550   46.2070   95.3170 C.ar      1 NDP528      0.0000 
     17 C6A        57.0770   47.3890   95.1710 C.ar      1 NDP528      0.0000 
     18 N6A        56.9330   48.1560   94.0560 N.pl3     1 NDP528      0.0000 
     19 N1A        57.9250   47.7790   96.1630 N.ar      1 NDP528      0.0000 
     20 C2A        58.0700   47.0460   97.2760 C.ar      1 NDP528      0.0000 
     21 N3A        57.3980   45.9040   97.4390 N.ar      1 NDP528      0.0000 
     22 C4A        56.5440   45.4700   96.4750 C.ar      1 NDP528      0.0000 
     23 O3         57.8000   37.2680   96.7630 O.3       1 NDP528      0.0000 
     24 PN         58.6780   36.6970   97.9860 P.3       1 NDP528      0.0000 
     25 O1N        59.3220   35.3730   97.6310 O.co2     1 NDP528      0.0000 
     26 O2N        57.8500   36.8410   99.2690 O.co2     1 NDP528      0.0000 
     27 O5D        59.8560   37.7930   98.0250 O.3       1 NDP528      0.0000 
     28 C5D        60.5540   38.1370   96.8340 C.3       1 NDP528      0.0000 
     29 C4D        60.9730   39.5940   96.8360 C.3       1 NDP528      0.0000 
     30 O4D        59.8510   40.4640   97.0330 O.3       1 NDP528      0.0000 
     31 C3D        61.9830   39.8810   97.9240 C.3       1 NDP528      0.0000 
     32 O3D        63.3220   39.7160   97.4280 O.3       1 NDP528      0.0000 
     33 C2D        61.6640   41.3100   98.3500 C.3       1 NDP528      0.0000 
     34 O2D        62.5510   42.2710   97.7480 O.3       1 NDP528      0.0000 
     35 C1D        60.2290   41.5580   97.8870 C.3       1 NDP528      0.0000 
     36 N1N        59.3340   41.7090   99.0570 N.pl3     1 NDP528      0.0000 
     37 C2N        59.2330   40.7470  100.0070 C.2       1 NDP528      0.0000 
     38 C3N        58.3900   40.9360  101.1160 C.2       1 NDP528      0.0000 
     39 C7N        58.2860   39.8780  102.1730 C.2       1 NDP528      0.0000 
     40 O7N        57.8180   40.1770  103.2740 O.2       1 NDP528      0.0000 
     41 N7N        58.7340   38.6580  101.8700 N.am      1 NDP528      0.0000 
     42 C4N        57.6500   42.1160  101.2520 C.3       1 NDP528      0.0000 
     43 C5N        57.7860   43.0970  100.2760 C.2       1 NDP528      0.0000 
     44 C6N        58.6440   42.8630   99.1960 C.2       1 NDP528      0.0000 
     45 P2B        52.0050   43.2950   98.7040 P.3       1 NDP528      0.0000 
     46 O1X        51.6350   43.1720   97.2270 O.co2     1 NDP528      0.0000 
     47 O2X        51.5050   44.5860   99.3230 O.co2     1 NDP528      0.0000 
     48 O3X        51.7670   42.0730   99.5740 O.co2     1 NDP528      0.0000 
     49 H          56.0992   40.1773   95.7416 H         1 NDP528      0.0000 
     50 H          57.5253   39.8520   96.7418 H         1 NDP528      0.0000 
     51 H          56.4401   40.8823   98.6571 H         1 NDP528      0.0000 
     52 H          54.0857   40.7398   97.0007 H         1 NDP528      0.0000 
     53 H          53.8148   42.9089   96.6373 H         1 NDP528      0.0000 
     54 H          55.9350   43.8241   98.4113 H         1 NDP528      0.0000 
     55 H          54.4824   43.7504   94.8992 H         1 NDP528      0.0000 
     56 H          57.4951   48.9820   94.0145 H         1 NDP528      0.0000 
     57 H          56.2778   47.8259   93.3765 H         1 NDP528      0.0000 
     58 H          58.7238   47.3778   98.0310 H         1 NDP528      0.0000 
     59 H          59.9321   37.9662   95.9363 H         1 NDP528      0.0000 
     60 H          61.4652   37.5243   96.7071 H         1 NDP528      0.0000 
     61 H          61.4504   39.8142   95.8790 H         1 NDP528      0.0000 
     62 H          61.7624   39.2327   98.7506 H         1 NDP528      0.0000 
     63 H          61.6734   41.3537   99.4187 H         1 NDP528      0.0000 
     64 H          60.2417   42.4886   97.3186 H         1 NDP528      0.0000 
     65 H          59.7671   39.8659   99.9362 H         1 NDP528      0.0000 
     66 H          59.0910   38.5378  100.9437 H         1 NDP528      0.0000 
     67 H          58.6724   37.9736  102.5965 H         1 NDP528      0.0000 
     68 H          57.8668   42.5753  102.2847 H         1 NDP528      0.0000 
     69 H          56.5370   41.8471  101.3674 H         1 NDP528      0.0000 
     70 H          57.2705   43.9740  100.3428 H         1 NDP528      0.0000 
     71 H          58.7417   43.6234   98.4785 H         1 NDP528      0.0000 
     72 H          53.2493   41.3622   99.2080 H         1 NDP528      0.0000 
     73 H          63.8135   39.2467   98.1616 H         1 NDP528      0.0000 
     74 H          63.2777   41.7259   97.3300 H         1 NDP528      0.0000 
@<TRIPOS>BOND
     1    2    1 ar   
     2    3    1 ar   
     3    4    1 1    
     4   23    1 1    
     5    5    4 1    
     6    6    5 1    
     7   49    5 1    
     8   50    5 1    
     9    7    6 1    
    10    8    6 1    
    11   51    6 1    
    12   12    7 1    
    13    9    8 1    
    14   10    8 1    
    15   52    8 1    
    16   72    9 1    
    17   11   10 1    
    18   12   10 1    
    19   53   10 1    
    20   45   11 1    
    21   13   12 1    
    22   54   12 1    
    23   14   13 1    
    24   22   13 1    
    25   15   14 2    
    26   55   14 1    
    27   16   15 1    
    28   17   16 ar   
    29   22   16 ar   
    30   18   17 1    
    31   19   17 ar   
    32   56   18 1    
    33   57   18 1    
    34   20   19 ar   
    35   21   20 ar   
    36   58   20 1    
    37   22   21 ar   
    38   24   23 1    
    39   25   24 ar   
    40   26   24 ar   
    41   27   24 1    
    42   28   27 1    
    43   29   28 1    
    44   59   28 1    
    45   60   28 1    
    46   30   29 1    
    47   31   29 1    
    48   61   29 1    
    49   35   30 1    
    50   32   31 1    
    51   33   31 1    
    52   62   31 1    
    53   73   32 1    
    54   34   33 1    
    55   35   33 1    
    56   63   33 1    
    57   74   34 1    
    58   36   35 1    
    59   64   35 1    
    60   37   36 1    
    61   44   36 1    
    62   38   37 2    
    63   65   37 1    
    64   39   38 1    
    65   42   38 1    
    66   40   39 2    
    67   41   39 am   
    68   66   41 1    
    69   67   41 1    
    70   43   42 1    
    71   68   42 1    
    72   69   42 1    
    73   44   43 2    
    74   70   43 1    
    75   71   44 1    
    76   46   45 ar   
    77   47   45 ar   
    78   48   45 ar   
@<TRIPOS>SUBSTRUCTURE
     1 NDP528      1 GROUP   
@<TRIPOS>SET

