#    Name: 1c1d_NAD_1_INTS_M
#    Modification time : Mon Mar 24 20:07:35 2014

@<TRIPOS>MOLECULE
1c1d_NAD_1_INTS_M
   84     0     9     0     0
SMALL
NO_CHARGES


@<TRIPOS>ATOM
      1 N          19.7365   52.9750  -16.9060 N.am      2 SEC2        0.0000 
      2 N          18.8850   52.5330  -18.0510 N.am      8 SEL2        0.0000 
      3 N          20.5880   53.4170  -15.7610 N.am      5 SEP2        0.0000 
      4 CA         20.9535   50.1540  -22.2850 C.3       3 GLC5        0.0000 
      5 CA         21.4290   51.5430  -20.6790 C.3       9 GLL5        0.0000 
      6 CA         20.4780   48.7650  -23.8910 C.3       6 GLP5        0.0000 
      7 CA         24.6345   52.3485  -20.4720 C.3       3 GLC5        0.0000 
      8 CA         22.5290   52.5590  -20.8420 C.3       9 GLL5        0.0000 
      9 CA         26.7400   52.1380  -20.1020 C.3       6 GLP5        0.0000 
     10 O          24.0050   55.2210  -20.7550 O.2       1 ALC1        0.0000 
     11 O          22.6830   54.9990  -20.6450 O.2       7 ALL1        0.0000 
     12 O          25.3270   55.4430  -20.8650 O.2       4 ALP1        0.0000 
     13 O          23.8105   55.7040  -21.7650 O.2       1 ALC1        0.0000 
     14 O          24.9380   56.4090  -22.8850 O.2       4 ALP1        0.0000 
     15 O          23.7185   55.7560  -23.1380 O.2       1 ALC1        0.0000 
     16 O          22.4990   55.1030  -23.3910 O.2       7 ALL1        0.0000 
     17 CA         25.2635   52.6655  -21.3760 C.3       3 GLC5        0.0000 
     18 CA         23.7870   53.1930  -22.6500 C.3       9 GLL5        0.0000 
     19 CA         24.6450   51.1870  -22.6970 C.3       3 GLC5        0.0000 
     20 CA         25.5030   49.1810  -22.7440 C.3       6 GLP5        0.0000 
     21 CA         28.2440   53.0400  -26.4895 C.3       3 GLC5        0.0000 
     22 CA         26.6910   51.6480  -26.1780 C.3       9 GLL5        0.0000 
     23 CA         29.7970   54.4320  -26.8010 C.3       6 GLP5        0.0000 
     24 CA         28.7770   51.1045  -23.5220 C.3       3 GLC5        0.0000 
     25 CA         27.6880   52.6870  -24.3510 C.3       9 GLL5        0.0000 
     26 CA         29.8660   49.5220  -22.6930 C.3       6 GLP5        0.0000 
     27 CA         27.2140   52.4125  -22.2265 C.3       3 GLC5        0.0000 
     28 CA         27.7930   54.3335  -23.7040 C.3       3 GLC5        0.0000 
     29 CA         27.8980   55.9800  -23.0570 C.3       6 GLP5        0.0000 
     30 CA         26.8365   53.7695  -25.9895 C.3       3 GLC5        0.0000 
     31 CA         25.9850   54.8520  -27.6280 C.3       6 GLP5        0.0000 
     32 CA         28.7425   53.5595  -25.5760 C.3       3 GLC5        0.0000 
     33 CA         26.5955   50.9340  -23.5475 C.3       3 GLC5        0.0000 
     34 CA         26.1300   52.3395  -22.2080 C.3       3 GLC5        0.0000 
     35 CA         25.5200   52.5410  -24.3140 C.3       9 GLL5        0.0000 
     36 CA         26.7090   54.2605  -23.6855 C.3       3 GLC5        0.0000 
     37 N          21.0360   50.8040  -15.3910 N.am      2 SEC2        0.0000 
     38 N          20.6660   50.3020  -16.6790 N.am      8 SEL2        0.0000 
     39 N          21.4060   51.3060  -14.1030 N.am      5 SEP2        0.0000 
     40 N          21.9305   43.2755  -19.9935 N.am      2 SEC2        0.0000 
     41 N          21.2600   44.6920  -20.3570 N.am      8 SEL2        0.0000 
     42 N          22.6010   41.8590  -19.6300 N.am      5 SEP2        0.0000 
     43 O          22.2325   45.5510  -21.0070 O.2       1 ALC1        0.0000 
     44 O          21.2600   44.6920  -20.3570 O.2       7 ALL1        0.0000 
     45 O          23.2050   46.4100  -21.6570 O.2       4 ALP1        0.0000 
     46 N          18.6845   43.8530  -20.9295 N.am      2 SEC2        0.0000 
     47 N          18.8840   44.1960  -19.3620 N.am      8 SEL2        0.0000 
     48 N          18.4850   43.5100  -22.4970 N.am      5 SEP2        0.0000 
     49 N          18.9705   42.8025  -19.0005 N.am      2 SEC2        0.0000 
     50 N          19.0570   41.4090  -18.6390 N.am      5 SEP2        0.0000 
     51 O          17.4630   44.1975  -19.1485 O.2       1 ALC1        0.0000 
     52 O          18.8840   44.1960  -19.3620 O.2       7 ALL1        0.0000 
     53 O          16.0420   44.1990  -18.9350 O.2       4 ALP1        0.0000 
     54 CA         22.3825   44.0965  -18.2775 C.3       3 GLC5        0.0000 
     55 CA         20.5610   44.6890  -17.6800 C.3       9 GLL5        0.0000 
     56 CA         24.2040   43.5040  -18.8750 C.3       6 GLP5        0.0000 
     57 N          16.0500   46.1215  -12.1990 N.am      2 SEC2        0.0000 
     58 N          17.2370   45.9260  -12.7980 N.am      8 SEL2        0.0000 
     59 N          14.8630   46.3170  -11.6000 N.am      5 SEP2        0.0000 
     60 CA         17.7190   43.4825  -11.9700 C.3       3 GLC5        0.0000 
     61 CA         18.5660   43.7530  -13.9120 C.3       9 GLL5        0.0000 
     62 CA         16.8720   43.2120  -10.0280 C.3       6 GLP5        0.0000 
     63 CA         22.1037   53.4915  -19.2379 C.3       3 GLC5        0.0000 
     64 CA         22.2100   54.0020  -17.4260 C.3       6 GLP5        0.0000 
     65 CA         25.8924   53.5046  -26.3552 C.3       3 GLC5        0.0000 
     66 CA         25.4680   51.8990  -25.5240 C.3       9 GLL5        0.0000 
     67 CA         25.6514   50.6691  -23.9132 C.3       3 GLC5        0.0000 
     68 CA         22.6843   44.8187  -19.0435 C.3       3 GLC5        0.0000 
     69 CA         21.6630   46.4390  -18.7180 C.3       9 GLL5        0.0000 
     70 CA         18.8915   46.4627  -20.4293 C.3       3 GLC5        0.0000 
     71 CA         20.6660   45.8280  -19.7060 C.3       9 GLL5        0.0000 
     72 CA         17.6290   47.3860  -21.6350 C.3       6 GLP5        0.0000 
     73 CA         19.9772   45.0745  -13.5560 C.3       3 GLC5        0.0000 
     74 CA         19.0560   45.3180  -15.8240 C.3       9 GLL5        0.0000 
     75 CA         21.2200   44.9580  -11.9280 C.3       6 GLP5        0.0000 
     76 CA         19.7482   46.8340  -14.4215 C.3       3 GLC5        0.0000 
     77 CA         18.4130   45.0640  -14.5440 C.3       9 GLL5        0.0000 
     78 CA         20.7620   48.4770  -13.6590 C.3       6 GLP5        0.0000 
     79 CA         21.3000   42.1375  -14.4642 C.3       3 GLC5        0.0000 
     80 CA         19.4710   42.7970  -14.6370 C.3       9 GLL5        0.0000 
     81 CA         22.8460   41.3130  -13.7170 C.3       6 GLP5        0.0000 
     82 CA         17.2321   43.0784  -14.8082 C.3       3 GLC5        0.0000 
     83 CA         15.4840   42.5540  -15.1840 C.3       6 GLP5        0.0000 
     84 CA         20.3739   44.0795  -13.4791 C.3       3 GLC5        0.0000 
@<TRIPOS>BOND
@<TRIPOS>SUBSTRUCTURE
     1 ALC1       10 GROUP        1 X    ALC  0     ROOT ALC X 1
     2 SEC2        1 GROUP        1 X    SEC  0     **** SEC X 2
     3 GLC5        4 GROUP        1 X    GLC  0     **** GLC X 6
     4 ALP1       12 GROUP        1 Y    ALP  0     ROOT ALP Y 8
     5 SEP2        3 GROUP        1 Y    SEP  0     **** SEP Y 9
     6 GLP5        6 GROUP        1 Y    GLP  0     **** GLP Y 13
     7 ALL1       11 GROUP        1 Z    ALL  0     ROOT ALL Z 15
     8 SEL2        2 GROUP        1 Z    SEL  0     **** SEL Z 16
     9 GLL5        5 GROUP        1 Z    GLL  0     **** GLL Z 20
@<TRIPOS>SET

