#    Name: 1c1d_NAD_1_ligand
#    Modification time : Mon Mar 24 20:07:35 2014

@<TRIPOS>MOLECULE
1c1d_NAD_1_ligand
   70    74     1     0     0
SMALL
NO_CHARGES


@<TRIPOS>ATOM
      1 PA         19.2220   51.6360  -19.1860 P.3       1 NAD360      0.0000 
      2 O1A        18.3400   51.7970  -20.3580 O.co2     1 NAD360      0.0000 
      3 O2A        18.8850   52.5330  -18.0510 O.co2     1 NAD360      0.0000 
      4 O5B        20.6820   52.1340  -19.5960 O.3       1 NAD360      0.0000 
      5 C5B        21.4290   51.5430  -20.6790 C.3       1 NAD360      0.0000 
      6 C4B        22.5290   52.5590  -20.8420 C.3       1 NAD360      0.0000 
      7 O4B        23.4790   52.1310  -21.8670 O.3       1 NAD360      0.0000 
      8 C3B        22.0160   53.9110  -21.3390 C.3       1 NAD360      0.0000 
      9 O3B        22.6830   54.9990  -20.6450 O.3       1 NAD360      0.0000 
     10 C2B        22.3910   53.7990  -22.8110 C.3       1 NAD360      0.0000 
     11 O2B        22.4990   55.1030  -23.3910 O.3       1 NAD360      0.0000 
     12 C1B        23.7870   53.1930  -22.6500 C.3       1 NAD360      0.0000 
     13 N9A        24.2320   52.6270  -23.8880 N.pl3     1 NAD360      0.0000 
     14 C8A        23.4560   52.0620  -24.8440 C.2       1 NAD360      0.0000 
     15 N7A        24.1630   51.5750  -25.8700 N.2       1 NAD360      0.0000 
     16 C5A        25.4680   51.8990  -25.5240 C.ar      1 NAD360      0.0000 
     17 C6A        26.6910   51.6480  -26.1780 C.ar      1 NAD360      0.0000 
     18 N6A        26.8140   51.0280  -27.3490 N.pl3     1 NAD360      0.0000 
     19 N1A        27.8150   52.0740  -25.5590 N.ar      1 NAD360      0.0000 
     20 C2A        27.6880   52.6870  -24.3510 C.ar      1 NAD360      0.0000 
     21 N3A        26.5990   52.9420  -23.6710 N.ar      1 NAD360      0.0000 
     22 C4A        25.5200   52.5410  -24.3140 C.ar      1 NAD360      0.0000 
     23 O3         19.2770   50.0880  -18.7990 O.3       1 NAD360      0.0000 
     24 PN         19.6010   49.4760  -17.3370 P.3       1 NAD360      0.0000 
     25 O1N        18.4110   49.2370  -16.4750 O.co2     1 NAD360      0.0000 
     26 O2N        20.6660   50.3020  -16.6790 O.co2     1 NAD360      0.0000 
     27 O5D        20.1090   48.0460  -17.8670 O.3       1 NAD360      0.0000 
     28 C5D        21.4660   47.9040  -18.3990 C.3       1 NAD360      0.0000 
     29 C4D        21.6630   46.4390  -18.7180 C.3       1 NAD360      0.0000 
     30 O4D        21.5490   45.6870  -17.4900 O.3       1 NAD360      0.0000 
     31 C3D        20.6660   45.8280  -19.7060 C.3       1 NAD360      0.0000 
     32 O3D        21.2600   44.6920  -20.3570 O.3       1 NAD360      0.0000 
     33 C2D        19.6420   45.2510  -18.7410 C.3       1 NAD360      0.0000 
     34 O2D        18.8840   44.1960  -19.3620 O.3       1 NAD360      0.0000 
     35 C1D        20.5610   44.6890  -17.6800 C.3       1 NAD360      0.0000 
     36 N1N        19.8780   44.3750  -16.4350 N.pl3     1 NAD360      0.0000 
     37 C2N        19.0560   45.3180  -15.8240 C.ar      1 NAD360      0.0000 
     38 C3N        18.4130   45.0640  -14.5440 C.ar      1 NAD360      0.0000 
     39 C7N        17.7320   46.2170  -13.8990 C.2       1 NAD360      0.0000 
     40 O7N        17.2370   45.9260  -12.7980 O.2       1 NAD360      0.0000 
     41 N7N        17.6580   47.4710  -14.4380 N.am      1 NAD360      0.0000 
     42 C4N        18.5660   43.7530  -13.9120 C.ar      1 NAD360      0.0000 
     43 C5N        19.4710   42.7970  -14.6370 C.ar      1 NAD360      0.0000 
     44 C6N        20.0370   43.1270  -15.7860 C.ar      1 NAD360      0.0000 
     45 H          20.8601   51.4976  -21.5733 H         1 NAD360      0.0000 
     46 H          21.8529   50.6102  -20.4042 H         1 NAD360      0.0000 
     47 H          23.0405   52.7148  -19.9163 H         1 NAD360      0.0000 
     48 H          20.9698   53.9101  -21.2537 H         1 NAD360      0.0000 
     49 H          21.7781   53.1323  -23.2794 H         1 NAD360      0.0000 
     50 H          24.4156   53.8708  -22.2287 H         1 NAD360      0.0000 
     51 H          22.4627   52.0182  -24.7811 H         1 NAD360      0.0000 
     52 H          27.7466   50.9179  -27.6928 H         1 NAD360      0.0000 
     53 H          25.9628   50.7281  -27.7797 H         1 NAD360      0.0000 
     54 H          28.6464   53.0065  -23.8969 H         1 NAD360      0.0000 
     55 H          22.2020   48.2067  -17.6663 H         1 NAD360      0.0000 
     56 H          21.5880   48.4811  -19.3057 H         1 NAD360      0.0000 
     57 H          22.6661   46.2959  -19.1208 H         1 NAD360      0.0000 
     58 H          20.2500   46.5254  -20.2939 H         1 NAD360      0.0000 
     59 H          19.0791   46.0237  -18.3362 H         1 NAD360      0.0000 
     60 H          21.0232   43.7962  -18.0988 H         1 NAD360      0.0000 
     61 H          18.8812   46.2313  -16.2706 H         1 NAD360      0.0000 
     62 H          17.1784   48.1573  -13.8913 H         1 NAD360      0.0000 
     63 H          18.0899   47.5920  -15.3318 H         1 NAD360      0.0000 
     64 H          18.1280   43.5030  -13.0933 H         1 NAD360      0.0000 
     65 H          19.6039   41.8874  -14.1669 H         1 NAD360      0.0000 
     66 H          20.6672   42.4258  -16.2907 H         1 NAD360      0.0000 
     67 H          23.6375   54.9466  -20.9387 H         1 NAD360      0.0000 
     68 H          23.4163   55.4189  -23.1484 H         1 NAD360      0.0000 
     69 H          21.9979   45.0706  -20.9157 H         1 NAD360      0.0000 
     70 H          17.9317   44.3870  -19.1239 H         1 NAD360      0.0000 
@<TRIPOS>BOND
     1    2    1 ar   
     2    3    1 ar   
     3    4    1 1    
     4   23    1 1    
     5    5    4 1    
     6    6    5 1    
     7   45    5 1    
     8   46    5 1    
     9    7    6 1    
    10    8    6 1    
    11   47    6 1    
    12   12    7 1    
    13    9    8 1    
    14   10    8 1    
    15   48    8 1    
    16   67    9 1    
    17   11   10 1    
    18   12   10 1    
    19   49   10 1    
    20   68   11 1    
    21   13   12 1    
    22   50   12 1    
    23   14   13 1    
    24   22   13 1    
    25   15   14 2    
    26   51   14 1    
    27   16   15 1    
    28   17   16 ar   
    29   22   16 ar   
    30   18   17 1    
    31   19   17 ar   
    32   52   18 1    
    33   53   18 1    
    34   20   19 ar   
    35   21   20 ar   
    36   54   20 1    
    37   22   21 ar   
    38   24   23 1    
    39   25   24 ar   
    40   26   24 ar   
    41   27   24 1    
    42   28   27 1    
    43   29   28 1    
    44   55   28 1    
    45   56   28 1    
    46   30   29 1    
    47   31   29 1    
    48   57   29 1    
    49   35   30 1    
    50   32   31 1    
    51   33   31 1    
    52   58   31 1    
    53   69   32 1    
    54   34   33 1    
    55   35   33 1    
    56   59   33 1    
    57   70   34 1    
    58   36   35 1    
    59   60   35 1    
    60   37   36 ar   
    61   44   36 ar   
    62   38   37 ar   
    63   61   37 1    
    64   39   38 1    
    65   42   38 ar   
    66   40   39 2    
    67   41   39 am   
    68   62   41 1    
    69   63   41 1    
    70   43   42 ar   
    71   64   42 1    
    72   44   43 ar   
    73   65   43 1    
    74   66   44 1    
@<TRIPOS>SUBSTRUCTURE
     1 NAD360      1 GROUP   
@<TRIPOS>SET

