#    Name: 2D37_1_CAVITY_N1_6.mol2
#    Modification time : Tue Mar 11 08:08:44 2014

@<TRIPOS>MOLECULE
2D37_1_CAVITY_N1_6.mol2
   83     0     7     0     0
SMALL
NO_CHARGES


@<TRIPOS>ATOM
      1 CA          3.5344   60.1870   10.2163 C.3       6 GLY6        0.0000 
      2 DU          2.5831   59.2158   10.8500 H         7 CUB7        0.0000 
      3 NZ          1.4242   60.0435   10.3787 N.2       4 LYS4        0.0000 
      4 CA          2.7905   57.4169   11.9549 C.3       6 GLY6        0.0000 
      5 OD1        -4.6990   57.8139   11.9711 O.3       3 ASP3        0.0000 
      6 N           4.7378   60.1478   11.9628 N.2       2 ALA2        0.0000 
      7 N           3.5790   60.9755   11.4915 N.2       2 ALA2        0.0000 
      8 N           3.7864   59.1766   12.5965 N.2       2 ALA2        0.0000 
      9 OG          2.6276   60.0043   12.1253 O.2       1 SER1        0.0000 
     10 OG          1.4688   60.8319   11.6540 O.2       1 SER1        0.0000 
     11 CA          2.8351   58.2054   13.2302 C.3       6 GLY6        0.0000 
     12 CA          1.6762   59.0330   12.7590 C.3       6 GLY6        0.0000 
     13 CA          0.5174   59.8607   12.2877 C.3       6 GLY6        0.0000 
     14 CA         -0.4340   58.8895   12.9215 C.3       6 GLY6        0.0000 
     15 N          -1.5928   59.7172   12.4502 N.2       2 ALA2        0.0000 
     16 N          -1.3854   57.9183   13.5552 N.2       2 ALA2        0.0000 
     17 N          -2.5442   58.7459   13.0839 N.2       2 ALA2        0.0000 
     18 N          -4.6544   58.6024   13.2464 N.2       2 ALA2        0.0000 
     19 N          -5.6058   57.6312   13.8801 N.2       2 ALA2        0.0000 
     20 N          -5.3983   55.8323   14.9851 N.2       2 ALA2        0.0000 
     21 DU         -6.5572   56.6599   14.5138 H         7 CUB7        0.0000 
     22 CA         -7.7160   57.4876   14.0426 C.3       6 GLY6        0.0000 
     23 O          -6.3497   54.8610   15.6188 O.2       2 ALA2        0.0000 
     24 DU         -7.5086   55.6887   15.1476 H         7 CUB7        0.0000 
     25 CA         -8.6674   56.5164   14.6763 C.3       6 GLY6        0.0000 
     26 N          -9.6188   55.5452   15.3100 N.2       2 ALA2        0.0000 
     27 N           4.7824   60.9363   13.2381 N.2       2 ALA2        0.0000 
     28 CZ          3.6236   61.7639   12.7668 C.ar      5 PHE5        0.0000 
     29 N           3.8310   59.9651   13.8718 N.2       2 ALA2        0.0000 
     30 OG          2.6722   60.7927   13.4005 O.2       1 SER1        0.0000 
     31 OG          1.5133   61.6204   12.9293 O.2       1 SER1        0.0000 
     32 CA          1.7208   59.8215   14.0343 C.3       6 GLY6        0.0000 
     33 CA          0.5620   60.6492   13.5630 C.3       6 GLY6        0.0000 
     34 N          -0.5969   61.4768   13.0918 N.2       2 ALA2        0.0000 
     35 N          -1.7557   62.3045   12.6205 N.2       2 ALA2        0.0000 
     36 CA         -1.5483   60.5056   13.7255 C.3       6 GLY6        0.0000 
     37 CA         -2.4996   59.5344   14.3592 C.3       6 GLY6        0.0000 
     38 N          -3.6585   60.3621   13.8880 N.2       2 ALA2        0.0000 
     39 CA         -4.8173   61.1898   13.4167 C.3       6 GLY6        0.0000 
     40 N          -4.6099   59.3909   14.5217 N.2       2 ALA2        0.0000 
     41 CA         -5.7687   60.2185   14.0504 C.3       6 GLY6        0.0000 
     42 CA         -6.9275   61.0462   13.5792 C.3       6 GLY6        0.0000 
     43 N          -5.5612   58.4196   15.1554 N.2       2 ALA2        0.0000 
     44 O          -6.7201   59.2473   14.6842 O.2       2 ALA2        0.0000 
     45 O          -5.3538   56.6207   16.2604 O.2       2 ALA2        0.0000 
     46 DU         -6.5126   57.4484   15.7891 H         7 CUB7        0.0000 
     47 O          -7.6714   58.2761   15.3179 O.2       2 ALA2        0.0000 
     48 O          -7.4640   56.4772   16.4228 O.2       2 ALA2        0.0000 
     49 N          -8.6228   57.3049   15.9516 N.2       2 ALA2        0.0000 
     50 OG          1.5579   62.4089   14.2046 O.2       1 SER1        0.0000 
     51 CZ          0.3991   63.2365   13.7333 C.ar      5 PHE5        0.0000 
     52 CZ         -0.7598   64.0642   13.2621 C.ar      5 PHE5        0.0000 
     53 OG          0.6065   61.4376   14.8383 O.2       1 SER1        0.0000 
     54 OG         -0.5523   62.2653   14.3670 O.2       1 SER1        0.0000 
     55 CZ         -1.7112   63.0930   13.8958 C.ar      5 PHE5        0.0000 
     56 CA         -1.5037   61.2941   15.0008 C.3       6 GLY6        0.0000 
     57 CZ         -2.6625   62.1218   14.5295 C.ar      5 PHE5        0.0000 
     58 CZ         -3.8214   62.9494   14.0583 C.ar      5 PHE5        0.0000 
     59 N          -3.6139   61.1505   15.1632 N.2       2 ALA2        0.0000 
     60 N          -4.7727   61.9782   14.6920 N.2       2 ALA2        0.0000 
     61 CZ         -5.9316   62.8059   14.2207 C.ar      5 PHE5        0.0000 
     62 N          -4.5653   60.1793   15.7970 N.2       2 ALA2        0.0000 
     63 N          -5.7241   61.0070   15.3257 N.2       2 ALA2        0.0000 
     64 O          -6.8830   61.8347   14.8545 O.2       2 ALA2        0.0000 
     65 O          -8.0418   62.6623   14.3832 O.2       2 ALA2        0.0000 
     66 CA         -4.3579   58.3804   16.9019 C.3       6 GLY6        0.0000 
     67 N          -5.5167   59.2081   16.4307 N.2       2 ALA2        0.0000 
     68 O          -6.6755   60.0358   15.9594 O.2       2 ALA2        0.0000 
     69 CA         -6.4681   58.2369   17.0644 C.3       6 GLY6        0.0000 
     70 O          -7.6269   59.0646   16.5931 O.2       2 ALA2        0.0000 
     71 OG          0.4436   64.0250   15.0086 O.2       1 SER1        0.0000 
     72 CZ         -0.7152   64.8527   14.5374 C.ar      5 PHE5        0.0000 
     73 CA         -0.5078   63.0538   15.6423 C.3       6 GLY6        0.0000 
     74 CA         -1.6666   63.8815   15.1711 C.3       6 GLY6        0.0000 
     75 CZ         -2.8254   64.7091   14.6998 C.ar      5 PHE5        0.0000 
     76 N          -2.6180   62.9102   15.8048 N.2       2 ALA2        0.0000 
     77 N          -3.7768   63.7379   15.3336 N.2       2 ALA2        0.0000 
     78 CZ         -4.9356   64.5656   14.8623 C.ar      5 PHE5        0.0000 
     79 N          -5.8870   63.5944   15.4960 N.2       2 ALA2        0.0000 
     80 CZ         -7.0459   64.4220   15.0248 C.ar      5 PHE5        0.0000 
     81 N          -6.8384   62.6231   16.1297 N.2       2 ALA2        0.0000 
     82 CA         -5.4721   59.9966   17.7059 C.3       6 GLY6        0.0000 
     83 CA         -6.6310   60.8242   17.2347 C.3       6 GLY6        0.0000 
@<TRIPOS>BOND
@<TRIPOS>SUBSTRUCTURE
     1 SER1        9 GROUP   
     2 ALA2        6 GROUP   
     3 ASP3        5 GROUP   
     4 LYS4        3 GROUP   
     5 PHE5       28 GROUP   
     6 GLY6        1 GROUP   
     7 CUB7        2 GROUP   
@<TRIPOS>SET

