#    Name: 2d37_FMN_1_INTS_M
#    Modification time : Tue Mar 25 09:35:51 2014

@<TRIPOS>MOLECULE
2d37_FMN_1_INTS_M
   59     0     9     0     0
SMALL
NO_CHARGES


@<TRIPOS>ATOM
      1 N         -11.2655   63.1655   14.8400 N.am      2 SEC2        0.0000 
      2 N          -9.9240   62.9940   15.1940 N.am      8 SEL2        0.0000 
      3 N         -12.6070   63.3370   14.4860 N.am      5 SEP2        0.0000 
      4 N          -9.9940   61.5275   15.3055 N.am      2 SEC2        0.0000 
      5 N         -10.0640   60.0610   15.4170 N.am      5 SEP2        0.0000 
      6 O          -9.5580   65.5825   15.9710 O.2       1 ALC1        0.0000 
      7 O          -8.5490   64.7380   15.5480 O.2       7 ALL1        0.0000 
      8 O         -10.5670   66.4270   16.3940 O.2       4 ALP1        0.0000 
      9 N          -7.6730   67.6005   16.3910 N.am      2 SEC2        0.0000 
     10 N          -7.1170   66.4590   15.9210 N.am      8 SEL2        0.0000 
     11 N          -8.2290   68.7420   16.8610 N.am      5 SEP2        0.0000 
     12 N          -4.3820   66.1740   16.0550 N.am      2 SEC2        0.0000 
     13 N          -4.9260   64.9660   15.2430 N.am      8 SEL2        0.0000 
     14 N          -3.8380   67.3820   16.8670 N.am      5 SEP2        0.0000 
     15 CA         -2.4050   66.5615   15.1375 C.3       3 GLC5        0.0000 
     16 CA         -2.5750   64.5900   14.9450 C.3       9 GLL5        0.0000 
     17 CA         -2.2350   68.5330   15.3300 C.3       6 GLP5        0.0000 
     18 CA          0.2465   65.7665   16.4015 C.3       3 GLC5        0.0000 
     19 CA         -0.1010   64.3500   15.0610 C.3       9 GLL5        0.0000 
     20 CA          0.5940   67.1830   17.7420 C.3       6 GLP5        0.0000 
     21 CA          0.9445   64.4870   13.6300 C.3       3 GLC5        0.0000 
     22 CA          1.9900   64.6240   12.1990 C.3       6 GLP5        0.0000 
     23 CA          1.8185   63.7145   15.8925 C.3       3 GLC5        0.0000 
     24 CA          3.7380   63.0790   16.7240 C.3       6 GLP5        0.0000 
     25 CA         -1.3405   62.7295   16.4220 C.3       3 GLC5        0.0000 
     26 CA         -1.6820   62.4370   14.3870 C.3       9 GLL5        0.0000 
     27 CA         -0.9990   63.0220   18.4570 C.3       6 GLP5        0.0000 
     28 CA          0.7260   63.1115   13.0380 C.3       3 GLC5        0.0000 
     29 CA         -0.5380   61.5990   13.8770 C.3       9 GLL5        0.0000 
     30 CA         -1.1745   61.2595   11.7915 C.3       3 GLC5        0.0000 
     31 CA         -1.8110   60.9200    9.7060 C.3       6 GLP5        0.0000 
     32 CA         -5.4105   61.2270   12.7050 C.3       3 GLC5        0.0000 
     33 CA         -5.7380   60.8270   14.4790 C.3       9 GLL5        0.0000 
     34 CA         -5.0830   61.6270   10.9310 C.3       6 GLP5        0.0000 
     35 CA         -6.4605   60.1935   17.8790 C.3       3 GLC5        0.0000 
     36 CA         -6.0520   60.1830   15.8350 C.3       9 GLL5        0.0000 
     37 CA         -6.8690   60.2040   19.9230 C.3       6 GLP5        0.0000 
     38 O          -4.7685   61.5570   17.3155 O.2       1 ALC1        0.0000 
     39 O          -4.9350   60.2740   16.7040 O.2       7 ALL1        0.0000 
     40 O          -4.6020   62.8400   17.9270 O.2       4 ALP1        0.0000 
     41 N          -8.7890   59.3240   15.0660 N.am      2 SEC2        0.0000 
     42 N          -7.5140   58.5870   14.7150 N.am      8 SEL2        0.0000 
     43 CA         -6.8810   59.1740   18.4550 C.3       3 GLC5        0.0000 
     44 CA         -6.8930   58.1440   16.9870 C.3       9 GLL5        0.0000 
     45 N          -5.5605   57.0995   18.9535 N.am      2 SEC2        0.0000 
     46 N          -5.7390   57.9270   17.7700 N.am      8 SEL2        0.0000 
     47 N          -5.3820   56.2720   20.1370 N.am      5 SEP2        0.0000 
     48 N          -5.0945   56.5490   18.0640 N.am      2 SEC2        0.0000 
     49 N          -4.4500   55.1710   18.3580 N.am      5 SEP2        0.0000 
     50 N          -5.6235   55.5455   17.3190 N.am      2 SEC2        0.0000 
     51 N          -6.7970   55.9200   16.2800 N.am      8 SEL2        0.0000 
     52 CA         -3.9065   64.9855   16.6680 C.3       3 GLC5        0.0000 
     53 CA         -3.8710   64.1100   14.9690 C.3       9 GLL5        0.0000 
     54 CA         -4.5900   65.6210   18.3790 C.3       6 GLP5        0.0000 
     55 CA         -1.0294   63.6440   16.7099 C.3       3 GLC5        0.0000 
     56 CA         -1.4692   60.4582   15.2920 C.3       3 GLC5        0.0000 
     57 CA         -0.8840   58.9360   16.3510 C.3       6 GLP5        0.0000 
     58 CA         -4.3153   61.9870   12.7100 C.3       3 GLC5        0.0000 
     59 CA         -2.9990   61.9430   14.3340 C.3       9 GLL5        0.0000 
@<TRIPOS>BOND
@<TRIPOS>SUBSTRUCTURE
     1 ALC1        6 GROUP        1 X    ALC  0     ROOT ALC X 1
     2 SEC2        1 GROUP        1 X    SEC  0     **** SEC X 2
     3 GLC5       15 GROUP        1 X    GLC  0     **** GLC X 6
     4 ALP1        8 GROUP        1 Y    ALP  0     ROOT ALP Y 8
     5 SEP2        3 GROUP        1 Y    SEP  0     **** SEP Y 9
     6 GLP5       17 GROUP        1 Y    GLP  0     **** GLP Y 13
     7 ALL1        7 GROUP        1 Z    ALL  0     ROOT ALL Z 15
     8 SEL2        2 GROUP        1 Z    SEL  0     **** SEL Z 16
     9 GLL5       16 GROUP        1 Z    GLL  0     **** GLL Z 20
@<TRIPOS>SET

