#    Name: 2d37_FMN_1_ligand
#    Modification time : Tue Mar 25 09:35:51 2014

@<TRIPOS>MOLECULE
2d37_FMN_1_ligand
   50    52     1     0     0
SMALL
NO_CHARGES


@<TRIPOS>ATOM
      1 N1         -7.7330   62.6130   14.8830 N.2       1 FMN200      0.0000 
      2 C2         -8.7860   63.4280   15.1950 C.2       1 FMN200      0.0000 
      3 O2         -9.9240   62.9940   15.1940 O.2       1 FMN200      0.0000 
      4 N3         -8.5490   64.7380   15.5480 N.am      1 FMN200      0.0000 
      5 C4         -7.2830   65.2610   15.5800 C.2       1 FMN200      0.0000 
      6 O4         -7.1170   66.4590   15.9210 O.2       1 FMN200      0.0000 
      7 C4A        -6.2040   64.4520   15.2420 C.2       1 FMN200      0.0000 
      8 N5         -4.9260   64.9660   15.2430 N.2       1 FMN200      0.0000 
      9 C5A        -3.8710   64.1100   14.9690 C.ar      1 FMN200      0.0000 
     10 C6         -2.5750   64.5900   14.9450 C.ar      1 FMN200      0.0000 
     11 C7         -1.4620   63.7740   14.7840 C.ar      1 FMN200      0.0000 
     12 C7M        -0.1010   64.3500   15.0610 C.3       1 FMN200      0.0000 
     13 C8         -1.6820   62.4370   14.3870 C.ar      1 FMN200      0.0000 
     14 C8M        -0.5380   61.5990   13.8770 C.3       1 FMN200      0.0000 
     15 C9         -2.9990   61.9430   14.3340 C.ar      1 FMN200      0.0000 
     16 C9A        -4.0960   62.7510   14.6440 C.ar      1 FMN200      0.0000 
     17 N10        -5.4060   62.2770   14.5920 N.pl3     1 FMN200      0.0000 
     18 C10        -6.4470   63.1020   14.9170 C.2       1 FMN200      0.0000 
     19 C1'        -5.7380   60.8270   14.4790 C.3       1 FMN200      0.0000 
     20 C2'        -6.0520   60.1830   15.8350 C.3       1 FMN200      0.0000 
     21 O2'        -4.9350   60.2740   16.7040 O.3       1 FMN200      0.0000 
     22 C3'        -6.4430   58.7140   15.6450 C.3       1 FMN200      0.0000 
     23 O3'        -7.5140   58.5870   14.7150 O.3       1 FMN200      0.0000 
     24 C4'        -6.8930   58.1440   16.9870 C.3       1 FMN200      0.0000 
     25 O4'        -5.7390   57.9270   17.7700 O.3       1 FMN200      0.0000 
     26 C5'        -7.6700   56.8310   16.8940 C.3       1 FMN200      0.0000 
     27 O5'        -6.7970   55.9200   16.2800 O.3       1 FMN200      0.0000 
     28 P          -7.4000   54.7820   15.3090 P.3       1 FMN200      0.0000 
     29 O1P        -7.7490   53.6830   16.2670 O.co2     1 FMN200      0.0000 
     30 O2P        -6.2520   54.2640   14.4270 O.co2     1 FMN200      0.0000 
     31 O3P        -8.5670   55.2370   14.4690 O.co2     1 FMN200      0.0000 
     32 H          -9.3613   65.3491   15.7985 H         1 FMN200      0.0000 
     33 H          -2.4202   65.6260   15.0540 H         1 FMN200      0.0000 
     34 H          -3.1539   60.9571   14.0583 H         1 FMN200      0.0000 
     35 H          -4.8969   60.2827   14.0237 H         1 FMN200      0.0000 
     36 H          -6.6094   60.6906   13.8209 H         1 FMN200      0.0000 
     37 H          -6.9153   60.6979   16.2510 H         1 FMN200      0.0000 
     38 H          -5.5720   58.1695   15.3290 H         1 FMN200      0.0000 
     39 H          -7.5336   58.8831   17.4685 H         1 FMN200      0.0000 
     40 H          -8.5622   57.0170   16.3098 H         1 FMN200      0.0000 
     41 H          -7.9435   56.5383   17.8997 H         1 FMN200      0.0000 
     42 H           0.6241   63.6775   14.9127 H         1 FMN200      0.0000 
     43 H           0.0988   65.1316   14.4701 H         1 FMN200      0.0000 
     44 H          -0.0174   64.6677   16.0055 H         1 FMN200      0.0000 
     45 H          -0.1183   61.9997   13.0626 H         1 FMN200      0.0000 
     46 H           0.1847   61.5012   14.5612 H         1 FMN200      0.0000 
     47 H          -0.8346   60.6765   13.6301 H         1 FMN200      0.0000 
     48 H          -4.7553   61.2537   16.7925 H         1 FMN200      0.0000 
     49 H          -7.3396   57.7270   14.2356 H         1 FMN200      0.0000 
     50 H          -5.1519   58.7161   17.5896 H         1 FMN200      0.0000 
@<TRIPOS>BOND
     1    2    1 1    
     2   18    1 2    
     3    3    2 2    
     4    4    2 am   
     5    5    4 am   
     6   32    4 1    
     7    6    5 2    
     8    7    5 1    
     9    8    7 2    
    10   18    7 1    
    11    9    8 1    
    12   10    9 ar   
    13   16    9 ar   
    14   11   10 ar   
    15   33   10 1    
    16   12   11 1    
    17   13   11 ar   
    18   42   12 1    
    19   43   12 1    
    20   44   12 1    
    21   14   13 1    
    22   15   13 ar   
    23   45   14 1    
    24   46   14 1    
    25   47   14 1    
    26   16   15 ar   
    27   34   15 1    
    28   17   16 1    
    29   18   17 1    
    30   19   17 1    
    31   20   19 1    
    32   35   19 1    
    33   36   19 1    
    34   21   20 1    
    35   22   20 1    
    36   37   20 1    
    37   48   21 1    
    38   23   22 1    
    39   24   22 1    
    40   38   22 1    
    41   49   23 1    
    42   25   24 1    
    43   26   24 1    
    44   39   24 1    
    45   50   25 1    
    46   27   26 1    
    47   40   26 1    
    48   41   26 1    
    49   28   27 1    
    50   29   28 ar   
    51   30   28 ar   
    52   31   28 ar   
@<TRIPOS>SUBSTRUCTURE
     1 FMN200      1 GROUP   
@<TRIPOS>SET

