#    Name: 3m11_AKI_1_INTS_M
#    Modification time : Mon Mar 24 22:37:55 2014

@<TRIPOS>MOLECULE
3m11_AKI_1_INTS_M
   99     0     9     0     0
SMALL
NO_CHARGES


@<TRIPOS>ATOM
      1 N           3.3555   32.7565    9.6310 N.am      2 SEC2        0.0000 
      2 N           3.8610   31.3560    9.0250 N.am      8 SEL2        0.0000 
      3 N           2.8500   34.1570   10.2370 N.am      5 SEP2        0.0000 
      4 CA          3.2520   29.5090    9.9235 C.3       3 GLC5        0.0000 
      5 CA          4.6360   30.4240    9.5570 C.3       9 GLL5        0.0000 
      6 CA          1.8680   28.5940   10.2900 C.3       6 GLP5        0.0000 
      7 CA          6.1430   30.5705   10.7475 C.3       3 GLC5        0.0000 
      8 CA          7.6500   30.7170   11.9380 C.3       6 GLP5        0.0000 
      9 CA          4.9915   28.4235   10.2360 C.3       3 GLC5        0.0000 
     10 CA          5.3470   26.4230   10.9150 C.3       6 GLP5        0.0000 
     11 CA          3.2460   31.5150   10.6910 C.3       3 GLC5        0.0000 
     12 CA          1.8560   32.6060   11.8250 C.3       6 GLP5        0.0000 
     13 CA          6.2225   31.4375    9.0340 C.3       3 GLC5        0.0000 
     14 CA          7.8090   32.4510    8.5110 C.3       6 GLP5        0.0000 
     15 CA          4.0540   28.0740    7.3080 C.3       3 GLC5        0.0000 
     16 CA          5.3220   29.6850    7.4730 C.3       9 GLL5        0.0000 
     17 CA          2.7860   26.4630    7.1430 C.3       6 GLP5        0.0000 
     18 CA          2.8230   30.0465    8.9925 C.3       3 GLC5        0.0000 
     19 CA          3.7780   31.4990    7.6950 C.3       9 GLL5        0.0000 
     20 CA          4.3070   33.4220    8.6270 C.3       3 GLC5        0.0000 
     21 CA          4.8360   35.3450    9.5590 C.3       6 GLP5        0.0000 
     22 CA          3.8710   27.4595    4.9975 C.3       3 GLC5        0.0000 
     23 CA          4.6330   29.0510    4.2250 C.3       9 GLL5        0.0000 
     24 CA          3.1090   25.8680    5.7700 C.3       6 GLP5        0.0000 
     25 CA          4.8765   26.9435    4.4015 C.3       3 GLC5        0.0000 
     26 CA          5.1680   28.4570    3.0870 C.3       9 GLL5        0.0000 
     27 CA          4.5850   25.4300    5.7160 C.3       6 GLP5        0.0000 
     28 CA          2.5660   30.1210    4.8770 C.3       3 GLC5        0.0000 
     29 CA          4.2530   31.0090    5.5720 C.3       9 GLL5        0.0000 
     30 CA          0.8790   29.2330    4.1820 C.3       6 GLP5        0.0000 
     31 CA          1.8625   30.8455    6.1340 C.3       3 GLC5        0.0000 
     32 CA          3.3580   32.0640    5.5960 C.3       9 GLL5        0.0000 
     33 CA          0.3670   29.6270    6.6720 C.3       6 GLP5        0.0000 
     34 CA          0.6305   32.4140    4.7685 C.3       3 GLC5        0.0000 
     35 CA          2.1340   33.8990    4.6310 C.3       9 GLL5        0.0000 
     36 CA         -0.8730   30.9290    4.9060 C.3       6 GLP5        0.0000 
     37 CA          5.7300   26.6275    6.5395 C.3       3 GLC5        0.0000 
     38 CA          6.8750   27.8250    7.3630 C.3       9 GLL5        0.0000 
     39 CA          6.1110   27.1240    9.1390 C.3       3 GLC5        0.0000 
     40 CA          8.0345   30.4250    8.0890 C.3       3 GLC5        0.0000 
     41 CA          8.2600   28.3990    7.6670 C.3       9 GLL5        0.0000 
     42 CA          7.1210   26.6100   10.2175 C.3       3 GLC5        0.0000 
     43 CA          8.8950   26.7970    9.5200 C.3       9 GLL5        0.0000 
     44 CA          9.0210   24.0345   10.9955 C.3       3 GLC5        0.0000 
     45 CA          9.7280   25.8270   10.0650 C.3       9 GLL5        0.0000 
     46 CA          8.3140   22.2420   11.9260 C.3       6 GLP5        0.0000 
     47 CA          8.2465   26.2790   11.5095 C.3       3 GLC5        0.0000 
     48 CA          6.7650   26.7310   12.9540 C.3       6 GLP5        0.0000 
     49 CA         11.7340   26.5260   10.2960 C.3       3 GLC5        0.0000 
     50 CA         13.7400   27.2250   10.5270 C.3       6 GLP5        0.0000 
     51 O          11.9995   24.4005   11.4100 O.2       1 ALC1        0.0000 
     52 O          11.6390   24.4620    9.8810 O.2       7 ALL1        0.0000 
     53 O          12.3600   24.3390   12.9390 O.2       4 ALP1        0.0000 
     54 O          12.6405   22.2955   11.2590 O.2       1 ALC1        0.0000 
     55 O          12.5700   22.3990    9.8700 O.2       7 ALL1        0.0000 
     56 O          12.7110   22.1920   12.6480 O.2       4 ALP1        0.0000 
     57 CA         15.1955   21.6720   10.7210 C.3       3 GLC5        0.0000 
     58 CA         13.9480   20.5280    9.4840 C.3       9 GLL5        0.0000 
     59 CA         16.4430   22.8160   11.9580 C.3       6 GLP5        0.0000 
     60 N          10.0865   23.2860    7.2555 N.am      2 SEC2        0.0000 
     61 N          11.1400   23.0040    8.2610 N.am      8 SEL2        0.0000 
     62 N           9.0330   23.5680    6.2500 N.am      5 SEP2        0.0000 
     63 CA          2.2580   30.3507    6.9805 C.3       3 GLC5        0.0000 
     64 CA          4.5200   30.6500    6.8830 C.3       9 GLL5        0.0000 
     65 CA          6.0793   31.6421    7.9737 C.3       3 GLC5        0.0000 
     66 CA          6.9768   32.1530    2.7110 C.3       3 GLC5        0.0000 
     67 CA          5.4790   31.1880    3.5080 C.3       9 GLL5        0.0000 
     68 CA          8.2070   33.4150    2.4830 C.3       6 GLP5        0.0000 
     69 CA          6.3318   32.0945    5.0987 C.3       3 GLC5        0.0000 
     70 CA          7.5300   33.3870    6.2260 C.3       6 GLP5        0.0000 
     71 CA          2.9091   29.1641    3.9453 C.3       3 GLC5        0.0000 
     72 CA          4.1714   28.1022    1.7200 C.3       3 GLC5        0.0000 
     73 CA          2.9630   27.2130    0.5320 C.3       6 GLP5        0.0000 
     74 CA          5.6677   32.4617    5.9050 C.3       3 GLC5        0.0000 
     75 CA          1.8016   30.9315    3.5773 C.3       3 GLC5        0.0000 
     76 CA          2.8410   32.7110    4.4800 C.3       9 GLL5        0.0000 
     77 CA          8.2542   24.6795    8.8648 C.3       3 GLC5        0.0000 
     78 CA          7.1970   23.0470    7.9370 C.3       6 GLP5        0.0000 
     79 CA         10.3517   28.8753    8.8982 C.3       3 GLC5        0.0000 
     80 CA         10.2920   26.8940    7.5610 C.3       9 GLL5        0.0000 
     81 CA         11.1540   30.6380    9.6440 C.3       6 GLP5        0.0000 
     82 CA         12.3203   26.6644    8.5885 C.3       3 GLC5        0.0000 
     83 CA         14.0030   27.0530    9.0300 C.3       6 GLP5        0.0000 
     84 CA         12.4078   20.0115   10.7308 C.3       3 GLC5        0.0000 
     85 CA         12.7350   21.1920    9.3370 C.3       9 GLL5        0.0000 
     86 CA         11.4740   19.1630   12.0510 C.3       6 GLP5        0.0000 
     87 CA         12.5377   19.0652   10.3128 C.3       3 GLC5        0.0000 
     88 CA         14.1210   19.2660    8.9270 C.3       9 GLL5        0.0000 
     89 CA         11.9140   17.1220    8.1303 C.3       3 GLC5        0.0000 
     90 CA         11.8700   19.3330    8.0750 C.3       9 GLL5        0.0000 
     91 CA         11.3520   15.2430    8.1120 C.3       6 GLP5        0.0000 
     92 CA         11.6288   19.5633   10.2025 C.3       3 GLC5        0.0000 
     93 CA         11.5717   19.1762    6.5789 C.3       3 GLC5        0.0000 
     94 CA         11.6970   20.5940    8.6330 C.3       9 GLL5        0.0000 
     95 CA         11.0570   18.5550    4.7670 C.3       6 GLP5        0.0000 
     96 CA         10.4332   19.0673    8.8864 C.3       3 GLC5        0.0000 
     97 CA          8.7800   18.3370    9.3820 C.3       6 GLP5        0.0000 
     98 CA          3.4117   34.9710    3.8383 C.3       3 GLC5        0.0000 
     99 CA          4.7000   36.2190    4.1160 C.3       6 GLP5        0.0000 
@<TRIPOS>BOND
@<TRIPOS>SUBSTRUCTURE
     1 ALC1       51 GROUP        1 X    ALC  0     ROOT ALC X 1
     2 SEC2        1 GROUP        1 X    SEC  0     **** SEC X 2
     3 GLC5        4 GROUP        1 X    GLC  0     **** GLC X 6
     4 ALP1       53 GROUP        1 Y    ALP  0     ROOT ALP Y 8
     5 SEP2        3 GROUP        1 Y    SEP  0     **** SEP Y 9
     6 GLP5        6 GROUP        1 Y    GLP  0     **** GLP Y 13
     7 ALL1       52 GROUP        1 Z    ALL  0     ROOT ALL Z 15
     8 SEL2        2 GROUP        1 Z    SEL  0     **** SEL Z 16
     9 GLL5        5 GROUP        1 Z    GLL  0     **** GLL Z 20
@<TRIPOS>SET

