#    Name: 3m11_AKI_1_ligand
#    Modification time : Mon Mar 24 22:37:55 2014

@<TRIPOS>MOLECULE
3m11_AKI_1_ligand
   67    72     1     0     0
SMALL
NO_CHARGES


@<TRIPOS>ATOM
      1 N1          3.8610   31.3560    9.0250 N.ar      1 AKI1        0.0000 
      2 C2          4.6360   30.4240    9.5570 C.ar      1 AKI1        0.0000 
      3 N3          5.3550   29.6010    8.8100 N.ar      1 AKI1        0.0000 
      4 C4          5.3220   29.6850    7.4730 C.ar      1 AKI1        0.0000 
      5 C5          4.5200   30.6500    6.8830 C.ar      1 AKI1        0.0000 
      6 C6          3.7780   31.4990    7.6950 C.ar      1 AKI1        0.0000 
      7 CAA         6.0140   30.5940    2.3700 C.ar      1 AKI1        0.0000 
      8 CAB         5.4790   31.1880    3.5080 C.ar      1 AKI1        0.0000 
      9 CAC         4.7880   30.4160    4.4350 C.ar      1 AKI1        0.0000 
     10 CAD         4.6330   29.0510    4.2250 C.ar      1 AKI1        0.0000 
     11 CAE         5.1680   28.4570    3.0870 C.ar      1 AKI1        0.0000 
     12 CAF         5.8590   29.2290    2.1600 C.ar      1 AKI1        0.0000 
     13 CAG         4.2530   31.0090    5.5720 C.2       1 AKI1        0.0000 
     14 CAH         3.3580   32.0640    5.5960 C.2       1 AKI1        0.0000 
     15 OAI         3.0660   32.3650    6.8970 O.3       1 AKI1        0.0000 
     16 CAL         2.8410   32.7110    4.4800 C.ar      1 AKI1        0.0000 
     17 CAM         3.0300   32.1710    3.2140 C.ar      1 AKI1        0.0000 
     18 CAN         2.5130   32.8190    2.0980 C.ar      1 AKI1        0.0000 
     19 CAO         1.8070   34.0060    2.2490 C.ar      1 AKI1        0.0000 
     20 CAP         1.6170   34.5460    3.5150 C.ar      1 AKI1        0.0000 
     21 CAQ         2.1340   33.8990    4.6310 C.ar      1 AKI1        0.0000 
     22 CAV         6.8750   27.8250    7.3630 C.3       1 AKI1        0.0000 
     23 CAW         8.2600   28.3990    7.6670 C.3       1 AKI1        0.0000 
     24 CAX         9.1770   27.3310    8.2680 C.ar      1 AKI1        0.0000 
     25 CAY         8.8950   26.7970    9.5200 C.ar      1 AKI1        0.0000 
     26 CAZ         9.7280   25.8270   10.0650 C.ar      1 AKI1        0.0000 
     27 CBA        10.8420   25.3910    9.3590 C.ar      1 AKI1        0.0000 
     28 CBB        11.1240   25.9240    8.1070 C.ar      1 AKI1        0.0000 
     29 CBC        10.2920   26.8940    7.5610 C.ar      1 AKI1        0.0000 
     30 NBD        11.6390   24.4620    9.8810 N.am      1 AKI1        0.0000 
     31 CBE        11.7550   23.2760    9.2910 C.2       1 AKI1        0.0000 
     32 NBF        12.5700   22.3990    9.8700 N.am      1 AKI1        0.0000 
     33 CBG        12.7350   21.1920    9.3370 C.ar      1 AKI1        0.0000 
     34 CBH        13.9480   20.5280    9.4840 C.ar      1 AKI1        0.0000 
     35 CBI        14.1210   19.2660    8.9270 C.ar      1 AKI1        0.0000 
     36 CBJ        13.0820   18.6690    8.2220 C.ar      1 AKI1        0.0000 
     37 CBK        11.8700   19.3330    8.0750 C.ar      1 AKI1        0.0000 
     38 CBL        11.6970   20.5940    8.6330 C.ar      1 AKI1        0.0000 
     39 OBM        11.1400   23.0040    8.2610 O.2       1 AKI1        0.0000 
     40 NBN         6.0450   28.8570    6.7250 N.pl3     1 AKI1        0.0000 
     41 H           4.6824   30.3338   10.6157 H         1 AKI1        0.0000 
     42 H           6.5244   31.1654    1.6839 H         1 AKI1        0.0000 
     43 H           5.5946   32.1977    3.6635 H         1 AKI1        0.0000 
     44 H           4.1226   28.4795    4.9111 H         1 AKI1        0.0000 
     45 H           5.0524   27.4473    2.9315 H         1 AKI1        0.0000 
     46 H           6.2554   28.7896    1.3188 H         1 AKI1        0.0000 
     47 H           3.5522   31.2921    3.1020 H         1 AKI1        0.0000 
     48 H           2.6534   32.4194    1.1607 H         1 AKI1        0.0000 
     49 H           1.4246   34.4855    1.4228 H         1 AKI1        0.0000 
     50 H           1.0938   35.4245    3.6264 H         1 AKI1        0.0000 
     51 H           1.9940   34.2982    5.5682 H         1 AKI1        0.0000 
     52 H           6.4274   27.4920    8.2990 H         1 AKI1        0.0000 
     53 H           6.9958   26.9642    6.7058 H         1 AKI1        0.0000 
     54 H           8.1601   29.2233    8.3717 H         1 AKI1        0.0000 
     55 H           8.7030   28.7744    6.7457 H         1 AKI1        0.0000 
     56 H           8.0703   27.1195   10.0428 H         1 AKI1        0.0000 
     57 H           9.5191   25.4320   10.9917 H         1 AKI1        0.0000 
     58 H          11.9488   25.6005    7.5842 H         1 AKI1        0.0000 
     59 H          10.5003   27.2887    6.6347 H         1 AKI1        0.0000 
     60 H          12.1760   24.6658   10.7585 H         1 AKI1        0.0000 
     61 H          13.0825   22.6594   10.7469 H         1 AKI1        0.0000 
     62 H          14.7165   20.9703   10.0044 H         1 AKI1        0.0000 
     63 H          15.0174   18.7741    9.0364 H         1 AKI1        0.0000 
     64 H          13.2106   17.7357    7.8092 H         1 AKI1        0.0000 
     65 H          11.1015   18.8914    7.5535 H         1 AKI1        0.0000 
     66 H          10.7993   21.0852    8.5246 H         1 AKI1        0.0000 
     67 H           6.0662   28.8874    5.6985 H         1 AKI1        0.0000 
@<TRIPOS>BOND
     1    2    1 ar   
     2    6    1 ar   
     3    3    2 ar   
     4   41    2 1    
     5    4    3 ar   
     6    5    4 ar   
     7   40    4 1    
     8    6    5 ar   
     9   13    5 1    
    10   15    6 1    
    11    8    7 ar   
    12   12    7 ar   
    13   42    7 1    
    14    9    8 ar   
    15   43    8 1    
    16   10    9 ar   
    17   13    9 1    
    18   11   10 ar   
    19   44   10 1    
    20   12   11 ar   
    21   45   11 1    
    22   46   12 1    
    23   14   13 2    
    24   15   14 1    
    25   16   14 1    
    26   17   16 ar   
    27   21   16 ar   
    28   18   17 ar   
    29   47   17 1    
    30   19   18 ar   
    31   48   18 1    
    32   20   19 ar   
    33   49   19 1    
    34   21   20 ar   
    35   50   20 1    
    36   51   21 1    
    37   23   22 1    
    38   40   22 1    
    39   52   22 1    
    40   53   22 1    
    41   24   23 1    
    42   54   23 1    
    43   55   23 1    
    44   25   24 ar   
    45   29   24 ar   
    46   26   25 ar   
    47   56   25 1    
    48   27   26 ar   
    49   57   26 1    
    50   28   27 ar   
    51   30   27 1    
    52   29   28 ar   
    53   58   28 1    
    54   59   29 1    
    55   31   30 am   
    56   60   30 1    
    57   32   31 am   
    58   39   31 2    
    59   33   32 1    
    60   61   32 1    
    61   34   33 ar   
    62   38   33 ar   
    63   35   34 ar   
    64   62   34 1    
    65   36   35 ar   
    66   63   35 1    
    67   37   36 ar   
    68   64   36 1    
    69   38   37 ar   
    70   65   37 1    
    71   66   38 1    
    72   67   40 1    
@<TRIPOS>SUBSTRUCTURE
     1 AKI1        1 GROUP   
@<TRIPOS>SET

