#    Name: 1B9I_1_CAVITY_N1_ALL.mol2
#    Modification time : Mon Mar 10 14:25:50 2014

@<TRIPOS>MOLECULE
1B9I_1_CAVITY_N1_ALL.mol2
   75     0     7     0     0
SMALL
NO_CHARGES


@<TRIPOS>ATOM
      1 CZ         14.0358   42.3311   17.0530 C.ar      5 PHE5        0.0000 
      2 O          15.5965   41.7747   14.1367 O.2       2 ALA2        0.0000 
      3 DU         14.6515   41.4112   15.2433 H         7 CUB7        0.0000 
      4 CZ         13.7064   41.0476   16.3500 C.ar      5 PHE5        0.0000 
      5 O          15.2671   40.4913   13.4337 O.2       2 ALA2        0.0000 
      6 DU         14.3220   40.1277   14.5403 H         7 CUB7        0.0000 
      7 CZ         13.3770   39.7641   15.6470 C.ar      5 PHE5        0.0000 
      8 CZ         12.4319   39.4006   16.7536 C.ar      5 PHE5        0.0000 
      9 CA         15.8827   39.5714   11.6240 C.3       6 GLY6        0.0000 
     10 CZ         14.9376   39.2078   12.7307 C.ar      5 PHE5        0.0000 
     11 CZ         13.9926   38.8442   13.8373 C.ar      5 PHE5        0.0000 
     12 CA         17.4434   39.0150    8.7077 C.3       6 GLY6        0.0000 
     13 CA         16.4983   38.6515    9.8144 C.3       6 GLY6        0.0000 
     14 CZ         15.5533   38.2879   10.9211 C.ar      5 PHE5        0.0000 
     15 NZ         17.1140   37.7316    8.0048 N.2       4 LYS4        0.0000 
     16 DU         16.1689   37.3680    9.1114 H         7 CUB7        0.0000 
     17 CZ         15.2238   37.0044   10.2181 C.ar      5 PHE5        0.0000 
     18 OG         16.7845   36.4481    7.3018 O.2       1 SER1        0.0000 
     19 OG         15.8395   36.0845    8.4084 O.2       1 SER1        0.0000 
     20 N          16.7138   41.0888   14.8654 N.2       2 ALA2        0.0000 
     21 OG         15.7687   40.7252   15.9721 O.2       1 SER1        0.0000 
     22 CZ         14.8237   40.3617   17.0788 C.ar      5 PHE5        0.0000 
     23 CZ         13.8786   39.9981   18.1854 C.ar      5 PHE5        0.0000 
     24 OD1        16.3844   39.8053   14.1625 O.3       3 ASP3        0.0000 
     25 OG         15.4393   39.4418   15.2691 O.2       1 SER1        0.0000 
     26 CZ         14.4943   39.0782   16.3758 C.ar      5 PHE5        0.0000 
     27 CZ         13.5492   38.7146   17.4824 C.ar      5 PHE5        0.0000 
     28 CA         17.0000   38.8854   12.3528 C.3       6 GLY6        0.0000 
     29 OD1        16.0549   38.5219   13.4595 O.3       3 ASP3        0.0000 
     30 CZ         15.1099   38.1583   14.5661 C.ar      5 PHE5        0.0000 
     31 CZ         14.1648   37.7947   15.6728 C.ar      5 PHE5        0.0000 
     32 CA         17.6156   37.9655   10.5432 C.3       6 GLY6        0.0000 
     33 CZ         16.6706   37.6020   11.6498 C.ar      5 PHE5        0.0000 
     34 CZ         15.7255   37.2384   12.7565 C.ar      5 PHE5        0.0000 
     35 CA         18.2312   37.0456    8.7335 C.3       6 GLY6        0.0000 
     36 OG         17.2862   36.6821    9.8402 O.2       1 SER1        0.0000 
     37 CZ         16.3411   36.3185   10.9469 C.ar      5 PHE5        0.0000 
     38 OG         17.9018   35.7622    8.0306 O.2       1 SER1        0.0000 
     39 OG         16.5566   38.7558   15.9979 O.2       1 SER1        0.0000 
     40 OG         15.6115   38.3922   17.1046 O.2       1 SER1        0.0000 
     41 OD1        16.2272   37.4723   15.2949 O.3       3 ASP3        0.0000 
     42 CZ         15.2821   37.1088   16.4016 C.ar      5 PHE5        0.0000 
     43 OG         18.7329   37.2796   11.2720 O.2       1 SER1        0.0000 
     44 OD1        17.7879   36.9160   12.3786 O.3       3 ASP3        0.0000 
     45 CZ         16.8428   36.5524   13.4853 C.ar      5 PHE5        0.0000 
     46 OG         19.3485   36.3597    9.4623 O.2       1 SER1        0.0000 
     47 OG         18.4035   35.9961   10.5690 O.2       1 SER1        0.0000 
     48 CZ         17.4584   35.6325   11.6756 C.ar      5 PHE5        0.0000 
     49 OG         18.0741   34.7126    9.8660 O.2       1 SER1        0.0000 
     50 OG         17.1290   34.3491   10.9727 O.2       1 SER1        0.0000 
     51 OD1        17.3445   36.7864   16.0237 O.3       3 ASP3        0.0000 
     52 CA         18.9051   36.2301   13.1074 C.3       6 GLY6        0.0000 
     53 CA         17.9601   35.8665   14.2141 C.3       6 GLY6        0.0000 
     54 CA         17.0150   35.5029   15.3207 C.3       6 GLY6        0.0000 
     55 OG         19.5208   35.3102   11.2978 O.2       1 SER1        0.0000 
     56 OG         18.5757   34.9466   12.4044 O.2       1 SER1        0.0000 
     57 CZ         17.6307   34.5830   13.5111 C.ar      5 PHE5        0.0000 
     58 CA         16.6856   34.2195   14.6177 C.3       6 GLY6        0.0000 
     59 O          19.1913   34.0267   10.5948 O.2       2 ALA2        0.0000 
     60 CA         18.2463   33.6631   11.7014 C.3       6 GLY6        0.0000 
     61 CA         17.3012   33.2996   12.8081 C.3       6 GLY6        0.0000 
     62 CZ         16.3562   32.9360   13.9148 C.ar      5 PHE5        0.0000 
     63 CA         17.9169   32.3797   10.9985 C.3       6 GLY6        0.0000 
     64 CA         19.0774   35.1805   14.9429 C.3       6 GLY6        0.0000 
     65 N          18.1323   34.8170   16.0495 N.2       2 ALA2        0.0000 
     66 CA         19.6930   34.2606   13.1332 C.3       6 GLY6        0.0000 
     67 CA         18.7480   33.8971   14.2399 C.3       6 GLY6        0.0000 
     68 CA         17.8029   33.5335   15.3465 C.3       6 GLY6        0.0000 
     69 CA         16.8578   33.1699   16.4532 C.3       6 GLY6        0.0000 
     70 CA         19.3636   32.9772   12.4302 C.3       6 GLY6        0.0000 
     71 NZ         18.4185   32.6136   13.5369 N.2       4 LYS4        0.0000 
     72 NZ         17.4735   32.2500   14.6435 N.2       4 LYS4        0.0000 
     73 CA         19.0341   31.6937   11.7272 C.3       6 GLY6        0.0000 
     74 CA         18.0891   31.3301   12.8339 C.3       6 GLY6        0.0000 
     75 CA         18.9202   32.8476   16.0753 C.3       6 GLY6        0.0000 
@<TRIPOS>BOND
@<TRIPOS>SUBSTRUCTURE
     1 SER1       18 GROUP   
     2 ALA2        2 GROUP   
     3 ASP3       24 GROUP   
     4 LYS4       15 GROUP   
     5 PHE5        1 GROUP   
     6 GLY6        9 GROUP   
     7 CUB7        3 GROUP   
@<TRIPOS>SET

