#    Name: 1b9i_PXG_1_INTS_M
#    Modification time : Mon Mar 24 19:28:33 2014

@<TRIPOS>MOLECULE
1b9i_PXG_1_INTS_M
   52     0     9     0     0
SMALL
NO_CHARGES


@<TRIPOS>ATOM
      1 CA         18.6285   31.4845   18.4985 C.3       3 GLC5        0.0000 
      2 CA         18.1280   32.6150   17.0520 C.3       9 GLL5        0.0000 
      3 CA         19.1290   30.3540   19.9450 C.3       6 GLP5        0.0000 
      4 O          18.1250   35.3765   17.3725 O.2       1 ALC1        0.0000 
      5 O          17.5570   35.4220   16.0920 O.2       7 ALL1        0.0000 
      6 O          18.6930   35.3310   18.6530 O.2       4 ALP1        0.0000 
      7 CA         18.7475   30.8320   12.3770 C.3       3 GLC5        0.0000 
      8 CA         18.5680   32.5440   13.2160 C.3       9 GLL5        0.0000 
      9 CA         18.9270   29.1200   11.5380 C.3       6 GLP5        0.0000 
     10 CA         19.8520   33.8470   10.1875 C.3       3 GLC5        0.0000 
     11 CA         18.1760   34.1630   11.2830 C.3       9 GLL5        0.0000 
     12 CA         21.5280   33.5310    9.0920 C.3       6 GLP5        0.0000 
     13 CA         18.3190   32.8990    9.6295 C.3       3 GLC5        0.0000 
     14 CA         18.4620   31.6350    7.9760 C.3       6 GLP5        0.0000 
     15 CA         16.2595   34.3150   12.2540 C.3       3 GLC5        0.0000 
     16 CA         14.3430   34.4670   13.2250 C.3       6 GLP5        0.0000 
     17 CA         20.1015   35.1220   11.6455 C.3       3 GLC5        0.0000 
     18 CA         22.0270   36.0810   12.0080 C.3       6 GLP5        0.0000 
     19 N          18.8325   33.9170    8.3660 N.am      2 SEC2        0.0000 
     20 N          18.2310   35.1540    8.5010 N.am      8 SEL2        0.0000 
     21 N          19.4340   32.6800    8.2310 N.am      5 SEP2        0.0000 
     22 N          17.4175   34.1980    8.4110 N.am      2 SEC2        0.0000 
     23 N          16.6040   33.2420    8.3210 N.am      5 SEP2        0.0000 
     24 N          20.7925   35.6210    8.6985 N.am      2 SEC2        0.0000 
     25 N          20.1280   36.6220    9.3240 N.am      8 SEL2        0.0000 
     26 N          21.4570   34.6200    8.0730 N.am      5 SEP2        0.0000 
     27 N          20.7160   36.9140   10.4355 N.am      2 SEC2        0.0000 
     28 N          21.3040   37.2060   11.5470 N.am      5 SEP2        0.0000 
     29 CA         15.9115   35.3785   13.2510 C.3       3 GLC5        0.0000 
     30 CA         17.4800   36.2900   13.2770 C.3       9 GLL5        0.0000 
     31 CA         18.7985   37.1210   14.0210 C.3       3 GLC5        0.0000 
     32 CA         20.1170   37.9520   14.7650 C.3       6 GLP5        0.0000 
     33 CA         18.0595   38.0675   14.4610 C.3       3 GLC5        0.0000 
     34 CA         16.0020   38.1830   14.1570 C.3       9 GLL5        0.0000 
     35 CA         16.2910   33.4000   16.0110 C.3       3 GLC5        0.0000 
     36 CA         18.1700   33.1710   15.5860 C.3       9 GLL5        0.0000 
     37 CA         14.4330   33.9070   15.7030 C.3       6 GLP5        0.0000 
     38 CA         19.8390   33.4085   15.7240 C.3       3 GLC5        0.0000 
     39 CA         21.5290   33.9240   15.1290 C.3       6 GLP5        0.0000 
     40 CA         16.1285   34.3000   15.0955 C.3       3 GLC5        0.0000 
     41 CA         17.8380   34.4880   15.2240 C.3       9 GLL5        0.0000 
     42 CA         19.6765   34.3085   14.8085 C.3       3 GLC5        0.0000 
     43 CA         19.0358   34.5977   17.1337 C.3       3 GLC5        0.0000 
     44 CA         20.0780   35.5050   18.4960 C.3       6 GLP5        0.0000 
     45 CA         18.9705   36.3225   14.6265 C.3       3 GLC5        0.0000 
     46 CA         19.9365   33.5545   14.0690 C.3       3 GLC5        0.0000 
     47 CA         18.1200   33.8260   12.8020 C.3       9 GLL5        0.0000 
     48 CA         16.8520   32.6675   11.5815 C.3       3 GLC5        0.0000 
     49 CA         15.4440   31.6610   11.0170 C.3       6 GLP5        0.0000 
     50 CA         16.9890   39.9322   11.6625 C.3       3 GLC5        0.0000 
     51 CA         15.9330   38.5980   12.8290 C.3       9 GLL5        0.0000 
     52 CA         18.5450   40.7380   10.6730 C.3       6 GLP5        0.0000 
@<TRIPOS>BOND
@<TRIPOS>SUBSTRUCTURE
     1 ALC1        4 GROUP        1 X    ALC  0     ROOT ALC X 1
     2 SEC2       19 GROUP        1 X    SEC  0     **** SEC X 2
     3 GLC5        1 GROUP        1 X    GLC  0     **** GLC X 6
     4 ALP1        6 GROUP        1 Y    ALP  0     ROOT ALP Y 8
     5 SEP2       21 GROUP        1 Y    SEP  0     **** SEP Y 9
     6 GLP5        3 GROUP        1 Y    GLP  0     **** GLP Y 13
     7 ALL1        5 GROUP        1 Z    ALL  0     ROOT ALL Z 15
     8 SEL2       20 GROUP        1 Z    SEL  0     **** SEL Z 16
     9 GLL5        2 GROUP        1 Z    GLL  0     **** GLL Z 20
@<TRIPOS>SET

