#    Name: 1b9i_PXG_1_ligand
#    Modification time : Mon Mar 24 19:28:33 2014

@<TRIPOS>MOLECULE
1b9i_PXG_1_ligand
   39    40     1     0     0
SMALL
NO_CHARGES


@<TRIPOS>ATOM
      1 N1         18.4840   32.2010   14.5720 N.ar      1 PXG389      0.0000 
      2 C2         18.1700   33.1710   15.5860 C.ar      1 PXG389      0.0000 
      3 C2A        18.1280   32.6150   17.0520 C.3       1 PXG389      0.0000 
      4 C3         17.8380   34.4880   15.2240 C.ar      1 PXG389      0.0000 
      5 O3         17.5570   35.4220   16.0920 O.3       1 PXG389      0.0000 
      6 C5         18.1200   33.8260   12.8020 C.ar      1 PXG389      0.0000 
      7 C6         18.5680   32.5440   13.2160 C.ar      1 PXG389      0.0000 
      8 C5A        18.1760   34.1630   11.2830 C.3       1 PXG389      0.0000 
      9 OP4        18.9930   35.2450   10.8430 O.3       1 PXG389      0.0000 
     10 P          18.6960   36.2080    9.5710 P.3       1 PXG389      0.0000 
     11 OP1        18.2310   35.1540    8.5010 O.co2     1 PXG389      0.0000 
     12 OP2        20.1280   36.6220    9.3240 O.co2     1 PXG389      0.0000 
     13 OP3        17.7470   37.1520    9.9550 O.co2     1 PXG389      0.0000 
     14 C4         17.8100   34.8980   13.7520 C.ar      1 PXG389      0.0000 
     15 C4A        17.4800   36.2900   13.2770 C.3       1 PXG389      0.0000 
     16 C7         13.4150   40.3560   15.9010 C.2       1 PXG389      0.0000 
     17 C8         14.2400   39.7780   14.8250 C.ar      1 PXG389      0.0000 
     18 O2         13.6460   39.8090   17.1750 O.co2     1 PXG389      0.0000 
     19 C9         15.1360   38.8030   15.1400 C.ar      1 PXG389      0.0000 
     20 C10        16.0020   38.1830   14.1570 C.ar      1 PXG389      0.0000 
     21 C11        15.9330   38.5980   12.8290 C.ar      1 PXG389      0.0000 
     22 C12        14.9330   39.6550   12.4750 C.ar      1 PXG389      0.0000 
     23 C13        14.1410   40.2560   13.4120 C.ar      1 PXG389      0.0000 
     24 O8         12.5580   41.2380   15.7680 O.co2     1 PXG389      0.0000 
     25 N9         16.9400   37.1360   14.4000 N.pl3     1 PXG389      0.0000 
     26 H          18.9417   31.8925   12.5343 H         1 PXG389      0.0000 
     27 H          17.0989   34.3092   10.9571 H         1 PXG389      0.0000 
     28 H          18.4651   33.1978   10.7610 H         1 PXG389      0.0000 
     29 H          16.7370   36.2331   12.4745 H         1 PXG389      0.0000 
     30 H          18.3825   36.7583   12.8701 H         1 PXG389      0.0000 
     31 H          15.2315   38.4615   16.1226 H         1 PXG389      0.0000 
     32 H          16.5090   38.2333   12.1025 H         1 PXG389      0.0000 
     33 H          14.8818   39.9001   11.4724 H         1 PXG389      0.0000 
     34 H          13.4955   40.9978   13.2186 H         1 PXG389      0.0000 
     35 H          17.2708   36.9305   15.3362 H         1 PXG389      0.0000 
     36 H          19.0072   32.2260   17.3270 H         1 PXG389      0.0000 
     37 H          17.9039   33.3301   17.7141 H         1 PXG389      0.0000 
     38 H          17.4430   31.8939   17.1563 H         1 PXG389      0.0000 
     39 H          17.7373   35.0085   16.9845 H         1 PXG389      0.0000 
@<TRIPOS>BOND
     1    2    1 ar   
     2    7    1 ar   
     3    3    2 1    
     4    4    2 ar   
     5   36    3 1    
     6   37    3 1    
     7   38    3 1    
     8    5    4 1    
     9   14    4 ar   
    10   39    5 1    
    11    7    6 ar   
    12    8    6 1    
    13   14    6 ar   
    14   26    7 1    
    15    9    8 1    
    16   27    8 1    
    17   28    8 1    
    18   10    9 1    
    19   11   10 ar   
    20   12   10 ar   
    21   13   10 ar   
    22   15   14 1    
    23   25   15 1    
    24   29   15 1    
    25   30   15 1    
    26   17   16 1    
    27   18   16 ar   
    28   24   16 ar   
    29   19   17 ar   
    30   23   17 ar   
    31   20   19 ar   
    32   31   19 1    
    33   21   20 ar   
    34   25   20 1    
    35   22   21 ar   
    36   32   21 1    
    37   23   22 ar   
    38   33   22 1    
    39   34   23 1    
    40   35   25 1    
@<TRIPOS>SUBSTRUCTURE
     1 PXG389      1 GROUP   
@<TRIPOS>SET

