#    Name: 1hwj_116_2_INTS_M
#    Modification time : Tue Mar 25 06:24:23 2014

@<TRIPOS>MOLECULE
1hwj_116_2_INTS_M
   85     0    12     0     0
SMALL
NO_CHARGES


@<TRIPOS>ATOM
      1 CA         -0.3210  -11.1680  -14.1280 C.3       4 GLC5        0.0000 
      2 CA          1.7580  -11.3090  -14.0210 C.3      12 GLL5        0.0000 
      3 CA         -2.4000  -11.0270  -14.2350 C.3       8 GLP5        0.0000 
      4 CA          2.1180   -5.6815  -15.9985 C.3       4 GLC5        0.0000 
      5 CA          1.0350   -7.4550  -15.7590 C.3      12 GLL5        0.0000 
      6 CA          3.2010   -3.9080  -16.2380 C.3       8 GLP5        0.0000 
      7 CA         -0.9235   -6.1895  -13.6270 C.3       4 GLC5        0.0000 
      8 CA         -0.6190   -8.1110  -13.9960 C.3      12 GLL5        0.0000 
      9 CA         -1.2280   -4.2680  -13.2580 C.3       8 GLP5        0.0000 
     10 CA         -0.0365   -9.0130  -12.2080 C.3       4 GLC5        0.0000 
     11 CA          0.5460   -9.9150  -10.4200 C.3       8 GLP5        0.0000 
     12 CA          7.4155  -14.1225  -13.4650 C.3       4 GLC5        0.0000 
     13 CA          5.6280  -13.1700  -12.5240 C.3      12 GLL5        0.0000 
     14 CA          9.2030  -15.0750  -14.4060 C.3       8 GLP5        0.0000 
     15 CA          7.1035  -15.6275   -9.9295 C.3       4 GLC5        0.0000 
     16 CA          5.9090  -14.9020  -10.8940 C.3      12 GLL5        0.0000 
     17 CA          8.2980  -16.3530   -8.9650 C.3       8 GLP5        0.0000 
     18 NZ          3.5820  -13.7510   -5.4195 N.4       3 LYC4        0.0000 
     19 NZ          5.2090  -12.9510   -5.3940 N.4      11 LYL4        0.0000 
     20 NZ          1.9550  -14.5510   -5.4450 N.4       7 LYP4        0.0000 
     21 NZ          4.7695  -12.4690   -3.9975 N.4       3 LYC4        0.0000 
     22 NZ          4.3300  -11.9870   -2.6010 N.4       7 LYP4        0.0000 
     23 N           6.3305  -13.4285   -6.6165 N.am      2 SEC2        0.0000 
     24 N           5.2090  -12.9510   -5.3940 N.am     10 SEL2        0.0000 
     25 N           7.4520  -13.9060   -7.8390 N.am      6 SEP2        0.0000 
     26 N           4.9725  -14.2615   -5.8660 N.am      2 SEC2        0.0000 
     27 N           4.7360  -15.5720   -6.3380 N.am      6 SEP2        0.0000 
     28 NZ          2.6235  -13.5165   -5.9880 N.4       3 LYC4        0.0000 
     29 NZ          3.2920  -12.4820   -6.5310 N.4      11 LYL4        0.0000 
     30 N           2.6235  -13.5165   -5.9880 N.am      2 SEC2        0.0000 
     31 N           3.2920  -12.4820   -6.5310 N.am     10 SEL2        0.0000 
     32 N           1.9550  -14.5510   -5.4450 N.am      6 SEP2        0.0000 
     33 N           7.0485  -12.4370   -7.7150 N.am      2 SEC2        0.0000 
     34 N           6.6450  -10.9680   -7.5910 N.am     10 SEL2        0.0000 
     35 N           7.3795  -11.8705   -8.6585 N.am      2 SEC2        0.0000 
     36 N           8.1140  -12.7730   -9.7260 N.am      6 SEP2        0.0000 
     37 O           7.6205  -10.4215   -6.8160 O.2       1 ALC1        0.0000 
     38 O           6.6450  -10.9680   -7.5910 O.2       9 ALL1        0.0000 
     39 O           8.5960   -9.8750   -6.0410 O.2       5 ALP1        0.0000 
     40 CA          3.6765   -8.9185   -5.5920 C.3       4 GLC5        0.0000 
     41 CA          4.7750  -10.6500   -6.0530 C.3      12 GLL5        0.0000 
     42 CA          2.5780   -7.1870   -5.1310 C.3       8 GLP5        0.0000 
     43 CA          2.9075   -9.9700   -7.0525 C.3       4 GLC5        0.0000 
     44 CA          1.0400   -9.2900   -8.0520 C.3       8 GLP5        0.0000 
     45 CA          6.8055  -11.1895   -5.3235 C.3       4 GLC5        0.0000 
     46 CA          8.8360  -11.7290   -4.5940 C.3       8 GLP5        0.0000 
     47 CA          4.1870   -7.9570   -6.2365 C.3       4 GLC5        0.0000 
     48 CA          5.7960   -8.7270   -7.3420 C.3      12 GLL5        0.0000 
     49 CA          6.8365   -7.5900   -6.0175 C.3       4 GLC5        0.0000 
     50 CA          7.8770   -6.4530   -4.6930 C.3       8 GLP5        0.0000 
     51 CA          7.6260   -7.1450   -7.2120 C.3       4 GLC5        0.0000 
     52 CA          6.3050   -8.1910   -8.6980 C.3      12 GLL5        0.0000 
     53 CA          8.9470   -6.0990   -5.7260 C.3       8 GLP5        0.0000 
     54 CA          5.9370   -4.2320  -12.2480 C.3       4 GLC5        0.0000 
     55 CA          4.1050   -5.1860  -12.8980 C.3      12 GLL5        0.0000 
     56 CA          7.7690   -3.2780  -11.5980 C.3       8 GLP5        0.0000 
     57 CA          3.6530   -4.5470  -14.5680 C.3       4 GLC5        0.0000 
     58 CA          3.4210   -3.3735  -12.5340 C.3       4 GLC5        0.0000 
     59 CA          2.7370   -1.5610  -12.1700 C.3       8 GLP5        0.0000 
     60 CA          2.6635   -3.8110  -10.0000 C.3       4 GLC5        0.0000 
     61 CA          2.7490   -5.6390  -10.8350 C.3      12 GLL5        0.0000 
     62 CA          2.5780   -1.9830   -9.1650 C.3       8 GLP5        0.0000 
     63 N           5.8575   -5.9410   -7.8190 N.am      2 SEC2        0.0000 
     64 N           6.7820   -6.8790   -8.4710 N.am     10 SEL2        0.0000 
     65 N           4.9330   -5.0030   -7.1670 N.am      6 SEP2        0.0000 
     66 N           7.5870   -6.1410   -7.6925 N.am      2 SEC2        0.0000 
     67 N           8.3920   -5.4030   -6.9140 N.am      6 SEP2        0.0000 
     68 O           7.0330   -6.1340   -9.5395 O.2       1 ALC1        0.0000 
     69 O           6.7820   -6.8790   -8.4710 O.2       9 ALL1        0.0000 
     70 O           7.2840   -5.3890  -10.6080 O.2       5 ALP1        0.0000 
     71 CA         -1.1840   -9.6752  -14.2940 C.3       4 GLC5        0.0000 
     72 CA          0.6830   -8.5360  -14.7100 C.3      12 GLL5        0.0000 
     73 CA          2.0666   -9.2354  -11.3336 C.3       4 GLC5        0.0000 
     74 CA          3.5240  -10.0990  -12.4510 C.3      12 GLL5        0.0000 
     75 CA          1.2645   -9.8141  -12.0631 C.3       4 GLC5        0.0000 
     76 CA          2.4100  -10.0360  -13.3800 C.3      12 GLL5        0.0000 
     77 CA          2.2510  -10.7602  -10.9318 C.3       4 GLC5        0.0000 
     78 CA          3.8030  -11.8990  -10.8190 C.3      12 GLL5        0.0000 
     79 CA          2.4900  -13.5370  -10.7848 C.3       4 GLC5        0.0000 
     80 CA          0.8650  -14.5830  -10.9520 C.3       8 GLP5        0.0000 
     81 CA          4.5097  -15.3306  -11.6794 C.3       4 GLC5        0.0000 
     82 CA          4.4270  -13.0830  -10.4160 C.3      12 GLL5        0.0000 
     83 CA          3.5890  -16.5770  -12.3330 C.3       8 GLP5        0.0000 
     84 CA          4.9147  -15.0030   -9.2828 C.3       4 GLC5        0.0000 
     85 CA          4.4370  -15.8520   -7.6960 C.3       8 GLP5        0.0000 
@<TRIPOS>BOND
@<TRIPOS>SUBSTRUCTURE
     1 ALC1       37 GROUP        1 X    ALC  0     ROOT ALC X 1
     2 SEC2       23 GROUP        1 X    SEC  0     **** SEC X 2
     3 LYC4       18 GROUP        1 X    LYC  0     **** LYC X 4
     4 GLC5        1 GROUP        1 X    GLC  0     **** GLC X 6
     5 ALP1       39 GROUP        1 Y    ALP  0     ROOT ALP Y 8
     6 SEP2       25 GROUP        1 Y    SEP  0     **** SEP Y 9
     7 LYP4       20 GROUP        1 Y    LYP  0     **** LYP Y 11
     8 GLP5        3 GROUP        1 Y    GLP  0     **** GLP Y 13
     9 ALL1       38 GROUP        1 Z    ALL  0     ROOT ALL Z 15
    10 SEL2       24 GROUP        1 Z    SEL  0     **** SEL Z 16
    11 LYL4       19 GROUP        1 Z    LYL  0     **** LYL Z 18
    12 GLL5        2 GROUP        1 Z    GLL  0     **** GLL Z 20
@<TRIPOS>SET

