#    Name: 1hwj_116_2_ligand
#    Modification time : Tue Mar 25 06:24:23 2014

@<TRIPOS>MOLECULE
1hwj_116_2_ligand
   68    69     1     0     0
SMALL
NO_CHARGES


@<TRIPOS>ATOM
      1 C14         2.0440  -13.0530  -15.6570 C.3       1 1161        0.0000 
      2 O13         2.4340  -11.7330  -15.2130 O.3       1 1161        0.0000 
      3 C13         1.7580  -11.3090  -14.0210 C.3       1 1161        0.0000 
      4 C15         0.6830   -8.5360  -14.7100 C.3       1 1161        0.0000 
      5 C17         1.0350   -7.4550  -15.7590 C.3       1 1161        0.0000 
      6 C16        -0.6190   -8.1110  -13.9960 C.3       1 1161        0.0000 
      7 C8          3.5240  -10.0990  -12.4510 C.ar      1 1161        0.0000 
      8 C10         4.0210   -8.8520  -11.9120 C.ar      1 1161        0.0000 
      9 C9          3.4020   -7.6360  -12.3130 C.ar      1 1161        0.0000 
     10 N1          2.3990   -7.6620  -13.1670 N.ar      1 1161        0.0000 
     11 C12         1.8820   -8.7540  -13.7120 C.ar      1 1161        0.0000 
     12 C11         2.4100  -10.0360  -13.3800 C.ar      1 1161        0.0000 
     13 C83         5.6280  -13.1700  -12.5240 C.ar      1 1161        0.0000 
     14 C82         5.0280  -11.9670  -12.9150 C.ar      1 1161        0.0000 
     15 C81         4.1090  -11.3120  -12.0680 C.ar      1 1161        0.0000 
     16 C86         3.8030  -11.8990  -10.8190 C.ar      1 1161        0.0000 
     17 C85         4.4270  -13.0830  -10.4160 C.ar      1 1161        0.0000 
     18 C84         5.3250  -13.7290  -11.2740 C.ar      1 1161        0.0000 
     19 F1          5.9090  -14.9020  -10.8940 F         1 1161        0.0000 
     20 O1B         5.2090  -12.9510   -5.3940 O.co2     1 1161        0.0000 
     21 O1A         3.2920  -12.4820   -6.5310 O.co2     1 1161        0.0000 
     22 O3          6.6450  -10.9680   -7.5910 O.3       1 1161        0.0000 
     23 C1          4.4680  -12.1420   -5.9510 C.2       1 1161        0.0000 
     24 C2          4.7750  -10.6500   -6.0530 C.3       1 1161        0.0000 
     25 C3          5.4420  -10.2160   -7.3740 C.3       1 1161        0.0000 
     26 C4          5.7960   -8.7270   -7.3420 C.3       1 1161        0.0000 
     27 C5          6.3050   -8.1910   -8.6980 C.3       1 1161        0.0000 
     28 C6          5.1670   -8.2220   -9.6980 C.3       1 1161        0.0000 
     29 C7          5.2090   -8.8270  -10.9060 C.3       1 1161        0.0000 
     30 C91         3.8260   -6.2230  -11.7880 C.3       1 1161        0.0000 
     31 C92         4.1050   -5.1860  -12.8980 C.3       1 1161        0.0000 
     32 C93         2.7490   -5.6390  -10.8350 C.3       1 1161        0.0000 
     33 O5          6.7820   -6.8790   -8.4710 O.3       1 1161        0.0000 
     34 H           1.7639  -12.0922  -13.2436 H         1 1161        0.0000 
     35 H           0.7006  -11.0590  -14.2141 H         1 1161        0.0000 
     36 H           0.5029   -9.4623  -15.2336 H         1 1161        0.0000 
     37 H           6.2876  -13.6421  -13.1493 H         1 1161        0.0000 
     38 H           5.2562  -11.5526  -13.8279 H         1 1161        0.0000 
     39 H           3.1138  -11.4453  -10.2060 H         1 1161        0.0000 
     40 H           4.2275  -13.4796   -9.4913 H         1 1161        0.0000 
     41 H           5.4345  -10.3590   -5.2159 H         1 1161        0.0000 
     42 H           3.8372  -10.0792   -5.9305 H         1 1161        0.0000 
     43 H           4.7373  -10.3758   -8.1748 H         1 1161        0.0000 
     44 H           6.5709   -8.5566   -6.5840 H         1 1161        0.0000 
     45 H           4.9093   -8.1516   -7.0476 H         1 1161        0.0000 
     46 H           7.0838   -8.8533   -9.0258 H         1 1161        0.0000 
     47 H           4.8402   -7.0977   -9.8089 H         1 1161        0.0000 
     48 H           4.2397   -8.5966   -9.0791 H         1 1161        0.0000 
     49 H           6.1094   -8.4461  -11.5451 H         1 1161        0.0000 
     50 H           5.5210   -9.9487  -10.8130 H         1 1161        0.0000 
     51 H           4.7393   -6.3402  -11.1983 H         1 1161        0.0000 
     52 H           2.5266  -13.3222  -16.4904 H         1 1161        0.0000 
     53 H           2.2397  -13.7498  -14.9670 H         1 1161        0.0000 
     54 H           1.0653  -13.1039  -15.8557 H         1 1161        0.0000 
     55 H           1.1737   -6.5591  -15.3369 H         1 1161        0.0000 
     56 H           1.8740   -7.6783  -16.2552 H         1 1161        0.0000 
     57 H           0.3108   -7.3490  -16.4404 H         1 1161        0.0000 
     58 H          -0.8971   -8.7767  -13.3035 H         1 1161        0.0000 
     59 H          -0.5180   -7.2307  -13.5325 H         1 1161        0.0000 
     60 H          -1.3810   -8.0190  -14.6370 H         1 1161        0.0000 
     61 H           4.3714   -4.2995  -12.5196 H         1 1161        0.0000 
     62 H           4.8442   -5.4802  -13.5038 H         1 1161        0.0000 
     63 H           3.3007   -5.0302  -13.4714 H         1 1161        0.0000 
     64 H           2.6044   -6.2226  -10.0359 H         1 1161        0.0000 
     65 H           3.0054   -4.7343  -10.4947 H         1 1161        0.0000 
     66 H           1.8641   -5.5409  -11.2903 H         1 1161        0.0000 
     67 H           7.3408  -10.5076   -7.0398 H         1 1161        0.0000 
     68 H           6.9071   -6.4878   -9.3828 H         1 1161        0.0000 
@<TRIPOS>BOND
     1    2    1 1    
     2   52    1 1    
     3   53    1 1    
     4   54    1 1    
     5    3    2 1    
     6   12    3 1    
     7   34    3 1    
     8   35    3 1    
     9    5    4 1    
    10    6    4 1    
    11   11    4 1    
    12   36    4 1    
    13   55    5 1    
    14   56    5 1    
    15   57    5 1    
    16   58    6 1    
    17   59    6 1    
    18   60    6 1    
    19    8    7 ar   
    20   12    7 ar   
    21   15    7 1    
    22    9    8 ar   
    23   29    8 1    
    24   10    9 ar   
    25   30    9 1    
    26   11   10 ar   
    27   12   11 ar   
    28   14   13 ar   
    29   18   13 ar   
    30   37   13 1    
    31   15   14 ar   
    32   38   14 1    
    33   16   15 ar   
    34   17   16 ar   
    35   39   16 1    
    36   18   17 ar   
    37   40   17 1    
    38   19   18 1    
    39   23   20 ar   
    40   23   21 ar   
    41   25   22 1    
    42   67   22 1    
    43   24   23 1    
    44   25   24 1    
    45   41   24 1    
    46   42   24 1    
    47   26   25 1    
    48   43   25 1    
    49   27   26 1    
    50   44   26 1    
    51   45   26 1    
    52   28   27 1    
    53   33   27 1    
    54   46   27 1    
    55   29   28 1    
    56   47   28 1    
    57   48   28 1    
    58   49   29 1    
    59   50   29 1    
    60   31   30 1    
    61   32   30 1    
    62   51   30 1    
    63   61   31 1    
    64   62   31 1    
    65   63   31 1    
    66   64   32 1    
    67   65   32 1    
    68   66   32 1    
    69   68   33 1    
@<TRIPOS>SUBSTRUCTURE
     1 1161        1 GROUP   
@<TRIPOS>SET

