#    Name: 3uh4_XAV_1_INTS_M
#    Modification time : Mon Mar 24 22:21:03 2014

@<TRIPOS>MOLECULE
3uh4_XAV_1_INTS_M
   55     0     9     0     0
SMALL
NO_CHARGES


@<TRIPOS>ATOM
      1 CA        -26.0180   -8.8445    9.1145 C.3       3 GLC5        0.0000 
      2 CA        -24.5070   -7.9250    7.8160 C.3       9 GLL5        0.0000 
      3 CA        -27.5290   -9.7640   10.4130 C.3       6 GLP5        0.0000 
      4 CA        -21.9045  -11.1690    7.3855 C.3       3 GLC5        0.0000 
      5 CA        -23.3850   -9.8810    8.3130 C.3       9 GLL5        0.0000 
      6 CA        -20.4240  -12.4570    6.4580 C.3       6 GLP5        0.0000 
      7 CA        -22.6865   -8.7865    6.6180 C.3       3 GLC5        0.0000 
      8 CA        -21.9880   -7.6920    4.9230 C.3       6 GLP5        0.0000 
      9 N         -20.9590   -9.9710    8.9520 N.am      2 SEC2        0.0000 
     10 N         -22.2730  -10.5080    8.7590 N.am      8 SEL2        0.0000 
     11 N         -19.6450   -9.4340    9.1450 N.am      5 SEP2        0.0000 
     12 O         -21.5110  -11.7575    8.7385 O.2       1 ALC1        0.0000 
     13 O         -22.2730  -10.5080    8.7590 O.2       7 ALL1        0.0000 
     14 O         -20.7490  -13.0070    8.7180 O.2       4 ALP1        0.0000 
     15 CA        -22.7505   -2.6280    4.0145 C.3       3 GLC5        0.0000 
     16 CA        -23.7810   -2.0830    5.5550 C.3       9 GLL5        0.0000 
     17 CA        -21.7200   -3.1730    2.4740 C.3       6 GLP5        0.0000 
     18 CA        -26.0790   -3.8875    4.7900 C.3       3 GLC5        0.0000 
     19 CA        -25.4840   -4.5050    6.4530 C.3       9 GLL5        0.0000 
     20 CA        -26.6740   -3.2700    3.1270 C.3       6 GLP5        0.0000 
     21 CA        -26.7270  -13.2205    5.2890 C.3       3 GLC5        0.0000 
     22 CA        -26.8790  -12.0970    6.9370 C.3       9 GLL5        0.0000 
     23 CA        -26.5750  -14.3440    3.6410 C.3       6 GLP5        0.0000 
     24 CA        -22.4545  -12.3050    7.3655 C.3       3 GLC5        0.0000 
     25 CA        -24.4850  -12.1530    8.2730 C.3       9 GLL5        0.0000 
     26 CA        -24.5165  -11.2985    6.2900 C.3       3 GLC5        0.0000 
     27 CA        -24.5480  -10.4440    4.3070 C.3       6 GLP5        0.0000 
     28 CA        -26.3075  -10.0247    9.0992 C.3       3 GLC5        0.0000 
     29 CA        -25.6390   -9.9290    7.5170 C.3       9 GLL5        0.0000 
     30 CA        -23.5418   -0.3842    8.1075 C.3       3 GLC5        0.0000 
     31 CA        -23.9010   -1.4400    7.5820 C.3       9 GLL5        0.0000 
     32 CA        -22.8790    1.0440    9.0910 C.3       6 GLP5        0.0000 
     33 CA        -22.2464   -2.2414    6.3197 C.3       3 GLC5        0.0000 
     34 CA        -24.5080   -2.1850    6.6660 C.3       9 GLL5        0.0000 
     35 CA        -20.5000   -2.5350    6.3000 C.3       6 GLP5        0.0000 
     36 CA        -25.8054   -2.5990    4.6824 C.3       3 GLC5        0.0000 
     37 CA        -21.7710   -4.7052    8.7372 C.3       3 GLC5        0.0000 
     38 CA        -23.5470   -5.5850    8.2160 C.3       9 GLL5        0.0000 
     39 CA        -19.9930   -4.5180    9.3960 C.3       6 GLP5        0.0000 
     40 CA        -23.1299   -6.8753    6.3201 C.3       3 GLC5        0.0000 
     41 CA        -22.2710   -3.2305    6.9032 C.3       3 GLC5        0.0000 
     42 CA        -23.5510   -4.2000    7.9410 C.3       9 GLL5        0.0000 
     43 CA        -27.2267  -10.5470    8.7138 C.3       3 GLC5        0.0000 
     44 CA        -26.9700  -10.5630    7.0920 C.3       9 GLL5        0.0000 
     45 CA        -25.7362  -10.8870    5.6608 C.3       3 GLC5        0.0000 
     46 CA        -28.1995  -13.5280    7.8703 C.3       3 GLC5        0.0000 
     47 CA        -29.8850  -14.5880    8.0600 C.3       6 GLP5        0.0000 
     48 CA        -26.4230  -11.1300    9.3807 C.3       3 GLC5        0.0000 
     49 CA        -26.1490  -12.8390    8.4240 C.3       9 GLL5        0.0000 
     50 CA        -24.9675  -12.6485   10.3968 C.3       3 GLC5        0.0000 
     51 CA        -24.6180  -12.8010   12.4450 C.3       6 GLP5        0.0000 
     52 CA        -24.5090  -14.1345    8.6513 C.3       3 GLC5        0.0000 
     53 CA        -23.7010  -15.7730    8.9540 C.3       6 GLP5        0.0000 
     54 CA        -24.9560  -13.7450    6.7367 C.3       3 GLC5        0.0000 
     55 CA        -24.5950  -14.9940    5.1250 C.3       6 GLP5        0.0000 
@<TRIPOS>BOND
@<TRIPOS>SUBSTRUCTURE
     1 ALC1       12 GROUP        1 X    ALC  0     ROOT ALC X 1
     2 SEC2        9 GROUP        1 X    SEC  0     **** SEC X 2
     3 GLC5        1 GROUP        1 X    GLC  0     **** GLC X 6
     4 ALP1       14 GROUP        1 Y    ALP  0     ROOT ALP Y 8
     5 SEP2       11 GROUP        1 Y    SEP  0     **** SEP Y 9
     6 GLP5        3 GROUP        1 Y    GLP  0     **** GLP Y 13
     7 ALL1       13 GROUP        1 Z    ALL  0     ROOT ALL Z 15
     8 SEL2       10 GROUP        1 Z    SEL  0     **** SEL Z 16
     9 GLL5        2 GROUP        1 Z    GLL  0     **** GLL Z 20
@<TRIPOS>SET

