#    Name: 3uh4_XAV_1_ligand
#    Modification time : Mon Mar 24 22:21:03 2014

@<TRIPOS>MOLECULE
3uh4_XAV_1_ligand
   32    34     1     0     0
SMALL
NO_CHARGES


@<TRIPOS>ATOM
      1 N1        -23.3660   -8.5370    8.2000 N.ar      1 XAV1        0.0000 
      2 C2        -24.5070   -7.9250    7.8160 C.ar      1 XAV1        0.0000 
      3 N3        -25.6060   -8.5920    7.4440 N.ar      1 XAV1        0.0000 
      4 C4        -25.6390   -9.9290    7.5170 C.ar      1 XAV1        0.0000 
      5 C5        -24.5330  -10.6420    8.0540 C.ar      1 XAV1        0.0000 
      6 C6        -23.3850   -9.8810    8.3130 C.ar      1 XAV1        0.0000 
      7 O6        -22.2730  -10.5080    8.7590 O.3       1 XAV1        0.0000 
      8 FAB       -23.9010   -1.4400    7.5820 F         1 XAV1        0.0000 
      9 FAC       -23.7810   -2.0830    5.5550 F         1 XAV1        0.0000 
     10 FAD       -25.7290   -1.7220    6.3650 F         1 XAV1        0.0000 
     11 CAE       -25.4900   -5.8760    6.7380 C.ar      1 XAV1        0.0000 
     12 CAF       -23.5470   -5.5850    8.2160 C.ar      1 XAV1        0.0000 
     13 CAG       -25.4840   -4.5050    6.4530 C.ar      1 XAV1        0.0000 
     14 CAH       -23.5510   -4.2000    7.9410 C.ar      1 XAV1        0.0000 
     15 CAI       -26.8790  -12.0970    6.9370 C.3       1 XAV1        0.0000 
     16 CAJ       -26.9700  -10.5630    7.0920 C.3       1 XAV1        0.0000 
     17 CAK       -24.4850  -12.1530    8.2730 C.3       1 XAV1        0.0000 
     18 SAN       -26.1490  -12.8390    8.4240 S.3       1 XAV1        0.0000 
     19 CAP       -24.4990   -6.4520    7.5820 C.ar      1 XAV1        0.0000 
     20 CAQ       -24.5330   -3.6520    7.0720 C.ar      1 XAV1        0.0000 
     21 CAU       -24.5080   -2.1850    6.6660 C.3       1 XAV1        0.0000 
     22 H         -26.2158   -6.4833    6.3371 H         1 XAV1        0.0000 
     23 H         -22.8689   -5.9808    8.8663 H         1 XAV1        0.0000 
     24 H         -26.1630   -4.1089    5.7984 H         1 XAV1        0.0000 
     25 H         -22.8519   -3.5903    8.3634 H         1 XAV1        0.0000 
     26 H         -26.2108  -12.4027    6.1730 H         1 XAV1        0.0000 
     27 H         -27.8260  -12.5702    6.8823 H         1 XAV1        0.0000 
     28 H         -27.2855  -10.1306    6.1371 H         1 XAV1        0.0000 
     29 H         -27.7345  -10.3293    7.8398 H         1 XAV1        0.0000 
     30 H         -24.0329  -12.4353    9.1962 H         1 XAV1        0.0000 
     31 H         -24.0865  -12.6910    7.4435 H         1 XAV1        0.0000 
     32 H         -22.3787  -11.4593    8.4696 H         1 XAV1        0.0000 
@<TRIPOS>BOND
     1    2    1 ar   
     2    6    1 ar   
     3    3    2 ar   
     4   19    2 1    
     5    4    3 ar   
     6    5    4 ar   
     7   16    4 1    
     8    6    5 ar   
     9   17    5 1    
    10    7    6 1    
    11   32    7 1    
    12   21    8 1    
    13   21    9 1    
    14   21   10 1    
    15   13   11 ar   
    16   19   11 ar   
    17   22   11 1    
    18   14   12 ar   
    19   19   12 ar   
    20   23   12 1    
    21   20   13 ar   
    22   24   13 1    
    23   20   14 ar   
    24   25   14 1    
    25   16   15 1    
    26   18   15 1    
    27   26   15 1    
    28   27   15 1    
    29   28   16 1    
    30   29   16 1    
    31   18   17 1    
    32   30   17 1    
    33   31   17 1    
    34   21   20 1    
@<TRIPOS>SUBSTRUCTURE
     1 XAV1        1 GROUP   
@<TRIPOS>SET

