#    Name: 2g76_NAD_1_INTS_M
#    Modification time : Tue Mar 25 13:38:18 2014

@<TRIPOS>MOLECULE
2g76_NAD_1_INTS_M
   89     0     9     0     0
SMALL
NO_CHARGES


@<TRIPOS>ATOM
      1 N          13.5050   32.9140    2.6895 N.am      2 SEC2        0.0000 
      2 N          12.8200   33.6390    1.6330 N.am      8 SEL2        0.0000 
      3 N          14.1900   32.1890    3.7460 N.am      5 SEP2        0.0000 
      4 N          12.5415   35.1545    1.8055 N.am      2 SEC2        0.0000 
      5 N          12.2630   36.6700    1.9780 N.am      5 SEP2        0.0000 
      6 CA         11.4670   29.3750   -1.8980 C.3       3 GLC5        0.0000 
      7 CA         12.6040   31.1160   -1.2050 C.3       9 GLL5        0.0000 
      8 CA         10.3300   27.6340   -2.5910 C.3       6 GLP5        0.0000 
      9 CA         14.2195   28.4375   -1.4280 C.3       3 GLC5        0.0000 
     10 CA         13.8200   30.4800   -1.8030 C.3       9 GLL5        0.0000 
     11 CA         14.6190   26.3950   -1.0530 C.3       6 GLP5        0.0000 
     12 O          17.1210   30.6345   -2.7385 O.2       1 ALC1        0.0000 
     13 O          16.0180   31.5470   -1.7510 O.2       7 ALL1        0.0000 
     14 O          18.2240   29.7220   -3.7260 O.2       4 ALP1        0.0000 
     15 O          16.6110   30.3570   -1.8030 O.2       1 ALC1        0.0000 
     16 O          17.2040   29.1670   -1.8550 O.2       4 ALP1        0.0000 
     17 O          17.1790   30.4480   -4.1235 O.2       1 ALC1        0.0000 
     18 O          16.1340   31.1740   -4.5210 O.2       7 ALL1        0.0000 
     19 CA         14.5290   27.9810   -2.3865 C.3       3 GLC5        0.0000 
     20 CA         14.4390   29.5670   -3.7200 C.3       9 GLL5        0.0000 
     21 CA         15.9950   28.7335   -5.0705 C.3       3 GLC5        0.0000 
     22 CA         17.5510   27.9000   -6.4210 C.3       6 GLP5        0.0000 
     23 CA         13.1700   27.7385   -3.7005 C.3       3 GLC5        0.0000 
     24 CA         11.9010   25.9100   -3.6810 C.3       6 GLP5        0.0000 
     25 CA         12.3780   29.9425   -3.8270 C.3       3 GLC5        0.0000 
     26 CA         10.3170   30.3180   -3.9340 C.3       6 GLP5        0.0000 
     27 O          13.1285   26.6650   -9.4080 O.2       1 ALC1        0.0000 
     28 O          13.9630   25.8080   -8.3260 O.2       7 ALL1        0.0000 
     29 O          12.2940   27.5220  -10.4900 O.2       4 ALP1        0.0000 
     30 CA         14.9690   25.9160   -3.0350 C.3       3 GLC5        0.0000 
     31 CA         15.3190   25.4370   -5.0170 C.3       9 GLL5        0.0000 
     32 CA         17.0625   26.1305   -4.4895 C.3       3 GLC5        0.0000 
     33 CA         18.8060   26.8240   -3.9620 C.3       6 GLP5        0.0000 
     34 CA         16.4350   26.6685   -5.7190 C.3       3 GLC5        0.0000 
     35 CA         13.6100   25.6735   -4.3490 C.3       3 GLC5        0.0000 
     36 CA         14.5450   27.0120   -3.1505 C.3       3 GLC5        0.0000 
     37 CA         14.4710   27.6290   -5.2480 C.3       9 GLL5        0.0000 
     38 N          11.9235   30.7115    4.0465 N.am      2 SEC2        0.0000 
     39 N          11.2770   30.9650    2.7660 N.am      8 SEL2        0.0000 
     40 N          12.5700   30.4580    5.3270 N.am      5 SEP2        0.0000 
     41 CA          8.6720   29.8890    3.2660 C.3       3 GLC5        0.0000 
     42 CA          9.0440   29.7390    1.2780 C.3       9 GLL5        0.0000 
     43 CA          8.3000   30.0390    5.2540 C.3       6 GLP5        0.0000 
     44 CA          7.0395   27.4520    0.4030 C.3       3 GLC5        0.0000 
     45 CA          7.6900   29.2470    0.7620 C.3       9 GLL5        0.0000 
     46 CA          6.3890   25.6570    0.0440 C.3       6 GLP5        0.0000 
     47 CA          7.4255   30.1500   -2.1510 C.3       3 GLC5        0.0000 
     48 CA          6.9370   30.2090   -0.1400 C.3       9 GLL5        0.0000 
     49 CA          7.9140   30.0910   -4.1620 C.3       6 GLP5        0.0000 
     50 O           7.1025   28.7290   -1.7485 O.2       1 ALC1        0.0000 
     51 O           6.2340   29.4570   -1.0880 O.2       7 ALL1        0.0000 
     52 O           7.9710   28.0010   -2.4090 O.2       4 ALP1        0.0000 
     53 CA          5.2075   32.7470    1.3745 C.3       3 GLC5        0.0000 
     54 CA          5.9550   30.9080    0.7910 C.3       9 GLL5        0.0000 
     55 CA          4.4600   34.5860    1.9580 C.3       6 GLP5        0.0000 
     56 O           4.3150   32.3825    0.9975 O.2       1 ALC1        0.0000 
     57 O           4.8260   31.4440    0.1160 O.2       7 ALL1        0.0000 
     58 O           3.8040   33.3210    1.8790 O.2       4 ALP1        0.0000 
     59 CA          5.3650   27.8220    1.2990 C.3       3 GLC5        0.0000 
     60 CA          5.5810   29.7180    1.6600 C.3       9 GLL5        0.0000 
     61 CA          5.1490   25.9260    0.9380 C.3       6 GLP5        0.0000 
     62 CA          4.5375   27.5360    2.1230 C.3       3 GLC5        0.0000 
     63 CA          3.9260   29.1460    3.3080 C.3       9 GLL5        0.0000 
     64 O           3.4020   26.4290    4.1040 O.2       1 ALC1        0.0000 
     65 O           2.1290   27.0700    4.5410 O.2       7 ALL1        0.0000 
     66 O           4.6750   25.7880    3.6670 O.2       4 ALP1        0.0000 
     67 O           1.2315   26.1840    5.1620 O.2       1 ALC1        0.0000 
     68 O           0.3340   25.2980    5.7830 O.2       4 ALP1        0.0000 
     69 CA          2.2200   31.2180    6.7910 C.3       3 GLC5        0.0000 
     70 CA          3.6530   30.3520    5.3380 C.3       9 GLL5        0.0000 
     71 CA          0.7870   32.0840    8.2440 C.3       6 GLP5        0.0000 
     72 CA         14.4295   31.0245    0.2670 C.3       3 GLC5        0.0000 
     73 CA         15.6470   31.2510    2.0380 C.3       6 GLP5        0.0000 
     74 CA         11.7645   30.5580   -2.7190 C.3       3 GLC5        0.0000 
     75 CA         12.4093   26.5998   -7.2270 C.3       3 GLC5        0.0000 
     76 CA         14.0900   27.3670   -6.5420 C.3       9 GLL5        0.0000 
     77 CA         10.6100   26.4610   -7.6420 C.3       6 GLP5        0.0000 
     78 CA         15.9454   27.5419   -6.2255 C.3       3 GLC5        0.0000 
     79 CA         13.1204   26.5469   -4.8555 C.3       3 GLC5        0.0000 
     80 CA          9.3885   27.6930    0.9115 C.3       3 GLC5        0.0000 
     81 CA         10.4100   25.8930    0.8030 C.3       6 GLP5        0.0000 
     82 CA          4.3182   32.2768    6.4152 C.3       3 GLC5        0.0000 
     83 CA          4.4520   33.7770    7.6700 C.3       6 GLP5        0.0000 
     84 CA          5.0630   32.9315    3.8690 C.3       3 GLC5        0.0000 
     85 CA          4.7160   31.2010    4.9830 C.3       9 GLL5        0.0000 
     86 CA          5.0880   34.7600    3.3590 C.3       6 GLP5        0.0000 
     87 CA          5.0771   29.5954    6.2874 C.3       3 GLC5        0.0000 
     88 CA          6.0650   28.6760    7.6240 C.3       6 GLP5        0.0000 
     89 CA          6.6690   30.5710    4.8165 C.3       3 GLC5        0.0000 
@<TRIPOS>BOND
@<TRIPOS>SUBSTRUCTURE
     1 ALC1       12 GROUP        1 X    ALC  0     ROOT ALC X 1
     2 SEC2        1 GROUP        1 X    SEC  0     **** SEC X 2
     3 GLC5        6 GROUP        1 X    GLC  0     **** GLC X 6
     4 ALP1       14 GROUP        1 Y    ALP  0     ROOT ALP Y 8
     5 SEP2        3 GROUP        1 Y    SEP  0     **** SEP Y 9
     6 GLP5        8 GROUP        1 Y    GLP  0     **** GLP Y 13
     7 ALL1       13 GROUP        1 Z    ALL  0     ROOT ALL Z 15
     8 SEL2        2 GROUP        1 Z    SEL  0     **** SEL Z 16
     9 GLL5        7 GROUP        1 Z    GLL  0     **** GLL Z 20
@<TRIPOS>SET

