#    Name: 2g76_NAD_1_ligand
#    Modification time : Tue Mar 25 13:38:18 2014

@<TRIPOS>MOLECULE
2g76_NAD_1_ligand
   70    74     1     0     0
SMALL
NO_CHARGES


@<TRIPOS>ATOM
      1 PA         12.1460   33.0660    0.4670 P.3       1 NAD501      0.0000 
      2 O1A        11.8530   33.9860   -0.6720 O.co2     1 NAD501      0.0000 
      3 O2A        12.8200   33.6390    1.6330 O.co2     1 NAD501      0.0000 
      4 O5B        12.9950   31.8090   -0.0480 O.3       1 NAD501      0.0000 
      5 C5B        12.6040   31.1160   -1.2050 C.3       1 NAD501      0.0000 
      6 C4B        13.8200   30.4800   -1.8030 C.3       1 NAD501      0.0000 
      7 O4B        13.3790   29.5570   -2.7710 O.3       1 NAD501      0.0000 
      8 C3B        14.7640   31.4980   -2.4520 C.3       1 NAD501      0.0000 
      9 O3B        16.0180   31.5470   -1.7510 O.3       1 NAD501      0.0000 
     10 C2B        14.8580   31.0220   -3.8910 C.3       1 NAD501      0.0000 
     11 O2B        16.1340   31.1740   -4.5210 O.3       1 NAD501      0.0000 
     12 C1B        14.4390   29.5670   -3.7200 C.3       1 NAD501      0.0000 
     13 N9A        14.1480   28.9280   -4.9840 N.pl3     1 NAD501      0.0000 
     14 C8A        13.5590   29.4610   -6.0910 C.2       1 NAD501      0.0000 
     15 N7A        13.5230   28.4890   -7.0210 N.2       1 NAD501      0.0000 
     16 C5A        14.0900   27.3670   -6.5420 C.ar      1 NAD501      0.0000 
     17 C6A        14.3270   26.1100   -7.0820 C.ar      1 NAD501      0.0000 
     18 N6A        13.9630   25.8080   -8.3260 N.pl3     1 NAD501      0.0000 
     19 N1A        14.9130   25.1470   -6.2980 N.ar      1 NAD501      0.0000 
     20 C2A        15.3190   25.4370   -5.0170 C.ar      1 NAD501      0.0000 
     21 N3A        15.0890   26.6810   -4.5050 N.ar      1 NAD501      0.0000 
     22 C4A        14.4710   27.6290   -5.2480 C.ar      1 NAD501      0.0000 
     23 O3         10.7040   32.4560    0.8330 O.3       1 NAD501      0.0000 
     24 PN         10.2310   31.8820    2.2670 P.3       1 NAD501      0.0000 
     25 O1N         9.7460   32.9940    3.0930 O.co2     1 NAD501      0.0000 
     26 O2N        11.2770   30.9650    2.7660 O.co2     1 NAD501      0.0000 
     27 O5D         8.9470   31.0560    1.7870 O.3       1 NAD501      0.0000 
     28 C5D         9.0440   29.7390    1.2780 C.3       1 NAD501      0.0000 
     29 C4D         7.6900   29.2470    0.7620 C.3       1 NAD501      0.0000 
     30 O4D         6.8200   29.0110    1.8670 O.3       1 NAD501      0.0000 
     31 C3D         6.9370   30.2090   -0.1400 C.3       1 NAD501      0.0000 
     32 O3D         6.2340   29.4570   -1.0880 O.3       1 NAD501      0.0000 
     33 C2D         5.9550   30.9080    0.7910 C.3       1 NAD501      0.0000 
     34 O2D         4.8260   31.4440    0.1160 O.3       1 NAD501      0.0000 
     35 C1D         5.5810   29.7180    1.6600 C.3       1 NAD501      0.0000 
     36 N1N         4.9230   30.0120    2.9460 N.pl3     1 NAD501      0.0000 
     37 C2N         3.9260   29.1460    3.3080 C.ar      1 NAD501      0.0000 
     38 C3N         3.2720   29.3050    4.4990 C.ar      1 NAD501      0.0000 
     39 C7N         2.1690   28.3650    4.8640 C.2       1 NAD501      0.0000 
     40 O7N         1.2010   28.9100    5.6560 O.2       1 NAD501      0.0000 
     41 N7N         2.1290   27.0700    4.5410 N.am      1 NAD501      0.0000 
     42 C4N         3.6530   30.3520    5.3380 C.ar      1 NAD501      0.0000 
     43 C5N         4.7160   31.2010    4.9830 C.ar      1 NAD501      0.0000 
     44 C6N         5.3600   31.0050    3.7750 C.ar      1 NAD501      0.0000 
     45 H          12.1614   31.7827   -1.9540 H         1 NAD501      0.0000 
     46 H          11.8761   30.3265   -0.9854 H         1 NAD501      0.0000 
     47 H          14.3663   29.9713   -1.0142 H         1 NAD501      0.0000 
     48 H          14.2453   32.4434   -2.4477 H         1 NAD501      0.0000 
     49 H          14.0489   31.5033   -4.4327 H         1 NAD501      0.0000 
     50 H          15.3290   29.0700   -3.2559 H         1 NAD501      0.0000 
     51 H          13.2367   30.3547   -6.1799 H         1 NAD501      0.0000 
     52 H          14.1723   24.8795   -8.6326 H         1 NAD501      0.0000 
     53 H          13.5130   26.5369   -8.8420 H         1 NAD501      0.0000 
     54 H          15.7934   24.7168   -4.4508 H         1 NAD501      0.0000 
     55 H           9.3828   29.0237    2.0464 H         1 NAD501      0.0000 
     56 H           9.7592   29.6719    0.4408 H         1 NAD501      0.0000 
     57 H           7.8378   28.3181    0.2175 H         1 NAD501      0.0000 
     58 H           7.6036   30.9070   -0.5327 H         1 NAD501      0.0000 
     59 H           6.4958   31.5855    1.3878 H         1 NAD501      0.0000 
     60 H           4.9289   29.0711    1.0473 H         1 NAD501      0.0000 
     61 H           3.6657   28.3656    2.6755 H         1 NAD501      0.0000 
     62 H           1.3125   26.5697    4.8291 H         1 NAD501      0.0000 
     63 H           2.9191   26.7168    4.0401 H         1 NAD501      0.0000 
     64 H           3.1554   30.5084    6.2247 H         1 NAD501      0.0000 
     65 H           5.0009   31.9496    5.6162 H         1 NAD501      0.0000 
     66 H           6.1537   31.6012    3.5130 H         1 NAD501      0.0000 
     67 H          16.3832   30.6179   -1.8089 H         1 NAD501      0.0000 
     68 H          16.7422   30.5530   -4.0266 H         1 NAD501      0.0000 
     69 H           6.8751   29.3303   -1.8449 H         1 NAD501      0.0000 
     70 H           4.5071   32.1916    0.6986 H         1 NAD501      0.0000 
@<TRIPOS>BOND
     1    2    1 ar   
     2    3    1 ar   
     3    4    1 1    
     4   23    1 1    
     5    5    4 1    
     6    6    5 1    
     7   45    5 1    
     8   46    5 1    
     9    7    6 1    
    10    8    6 1    
    11   47    6 1    
    12   12    7 1    
    13    9    8 1    
    14   10    8 1    
    15   48    8 1    
    16   67    9 1    
    17   11   10 1    
    18   12   10 1    
    19   49   10 1    
    20   68   11 1    
    21   13   12 1    
    22   50   12 1    
    23   14   13 1    
    24   22   13 1    
    25   15   14 2    
    26   51   14 1    
    27   16   15 1    
    28   17   16 ar   
    29   22   16 ar   
    30   18   17 1    
    31   19   17 ar   
    32   52   18 1    
    33   53   18 1    
    34   20   19 ar   
    35   21   20 ar   
    36   54   20 1    
    37   22   21 ar   
    38   24   23 1    
    39   25   24 ar   
    40   26   24 ar   
    41   27   24 1    
    42   28   27 1    
    43   29   28 1    
    44   55   28 1    
    45   56   28 1    
    46   30   29 1    
    47   31   29 1    
    48   57   29 1    
    49   35   30 1    
    50   32   31 1    
    51   33   31 1    
    52   58   31 1    
    53   69   32 1    
    54   34   33 1    
    55   35   33 1    
    56   59   33 1    
    57   70   34 1    
    58   36   35 1    
    59   60   35 1    
    60   37   36 ar   
    61   44   36 ar   
    62   38   37 ar   
    63   61   37 1    
    64   39   38 1    
    65   42   38 ar   
    66   40   39 2    
    67   41   39 am   
    68   62   41 1    
    69   63   41 1    
    70   43   42 ar   
    71   64   42 1    
    72   44   43 ar   
    73   65   43 1    
    74   66   44 1    
@<TRIPOS>SUBSTRUCTURE
     1 NAD501      1 GROUP   
@<TRIPOS>SET

