#    Name: 4lag_1VN_1_INTS_M
#    Modification time : Tue Mar 25 09:59:03 2014

@<TRIPOS>MOLECULE
4lag_1VN_1_INTS_M
   78     0     9     0     0
SMALL
NO_CHARGES


@<TRIPOS>ATOM
      1 CA         -1.0000   33.5405   -5.0865 C.3       3 GLC5        0.0000 
      2 CA         -2.8350   33.5140   -5.0800 C.3       9 GLL5        0.0000 
      3 CA          0.8350   33.5670   -5.0930 C.3       6 GLP5        0.0000 
      4 CA         -2.9215   35.1905   -5.5575 C.3       3 GLC5        0.0000 
      5 CA         -3.0080   36.8670   -6.0350 C.3       6 GLP5        0.0000 
      6 CA         -3.0500   33.4900   -3.4415 C.3       3 GLC5        0.0000 
      7 CA         -3.2650   33.4660   -1.8030 C.3       6 GLP5        0.0000 
      8 CA         -1.5280   31.8695   -5.6875 C.3       3 GLC5        0.0000 
      9 CA         -0.2210   30.2250   -6.2950 C.3       6 GLP5        0.0000 
     10 CA         -4.1745   27.6760   -1.8170 C.3       3 GLC5        0.0000 
     11 CA         -3.9980   28.5940   -3.6910 C.3       9 GLL5        0.0000 
     12 CA         -4.3510   26.7580    0.0570 C.3       6 GLP5        0.0000 
     13 CA         -3.7465   26.5790   -3.8165 C.3       3 GLC5        0.0000 
     14 CA         -3.4950   24.5640   -3.9420 C.3       6 GLP5        0.0000 
     15 O          -2.5390   27.2650   -2.5030 O.2       1 ALC1        0.0000 
     16 O          -2.8260   28.4750   -3.0450 O.2       7 ALL1        0.0000 
     17 O          -2.2520   26.0550   -1.9610 O.2       4 ALP1        0.0000 
     18 O          -1.6530   29.2620   -3.0485 O.2       1 ALC1        0.0000 
     19 O          -0.4800   30.0490   -3.0520 O.2       4 ALP1        0.0000 
     20 CA         -7.8575   31.6370   -6.7010 C.3       3 GLC5        0.0000 
     21 CA         -6.0360   31.0680   -5.7720 C.3       9 GLL5        0.0000 
     22 CA         -9.6790   32.2060   -7.6300 C.3       6 GLP5        0.0000 
     23 N          -7.5710   28.6235   -5.8315 N.am      2 SEC2        0.0000 
     24 N          -6.4370   28.8040   -5.0810 N.am      8 SEL2        0.0000 
     25 N          -8.7050   28.4430   -6.5820 N.am      5 SEP2        0.0000 
     26 CA         -4.7820   26.1225   -4.1760 C.3       3 GLC5        0.0000 
     27 CA         -6.0690   27.6810   -4.4100 C.3       9 GLL5        0.0000 
     28 CA         -6.2395   26.5490   -6.0430 C.3       3 GLC5        0.0000 
     29 CA         -6.4100   25.4170   -7.6760 C.3       6 GLP5        0.0000 
     30 CA         -6.9735   28.3065   -3.2120 C.3       3 GLC5        0.0000 
     31 CA         -7.8780   28.9320   -2.0140 C.3       6 GLP5        0.0000 
     32 O          -8.1490   26.6175   -5.0105 O.2       1 ALC1        0.0000 
     33 O          -6.9300   26.6290   -4.4200 O.2       7 ALL1        0.0000 
     34 O          -9.3680   26.6060   -5.6010 O.2       4 ALP1        0.0000 
     35 O          -7.8175   27.5360   -5.5010 O.2       1 ALC1        0.0000 
     36 O          -8.7050   28.4430   -6.5820 O.2       4 ALP1        0.0000 
     37 O          -7.3990   25.5875   -3.4100 O.2       1 ALC1        0.0000 
     38 O          -7.8680   24.5460   -2.4000 O.2       4 ALP1        0.0000 
     39 CA         -3.3205   31.0575   -9.5645 C.3       3 GLC5        0.0000 
     40 CA         -2.2630   32.3540   -9.0390 C.3       9 GLL5        0.0000 
     41 CA         -4.3780   29.7610  -10.0900 C.3       6 GLP5        0.0000 
     42 CA         -1.7050   33.4985  -11.6655 C.3       3 GLC5        0.0000 
     43 CA         -1.9190   33.5220   -9.7280 C.3       9 GLL5        0.0000 
     44 CA         -1.4910   33.4750  -13.6030 C.3       6 GLP5        0.0000 
     45 CA         -3.4875   32.2425  -10.2245 C.3       3 GLC5        0.0000 
     46 CA         -5.0560   30.9630  -10.7210 C.3       6 GLP5        0.0000 
     47 CA         -3.0370   35.8040   -7.6550 C.3       3 GLC5        0.0000 
     48 CA         -3.0660   34.7410   -9.2750 C.3       9 GLL5        0.0000 
     49 CA         -4.8595   36.0915   -6.3860 C.3       3 GLC5        0.0000 
     50 CA         -6.7110   35.3160   -6.7370 C.3       9 GLL5        0.0000 
     51 CA         -7.4170   37.1120   -3.8570 C.3       3 GLC5        0.0000 
     52 CA         -8.5890   36.1030   -5.4080 C.3       9 GLL5        0.0000 
     53 CA         -6.2450   38.1210   -2.3060 C.3       6 GLP5        0.0000 
     54 CA        -10.2890   35.7380   -6.6095 C.3       3 GLC5        0.0000 
     55 CA         -9.6450   37.1460   -5.1280 C.3       9 GLL5        0.0000 
     56 CA        -10.9330   34.3300   -8.0910 C.3       6 GLP5        0.0000 
     57 CA        -10.5105   33.8145   -4.7315 C.3       3 GLC5        0.0000 
     58 CA         -9.4610   34.6960   -3.3980 C.3       9 GLL5        0.0000 
     59 CA        -11.5600   32.9330   -6.0650 C.3       6 GLP5        0.0000 
     60 CA         -8.6120   33.0080   -2.3225 C.3       3 GLC5        0.0000 
     61 CA         -7.7630   31.3200   -1.2470 C.3       6 GLP5        0.0000 
     62 CA         -7.7445   35.3610   -2.1760 C.3       3 GLC5        0.0000 
     63 CA         -6.0280   36.0260   -0.9540 C.3       6 GLP5        0.0000 
     64 CA         -7.6370   32.6195   -3.0265 C.3       3 GLC5        0.0000 
     65 CA         -7.5110   33.9190   -4.8060 C.3       9 GLL5        0.0000 
     66 CA         -8.1445   33.1515   -6.7505 C.3       3 GLC5        0.0000 
     67 CA         -6.6100   34.0970   -5.8710 C.3       9 GLL5        0.0000 
     68 CA         -6.0005   31.4825   -7.8868 C.3       3 GLC5        0.0000 
     69 CA         -6.3710   31.3230   -9.9760 C.3       6 GLP5        0.0000 
     70 CA         -6.3937   29.2487   -3.2912 C.3       3 GLC5        0.0000 
     71 CA         -5.6450   29.9060   -5.0950 C.3       9 GLL5        0.0000 
     72 CA         -0.4485   32.1210   -9.8507 C.3       3 GLC5        0.0000 
     73 CA          1.1940   31.3040  -10.3180 C.3       6 GLP5        0.0000 
     74 CA         -1.0322   35.3167   -9.5613 C.3       3 GLC5        0.0000 
     75 CA          0.4280   36.5020   -9.6210 C.3       6 GLP5        0.0000 
     76 CA         -8.8133   34.5755   -6.8057 C.3       3 GLC5        0.0000 
     77 CA        -10.4240   33.3530   -7.0070 C.3       6 GLP5        0.0000 
     78 CA         -9.2250   34.0301   -5.9492 C.3       3 GLC5        0.0000 
@<TRIPOS>BOND
@<TRIPOS>SUBSTRUCTURE
     1 ALC1       15 GROUP        1 X    ALC  0     ROOT ALC X 1
     2 SEC2       23 GROUP        1 X    SEC  0     **** SEC X 2
     3 GLC5        1 GROUP        1 X    GLC  0     **** GLC X 6
     4 ALP1       17 GROUP        1 Y    ALP  0     ROOT ALP Y 8
     5 SEP2       25 GROUP        1 Y    SEP  0     **** SEP Y 9
     6 GLP5        3 GROUP        1 Y    GLP  0     **** GLP Y 13
     7 ALL1       16 GROUP        1 Z    ALL  0     ROOT ALL Z 15
     8 SEL2       24 GROUP        1 Z    SEL  0     **** SEL Z 16
     9 GLL5        2 GROUP        1 Z    GLL  0     **** GLL Z 20
@<TRIPOS>SET

