#    Name: 4lag_1VN_1_ligand
#    Modification time : Tue Mar 25 09:59:03 2014

@<TRIPOS>MOLECULE
4lag_1VN_1_ligand
   45    49     1     0     0
SMALL
NO_CHARGES


@<TRIPOS>ATOM
      1 CL1        -2.8350   33.5140   -5.0800 Cl        1 1VN202      0.0000 
      2 C8         -3.9340   32.1050   -5.0830 C.ar      1 1VN202      0.0000 
      3 C7         -3.5120   30.9680   -4.3970 C.ar      1 1VN202      0.0000 
      4 C6         -4.3500   29.8560   -4.3930 C.ar      1 1VN202      0.0000 
      5 C1         -3.9980   28.5940   -3.6910 C.ar      1 1VN202      0.0000 
      6 N11        -2.8260   28.4750   -3.0450 N.pl3     1 1VN202      0.0000 
      7 C9         -5.2240   32.2160   -5.8230 C.ar      1 1VN202      0.0000 
      8 C10        -6.0360   31.0680   -5.7720 C.ar      1 1VN202      0.0000 
      9 C5         -5.6450   29.9060   -5.0950 C.ar      1 1VN202      0.0000 
     10 N4         -6.4370   28.8040   -5.0810 N.ar      1 1VN202      0.0000 
     11 C3         -6.0690   27.6810   -4.4100 C.ar      1 1VN202      0.0000 
     12 N12        -6.9300   26.6290   -4.4200 N.pl3     1 1VN202      0.0000 
     13 N2         -4.8930   27.5810   -3.7380 N.ar      1 1VN202      0.0000 
     14 N14        -5.6050   33.3760   -6.4100 N.pl3     1 1VN202      0.0000 
     15 C18        -5.0860   34.0560   -7.4370 C.2       1 1VN202      0.0000 
     16 C25        -3.9200   33.6360   -8.2520 C.2       1 1VN202      0.0000 
     17 N29        -3.3570   32.4190   -8.2090 N.2       1 1VN202      0.0000 
     18 C28        -2.2630   32.3540   -9.0390 C.2       1 1VN202      0.0000 
     19 C27        -1.9190   33.5220   -9.7280 C.2       1 1VN202      0.0000 
     20 S26        -3.0660   34.7410   -9.2750 S.3       1 1VN202      0.0000 
     21 N17        -5.7250   35.2290   -7.6770 N.2       1 1VN202      0.0000 
     22 C16        -6.7110   35.3160   -6.7370 C.ar      1 1VN202      0.0000 
     23 C22        -7.6940   36.2800   -6.4720 C.ar      1 1VN202      0.0000 
     24 C21        -8.5890   36.1030   -5.4080 C.ar      1 1VN202      0.0000 
     25 C24        -9.6450   37.1460   -5.1280 C.3       1 1VN202      0.0000 
     26 C20        -8.4930   34.8880   -4.5460 C.ar      1 1VN202      0.0000 
     27 C23        -9.4610   34.6960   -3.3980 C.3       1 1VN202      0.0000 
     28 C19        -7.5110   33.9190   -4.8060 C.ar      1 1VN202      0.0000 
     29 C15        -6.6100   34.0970   -5.8710 C.ar      1 1VN202      0.0000 
     30 H          -2.6201   30.9513   -3.9146 H         1 1VN202      0.0000 
     31 H          -2.2190   29.2688   -3.0849 H         1 1VN202      0.0000 
     32 H          -2.6653   27.6034   -2.5820 H         1 1VN202      0.0000 
     33 H          -6.9570   31.0857   -6.2541 H         1 1VN202      0.0000 
     34 H          -7.5477   26.5734   -5.2045 H         1 1VN202      0.0000 
     35 H          -6.8697   26.0036   -3.6420 H         1 1VN202      0.0000 
     36 H          -1.7253   31.5085   -9.1539 H         1 1VN202      0.0000 
     37 H          -1.2967   33.7772  -10.3044 H         1 1VN202      0.0000 
     38 H          -7.7583   37.1190   -7.0600 H         1 1VN202      0.0000 
     39 H          -7.4498   33.0814   -4.2202 H         1 1VN202      0.0000 
     40 H          -9.2413   38.0383   -4.9261 H         1 1VN202      0.0000 
     41 H         -10.2589   37.2716   -5.9074 H         1 1VN202      0.0000 
     42 H         -10.2138   36.8975   -4.3440 H         1 1VN202      0.0000 
     43 H          -9.2895   33.8422   -2.9065 H         1 1VN202      0.0000 
     44 H          -9.3962   35.4371   -2.7297 H         1 1VN202      0.0000 
     45 H         -10.4097   34.6674   -3.7130 H         1 1VN202      0.0000 
@<TRIPOS>BOND
     1    2    1 1    
     2    3    2 ar   
     3    7    2 ar   
     4    4    3 ar   
     5   30    3 1    
     6    5    4 ar   
     7    9    4 ar   
     8    6    5 1    
     9   13    5 ar   
    10   31    6 1    
    11   32    6 1    
    12    8    7 ar   
    13   14    7 1    
    14    9    8 ar   
    15   33    8 1    
    16   10    9 ar   
    17   11   10 ar   
    18   12   11 1    
    19   13   11 ar   
    20   34   12 1    
    21   35   12 1    
    22   15   14 1    
    23   29   14 1    
    24   16   15 1    
    25   21   15 2    
    26   17   16 2    
    27   20   16 1    
    28   18   17 1    
    29   19   18 2    
    30   36   18 1    
    31   20   19 1    
    32   37   19 1    
    33   22   21 1    
    34   23   22 ar   
    35   29   22 ar   
    36   24   23 ar   
    37   38   23 1    
    38   25   24 1    
    39   26   24 ar   
    40   40   25 1    
    41   41   25 1    
    42   42   25 1    
    43   27   26 1    
    44   28   26 ar   
    45   43   27 1    
    46   44   27 1    
    47   45   27 1    
    48   29   28 ar   
    49   39   28 1    
@<TRIPOS>SUBSTRUCTURE
     1 1VN202      1 GROUP   
@<TRIPOS>SET

