#    Name: 4nbl_2J6_1_INTS_M
#    Modification time : Tue Mar 25 12:56:07 2014

@<TRIPOS>MOLECULE
4nbl_2J6_1_INTS_M
   53     0     6     0     0
SMALL
NO_CHARGES


@<TRIPOS>ATOM
      1 CA         30.5885   19.2015   -5.1755 C.3       2 GLC5        0.0000 
      2 CA         31.0720   20.7940   -4.6610 C.3       6 GLL5        0.0000 
      3 CA         30.1050   17.6090   -5.6900 C.3       4 GLP5        0.0000 
      4 CA         27.8965   23.9875   -8.0215 C.3       2 GLC5        0.0000 
      5 CA         29.5180   25.1700   -8.4820 C.3       6 GLL5        0.0000 
      6 CA         26.2750   22.8050   -7.5610 C.3       4 GLP5        0.0000 
      7 CA         29.3900   23.1875   -9.4255 C.3       2 GLC5        0.0000 
      8 CA         29.2620   21.2050  -10.3690 C.3       4 GLP5        0.0000 
      9 CA         31.3210   25.0320   -9.4885 C.3       2 GLC5        0.0000 
     10 CA         33.1240   24.8940  -10.4950 C.3       4 GLP5        0.0000 
     11 CA         27.7725   22.3485   -6.7660 C.3       2 GLC5        0.0000 
     12 CA         29.2700   21.8920   -5.9710 C.3       6 GLL5        0.0000 
     13 CA         29.2660   21.5485   -8.1700 C.3       2 GLC5        0.0000 
     14 CA         30.6210   23.1455   -5.0575 C.3       2 GLC5        0.0000 
     15 CA         31.9720   24.3990   -4.1440 C.3       4 GLP5        0.0000 
     16 CA         31.5735   19.2360   -5.7425 C.3       2 GLC5        0.0000 
     17 CA         32.3680   20.3470   -4.5320 C.3       6 GLL5        0.0000 
     18 CA         30.7790   18.1250   -6.9530 C.3       4 GLP5        0.0000 
     19 CA         30.4270   21.4145   -8.6175 C.3       2 GLC5        0.0000 
     20 CA         31.5920   21.6240   -6.8660 C.3       6 GLL5        0.0000 
     21 N          32.0495   23.4250   -8.5450 N.am      1 SEC2        0.0000 
     22 N          31.1910   22.2550   -8.0060 N.am      5 SEL2        0.0000 
     23 N          32.9080   24.5950   -9.0840 N.am      3 SEP2        0.0000 
     24 CA         35.6430   21.9070   -5.3525 C.3       2 GLC5        0.0000 
     25 CA         34.5300   20.0910   -5.4050 C.3       6 GLL5        0.0000 
     26 CA         36.7560   23.7230   -5.3000 C.3       4 GLP5        0.0000 
     27 CA         32.2685   23.1747   -6.5248 C.3       2 GLC5        0.0000 
     28 CA         30.6880   21.4290   -5.8250 C.3       6 GLL5        0.0000 
     29 CA         33.3970   24.8230   -6.7040 C.3       4 GLP5        0.0000 
     30 CA         30.3790   19.8927   -6.4255 C.3       2 GLC5        0.0000 
     31 CA         30.4427   28.0365   -7.4768 C.3       2 GLC5        0.0000 
     32 CA         28.9290   26.6970   -6.7270 C.3       6 GLL5        0.0000 
     33 CA         31.7930   29.4930   -7.5630 C.3       4 GLP5        0.0000 
     34 CA         27.6372   23.8900   -6.8298 C.3       2 GLC5        0.0000 
     35 CA         28.8580   25.6130   -5.8470 C.3       6 GLL5        0.0000 
     36 CA         27.3666   26.1800   -7.6936 C.3       2 GLC5        0.0000 
     37 CA         29.2560   26.4630   -8.0540 C.3       6 GLL5        0.0000 
     38 CA         25.4280   26.4850   -7.4510 C.3       4 GLP5        0.0000 
     39 CA         30.9241   25.9010   -7.0096 C.3       2 GLC5        0.0000 
     40 CA         32.5430   25.9270   -6.0830 C.3       4 GLP5        0.0000 
     41 CA         35.0678   18.8182   -5.8387 C.3       2 GLC5        0.0000 
     42 CA         33.2750   20.5420   -5.5580 C.3       6 GLL5        0.0000 
     43 CA         36.2330   17.3200   -6.1960 C.3       4 GLP5        0.0000 
     44 CA         35.2908   20.4873   -4.2603 C.3       2 GLC5        0.0000 
     45 CA         36.6790   20.6580   -3.0390 C.3       4 GLP5        0.0000 
     46 CA         33.2430   22.8407   -6.4257 C.3       2 GLC5        0.0000 
     47 CA         33.0168   18.8858   -6.3603 C.3       2 GLC5        0.0000 
     48 CA         32.1310   17.4550   -7.2390 C.3       4 GLP5        0.0000 
     49 CA         31.5132   19.7622   -6.8773 C.3       2 GLC5        0.0000 
     50 CA         32.9030   21.1750   -6.7370 C.3       6 GLL5        0.0000 
     51 CA         27.0946   25.9372   -6.3534 C.3       2 GLC5        0.0000 
     52 CA         30.6521   25.6582   -5.6694 C.3       2 GLC5        0.0000 
     53 CA         28.5230   25.8040   -4.4130 C.3       6 GLL5        0.0000 
@<TRIPOS>BOND
@<TRIPOS>SUBSTRUCTURE
     1 SEC2       21 GROUP        1 X    SEC  0     ROOT SEC X 2
     2 GLC5        1 GROUP        1 X    GLC  0     **** GLC X 6
     3 SEP2       23 GROUP        1 Y    SEP  0     ROOT SEP Y 9
     4 GLP5        3 GROUP        1 Y    GLP  0     **** GLP Y 13
     5 SEL2       22 GROUP        1 Z    SEL  0     ROOT SEL Z 16
     6 GLL5        2 GROUP        1 Z    GLL  0     **** GLL Z 20
@<TRIPOS>SET

