#    Name: 4nbl_2J6_1_ligand
#    Modification time : Tue Mar 25 12:56:07 2014

@<TRIPOS>MOLECULE
4nbl_2J6_1_ligand
   35    37     1     0     0
SMALL
NO_CHARGES


@<TRIPOS>ATOM
      1 C9         30.6880   21.4290   -5.8250 C.ar      1 2J6401      0.0000 
      2 C2         28.9290   26.6970   -6.7270 C.ar      1 2J6401      0.0000 
      3 C10        31.0720   20.7940   -4.6610 C.ar      1 2J6401      0.0000 
      4 C4         29.1410   24.3370   -6.3500 C.ar      1 2J6401      0.0000 
      5 N5         29.4560   24.1620   -7.6320 N.ar      1 2J6401      0.0000 
      6 C6         29.5180   25.1700   -8.4820 C.ar      1 2J6401      0.0000 
      7 C1         29.2560   26.4630   -8.0540 C.ar      1 2J6401      0.0000 
      8 C3         28.8580   25.6130   -5.8470 C.ar      1 2J6401      0.0000 
      9 N7         29.0720   23.2580   -5.4850 N.pl3     1 2J6401      0.0000 
     10 C8         29.2700   21.8920   -5.9710 C.3       1 2J6401      0.0000 
     11 C11        32.3680   20.3470   -4.5320 C.ar      1 2J6401      0.0000 
     12 C12        33.2750   20.5420   -5.5580 C.ar      1 2J6401      0.0000 
     13 C13        32.9030   21.1750   -6.7370 C.ar      1 2J6401      0.0000 
     14 C14        31.5920   21.6240   -6.8660 C.ar      1 2J6401      0.0000 
     15 O15        31.1910   22.2550   -8.0060 O.3       1 2J6401      0.0000 
     16 F16        34.5300   20.0910   -5.4050 F         1 2J6401      0.0000 
     17 C17        28.5230   25.8040   -4.4130 C.ar      1 2J6401      0.0000 
     18 N18        28.1850   24.7560   -3.6660 N.ar      1 2J6401      0.0000 
     19 C19        27.8810   24.9040   -2.3820 C.ar      1 2J6401      0.0000 
     20 C20        27.9180   26.1660   -1.8130 C.ar      1 2J6401      0.0000 
     21 C21        28.2720   27.2420   -2.6190 C.ar      1 2J6401      0.0000 
     22 N22        28.5650   27.0330   -3.8980 N.ar      1 2J6401      0.0000 
     23 H          28.7424   27.6427   -6.3931 H         1 2J6401      0.0000 
     24 H          30.3961   20.6570   -3.8991 H         1 2J6401      0.0000 
     25 H          29.7623   25.0248   -9.4856 H         1 2J6401      0.0000 
     26 H          29.3042   27.2457   -8.7191 H         1 2J6401      0.0000 
     27 H          28.8818   23.3818   -4.4864 H         1 2J6401      0.0000 
     28 H          28.6101   21.1933   -5.4224 H         1 2J6401      0.0000 
     29 H          28.9815   21.8216   -7.0371 H         1 2J6401      0.0000 
     30 H          32.6661   19.8650   -3.6688 H         1 2J6401      0.0000 
     31 H          33.5739   21.3083   -7.4913 H         1 2J6401      0.0000 
     32 H          27.6147   24.0972   -1.7878 H         1 2J6401      0.0000 
     33 H          27.6924   26.3048   -0.8307 H         1 2J6401      0.0000 
     34 H          28.2989   28.1884   -2.1992 H         1 2J6401      0.0000 
     35 H          30.2522   22.5470   -7.8235 H         1 2J6401      0.0000 
@<TRIPOS>BOND
     1    3    1 ar   
     2   10    1 1    
     3   14    1 ar   
     4    7    2 ar   
     5    8    2 ar   
     6   23    2 1    
     7   11    3 ar   
     8   24    3 1    
     9    5    4 ar   
    10    8    4 ar   
    11    9    4 1    
    12    6    5 ar   
    13    7    6 ar   
    14   25    6 1    
    15   26    7 1    
    16   17    8 1    
    17   10    9 1    
    18   27    9 1    
    19   28   10 1    
    20   29   10 1    
    21   12   11 ar   
    22   30   11 1    
    23   13   12 ar   
    24   16   12 1    
    25   14   13 ar   
    26   31   13 1    
    27   15   14 1    
    28   35   15 1    
    29   18   17 ar   
    30   22   17 ar   
    31   19   18 ar   
    32   20   19 ar   
    33   32   19 1    
    34   21   20 ar   
    35   33   20 1    
    36   22   21 ar   
    37   34   21 1    
@<TRIPOS>SUBSTRUCTURE
     1 2J6401      1 GROUP   
@<TRIPOS>SET

