#    Name: 2J7D_2_CAVITY_N1_6.mol2
#    Modification time : Mon Mar 10 21:28:17 2014

@<TRIPOS>MOLECULE
2J7D_2_CAVITY_N1_6.mol2
  127     0     6     0     0
SMALL
NO_CHARGES


@<TRIPOS>ATOM
      1 NZ        -18.4052  -30.3652   -3.9808 N.2       3 LYS4        0.0000 
      2 NZ        -17.9917  -30.2496   -6.0582 N.2       3 LYS4        0.0000 
      3 CZ        -18.7053  -31.2266   -5.1716 C.ar      4 PHE5        0.0000 
      4 CA        -21.2012  -27.3859    2.1271 C.3       5 GLY6        0.0000 
      5 N         -21.9148  -28.3629    3.0137 N.2       2 ALA2        0.0000 
      6 O         -22.6284  -29.3400    3.9004 O.2       2 ALA2        0.0000 
      7 O         -23.3421  -30.3170    4.7870 O.2       2 ALA2        0.0000 
      8 CZ        -21.5014  -28.2473    0.9363 C.ar      4 PHE5        0.0000 
      9 DU        -22.2150  -29.2243    1.8230 H         6 CUB7        0.0000 
     10 DU        -22.9286  -30.2014    2.7096 H         6 CUB7        0.0000 
     11 N         -23.6422  -31.1784    3.5963 N.2       2 ALA2        0.0000 
     12 CZ        -21.0880  -28.1316   -1.1411 C.ar      4 PHE5        0.0000 
     13 DU        -21.8016  -29.1087   -0.2545 H         6 CUB7        0.0000 
     14 DU        -22.5152  -30.0857    0.6322 H         6 CUB7        0.0000 
     15 DU        -23.2288  -31.0627    1.5188 H         6 CUB7        0.0000 
     16 CZ        -23.9424  -32.0398    2.4055 C.ar      4 PHE5        0.0000 
     17 N         -24.6560  -33.0168    3.2922 N.2       2 ALA2        0.0000 
     18 CZ        -19.9609  -27.0389   -4.1052 C.ar      4 PHE5        0.0000 
     19 CZ        -20.6745  -28.0160   -3.2186 C.ar      4 PHE5        0.0000 
     20 CZ        -21.3882  -28.9930   -2.3319 C.ar      4 PHE5        0.0000 
     21 DU        -22.1018  -29.9700   -1.4452 H         6 CUB7        0.0000 
     22 DU        -22.8154  -30.9471   -0.5586 H         6 CUB7        0.0000 
     23 DU        -23.5290  -31.9241    0.3281 H         6 CUB7        0.0000 
     24 CZ        -24.2426  -32.9011    1.2147 C.ar      4 PHE5        0.0000 
     25 NZ        -20.2611  -27.9003   -5.2960 N.2       3 LYS4        0.0000 
     26 NZ        -20.9747  -28.8773   -4.4093 N.2       3 LYS4        0.0000 
     27 CZ        -21.6883  -29.8544   -3.5227 C.ar      4 PHE5        0.0000 
     28 DU        -22.4019  -30.8314   -2.6360 H         6 CUB7        0.0000 
     29 CA        -23.1156  -31.8084   -1.7493 C.3       5 GLY6        0.0000 
     30 CA        -23.8292  -32.7855   -0.8627 C.3       5 GLY6        0.0000 
     31 NZ        -20.5613  -28.7617   -6.4867 N.2       3 LYS4        0.0000 
     32 NZ        -21.2749  -29.7387   -5.6001 N.2       3 LYS4        0.0000 
     33 NZ        -21.9885  -30.7158   -4.7134 N.2       3 LYS4        0.0000 
     34 CZ        -22.7021  -31.6928   -3.8268 C.ar      4 PHE5        0.0000 
     35 CA        -23.4157  -32.6698   -2.9401 C.3       5 GLY6        0.0000 
     36 CA        -24.1293  -33.6469   -2.0535 C.3       5 GLY6        0.0000 
     37 CA        -22.2887  -31.5771   -5.9042 C.3       5 GLY6        0.0000 
     38 CZ        -23.0023  -32.5542   -5.0175 C.ar      4 PHE5        0.0000 
     39 N         -21.3437  -30.0839    4.1146 N.2       2 ALA2        0.0000 
     40 O         -22.0573  -31.0609    5.0013 O.2       2 ALA2        0.0000 
     41 CZ        -20.2166  -28.9912    1.1506 C.ar      4 PHE5        0.0000 
     42 CA        -20.9302  -29.9683    2.0372 C.3       5 GLY6        0.0000 
     43 O         -21.6439  -30.9453    2.9239 O.2       2 ALA2        0.0000 
     44 O         -22.3575  -31.9223    3.8105 O.2       2 ALA2        0.0000 
     45 N         -23.0711  -32.8994    4.6972 N.2       2 ALA2        0.0000 
     46 CZ        -19.8032  -28.8756   -0.9269 C.ar      4 PHE5        0.0000 
     47 CA        -20.5168  -29.8526   -0.0402 C.3       5 GLY6        0.0000 
     48 CA        -21.2304  -30.8296    0.8465 C.3       5 GLY6        0.0000 
     49 O         -21.9440  -31.8067    1.7331 O.2       2 ALA2        0.0000 
     50 CZ        -19.3898  -28.7599   -3.0043 C.ar      4 PHE5        0.0000 
     51 NZ        -20.1034  -29.7369   -2.1176 N.2       3 LYS4        0.0000 
     52 NZ        -20.8170  -30.7140   -1.2310 N.2       3 LYS4        0.0000 
     53 CA        -21.5306  -31.6910   -0.3443 C.3       5 GLY6        0.0000 
     54 OG        -18.9763  -28.6442   -5.0817 O.2       1 SER1        0.0000 
     55 NZ        -19.6899  -29.6213   -4.1951 N.2       3 LYS4        0.0000 
     56 NZ        -20.4036  -30.5983   -3.3084 N.2       3 LYS4        0.0000 
     57 NZ        -21.1172  -31.5753   -2.4217 N.2       3 LYS4        0.0000 
     58 CA        -21.8308  -32.5524   -1.5351 C.3       5 GLY6        0.0000 
     59 O         -19.2765  -29.5056   -6.2725 O.2       2 ALA2        0.0000 
     60 CZ        -19.9901  -30.4827   -5.3858 C.ar      4 PHE5        0.0000 
     61 CZ        -20.7037  -31.4597   -4.4992 C.ar      4 PHE5        0.0000 
     62 CZ        -21.4173  -32.4367   -3.6125 C.ar      4 PHE5        0.0000 
     63 CA        -22.1310  -33.4138   -2.7258 C.3       5 GLY6        0.0000 
     64 O         -27.0831  -28.8309    0.8760 O.2       2 ALA2        0.0000 
     65 O         -26.6697  -28.7153   -1.2014 O.2       2 ALA2        0.0000 
     66 O         -27.3833  -29.6923   -0.3147 O.2       2 ALA2        0.0000 
     67 CZ        -26.9699  -29.5766   -2.3921 C.ar      4 PHE5        0.0000 
     68 DU        -27.6835  -30.5537   -1.5055 H         6 CUB7        0.0000 
     69 CA        -26.5565  -29.4610   -4.4696 C.3       5 GLY6        0.0000 
     70 CA        -26.1430  -29.3453   -6.5470 C.3       5 GLY6        0.0000 
     71 DU        -26.8566  -30.3224   -5.6603 H         6 CUB7        0.0000 
     72 CA        -26.4432  -30.2067   -7.7378 C.3       5 GLY6        0.0000 
     73 OG        -22.4860  -26.6420    1.9128 O.2       1 SER1        0.0000 
     74 OG        -23.1996  -27.6190    2.7995 O.2       1 SER1        0.0000 
     75 N         -23.9132  -28.5960    3.6861 N.2       2 ALA2        0.0000 
     76 N         -24.6268  -29.5731    4.5728 N.2       2 ALA2        0.0000 
     77 CA        -22.7862  -27.5034    0.7220 C.3       5 GLY6        0.0000 
     78 DU        -23.4998  -28.4804    1.6087 H         6 CUB7        0.0000 
     79 N         -24.2134  -29.4574    2.4953 N.2       2 ALA2        0.0000 
     80 N         -24.9270  -30.4345    3.3820 N.2       2 ALA2        0.0000 
     81 N         -25.6406  -31.4115    4.2687 N.2       2 ALA2        0.0000 
     82 CZ        -23.0864  -28.3647   -0.4687 C.ar      4 PHE5        0.0000 
     83 DU        -23.8000  -29.3418    0.4179 H         6 CUB7        0.0000 
     84 DU        -25.2272  -31.2958    2.1912 H         6 CUB7        0.0000 
     85 N         -25.9408  -32.2729    3.0779 N.2       2 ALA2        0.0000 
     86 CZ        -23.3865  -29.2261   -1.6595 C.ar      4 PHE5        0.0000 
     87 CZ        -24.1002  -30.2031   -0.7728 C.ar      4 PHE5        0.0000 
     88 DU        -24.8138  -31.1802    0.1138 H         6 CUB7        0.0000 
     89 CZ        -25.5274  -32.1572    1.0005 C.ar      4 PHE5        0.0000 
     90 CZ        -26.2410  -33.1342    1.8871 C.ar      4 PHE5        0.0000 
     91 CZ        -22.2595  -28.1334   -4.6236 C.ar      4 PHE5        0.0000 
     92 CZ        -22.9731  -29.1104   -3.7369 C.ar      4 PHE5        0.0000 
     93 CZ        -23.6867  -30.0875   -2.8503 C.ar      4 PHE5        0.0000 
     94 DU        -24.4003  -31.0645   -1.9636 H         6 CUB7        0.0000 
     95 DU        -25.1139  -32.0415   -1.0770 H         6 CUB7        0.0000 
     96 CZ        -25.8276  -33.0186   -0.1903 C.ar      4 PHE5        0.0000 
     97 CZ        -26.5412  -33.9956    0.6964 C.ar      4 PHE5        0.0000 
     98 NZ        -23.2733  -29.9718   -4.9277 N.2       3 LYS4        0.0000 
     99 DU        -23.9869  -30.9489   -4.0410 H         6 CUB7        0.0000 
    100 DU        -24.7005  -31.9259   -3.1544 H         6 CUB7        0.0000 
    101 CA        -25.4141  -32.9029   -2.2677 C.3       5 GLY6        0.0000 
    102 CA        -26.1277  -33.8800   -1.3811 C.3       5 GLY6        0.0000 
    103 NZ        -23.5735  -30.8332   -6.1185 N.2       3 LYS4        0.0000 
    104 N         -24.2871  -31.8102   -5.2318 N.2       2 ALA2        0.0000 
    105 N         -25.0007  -32.7873   -4.3451 N.2       2 ALA2        0.0000 
    106 CZ        -24.0710  -26.7594    0.5078 C.ar      4 PHE5        0.0000 
    107 OG        -24.7846  -27.7364    1.3944 O.2       1 SER1        0.0000 
    108 N         -25.4982  -28.7135    2.2811 N.2       2 ALA2        0.0000 
    109 N         -26.2118  -29.6905    3.1677 N.2       2 ALA2        0.0000 
    110 CZ        -25.0847  -28.5978    0.2037 C.ar      4 PHE5        0.0000 
    111 DU        -25.7984  -29.5749    1.0903 H         6 CUB7        0.0000 
    112 DU        -26.5120  -30.5519    1.9770 H         6 CUB7        0.0000 
    113 DU        -27.2256  -31.5289    2.8636 H         6 CUB7        0.0000 
    114 CZ        -25.3849  -29.4592   -0.9871 C.ar      4 PHE5        0.0000 
    115 DU        -26.0985  -30.4362   -0.1005 H         6 CUB7        0.0000 
    116 DU        -27.5258  -32.3903    1.6729 H         6 CUB7        0.0000 
    117 CZ        -24.9715  -29.3435   -3.0645 C.ar      4 PHE5        0.0000 
    118 CZ        -25.6851  -30.3206   -2.1779 C.ar      4 PHE5        0.0000 
    119 DU        -26.3987  -31.2976   -1.2912 H         6 CUB7        0.0000 
    120 NZ        -24.5581  -29.2279   -5.1420 N.2       3 LYS4        0.0000 
    121 CZ        -25.2717  -30.2049   -4.2553 C.ar      4 PHE5        0.0000 
    122 DU        -25.9853  -31.1819   -3.3686 H         6 CUB7        0.0000 
    123 DU        -26.6989  -32.1590   -2.4820 H         6 CUB7        0.0000 
    124 CA        -27.4125  -33.1360   -1.5953 C.3       5 GLY6        0.0000 
    125 NZ        -24.8582  -30.0893   -6.3327 N.2       3 LYS4        0.0000 
    126 N         -25.5719  -31.0663   -5.4461 N.2       2 ALA2        0.0000 
    127 CA        -25.1584  -30.9506   -7.5235 C.3       5 GLY6        0.0000 
@<TRIPOS>BOND
@<TRIPOS>SUBSTRUCTURE
     1 SER1       54 GROUP   
     2 ALA2        5 GROUP   
     3 LYS4        1 GROUP   
     4 PHE5        3 GROUP   
     5 GLY6        4 GROUP   
     6 CUB7        9 GROUP   
@<TRIPOS>SET

