#    Name: 2j7d_GI1_2_INTS_M
#    Modification time : Tue Mar 25 19:26:17 2014

@<TRIPOS>MOLECULE
2j7d_GI1_2_INTS_M
   60     0     9     0     0
SMALL
NO_CHARGES


@<TRIPOS>ATOM
      1 CA        -19.2965  -32.6130   -5.4385 C.3       3 GLC5        0.0000 
      2 CA        -18.3460  -30.9920   -5.2770 C.3       9 GLL5        0.0000 
      3 CA        -20.2470  -34.2340   -5.6000 C.3       6 GLP5        0.0000 
      4 N         -16.4140  -32.2415   -6.1485 N.am      2 SEC2        0.0000 
      5 N         -17.0590  -31.4180   -4.8250 N.am      8 SEL2        0.0000 
      6 N         -15.7690  -33.0650   -7.4720 N.am      5 SEP2        0.0000 
      7 N         -16.4980  -32.7560   -4.7035 N.am      2 SEC2        0.0000 
      8 N         -15.9370  -34.0940   -4.5820 N.am      5 SEP2        0.0000 
      9 O         -16.4865  -30.0920   -4.4140 O.2       1 ALC1        0.0000 
     10 O         -17.0590  -31.4180   -4.8250 O.2       7 ALL1        0.0000 
     11 O         -15.9140  -28.7660   -4.0030 O.2       4 ALP1        0.0000 
     12 O         -15.7210  -30.7980   -4.7560 O.2       1 ALC1        0.0000 
     13 O         -14.3830  -30.1780   -4.6870 O.2       4 ALP1        0.0000 
     14 CA        -17.3070  -29.2465   -7.9020 C.3       3 GLC5        0.0000 
     15 CA        -18.2130  -30.1770   -6.5700 C.3       9 GLL5        0.0000 
     16 CA        -16.4010  -28.3160   -9.2340 C.3       6 GLP5        0.0000 
     17 N         -16.8190  -32.0055   -7.6025 N.am      2 SEC2        0.0000 
     18 N         -17.8690  -30.9460   -7.7330 N.am      8 SEL2        0.0000 
     19 N         -19.1145  -31.5340   -8.3180 N.am      2 SEC2        0.0000 
     20 N         -20.3600  -32.1220   -8.9030 N.am      5 SEP2        0.0000 
     21 CA        -17.9800  -28.2385   -7.5925 C.3       3 GLC5        0.0000 
     22 CA        -19.4320  -29.2770   -6.7820 C.3       9 GLL5        0.0000 
     23 CA        -16.5280  -27.2000   -8.4030 C.3       6 GLP5        0.0000 
     24 CA        -20.5710  -30.5530   -7.8290 C.3       3 GLC5        0.0000 
     25 CA        -21.7100  -31.8290   -8.8760 C.3       6 GLP5        0.0000 
     26 N         -19.3670  -29.3345   -9.5060 N.am      2 SEC2        0.0000 
     27 N         -19.4360  -28.7510   -8.1300 N.am      8 SEL2        0.0000 
     28 N         -19.2980  -29.9180  -10.8820 N.am      5 SEP2        0.0000 
     29 O         -20.4810  -28.1790   -8.5645 O.2       1 ALC1        0.0000 
     30 O         -19.4360  -28.7510   -8.1300 O.2       7 ALL1        0.0000 
     31 O         -21.5260  -27.6070   -8.9990 O.2       4 ALP1        0.0000 
     32 CA        -18.6595  -27.1190   -4.1885 C.3       3 GLC5        0.0000 
     33 CA        -19.4230  -28.2090   -5.6580 C.3       9 GLL5        0.0000 
     34 CA        -17.8960  -26.0290   -2.7190 C.3       6 GLP5        0.0000 
     35 CA        -19.5760  -26.0235   -4.3520 C.3       3 GLC5        0.0000 
     36 CA        -20.4730  -27.1260   -5.8150 C.3       9 GLL5        0.0000 
     37 CA        -18.6790  -24.9210   -2.8890 C.3       6 GLP5        0.0000 
     38 CA        -21.9800  -26.7865   -4.3800 C.3       3 GLC5        0.0000 
     39 CA        -23.4870  -26.4470   -2.9450 C.3       6 GLP5        0.0000 
     40 CA        -21.2085  -25.6160   -5.8860 C.3       3 GLC5        0.0000 
     41 CA        -21.9440  -24.1060   -5.9570 C.3       6 GLP5        0.0000 
     42 O         -22.3990  -28.0010   -6.5580 O.2       1 ALC1        0.0000 
     43 O         -21.8190  -27.5750   -5.5570 O.2       7 ALL1        0.0000 
     44 O         -22.9790  -28.4270   -7.5590 O.2       4 ALP1        0.0000 
     45 N         -18.9200  -31.8135   -2.5820 N.am      2 SEC2        0.0000 
     46 N         -19.2580  -30.6110   -2.9710 N.am      8 SEL2        0.0000 
     47 N         -18.5820  -33.0160   -2.1930 N.am      5 SEP2        0.0000 
     48 CA        -19.6385  -31.0900    0.4395 C.3       3 GLC5        0.0000 
     49 CA        -20.3710  -29.6540   -0.8950 C.3       9 GLL5        0.0000 
     50 CA        -18.9060  -32.5260    1.7740 C.3       6 GLP5        0.0000 
     51 CA        -19.5540  -27.9855   -0.6975 C.3       3 GLC5        0.0000 
     52 CA        -18.7370  -26.3170   -0.5000 C.3       6 GLP5        0.0000 
     53 CA        -21.7335  -33.2820   -0.5315 C.3       3 GLC5        0.0000 
     54 CA        -22.0270  -31.4100   -0.0320 C.3       9 GLL5        0.0000 
     55 CA        -21.4400  -35.1540   -1.0310 C.3       6 GLP5        0.0000 
     56 CA        -20.4665  -31.9680    0.8710 C.3       3 GLC5        0.0000 
     57 N         -19.6680  -32.0285   -1.3965 N.am      2 SEC2        0.0000 
     58 N         -20.7540  -31.0410   -0.6000 N.am      8 SEL2        0.0000 
     59 CA        -18.5780  -26.5153   -6.5312 C.3       3 GLC5        0.0000 
     60 CA        -17.2080  -25.3630   -7.3260 C.3       6 GLP5        0.0000 
@<TRIPOS>BOND
@<TRIPOS>SUBSTRUCTURE
     1 ALC1        9 GROUP        1 X    ALC  0     ROOT ALC X 1
     2 SEC2        4 GROUP        1 X    SEC  0     **** SEC X 2
     3 GLC5        1 GROUP        1 X    GLC  0     **** GLC X 6
     4 ALP1       11 GROUP        1 Y    ALP  0     ROOT ALP Y 8
     5 SEP2        6 GROUP        1 Y    SEP  0     **** SEP Y 9
     6 GLP5        3 GROUP        1 Y    GLP  0     **** GLP Y 13
     7 ALL1       10 GROUP        1 Z    ALL  0     ROOT ALL Z 15
     8 SEL2        5 GROUP        1 Z    SEL  0     **** SEL Z 16
     9 GLL5        2 GROUP        1 Z    GLL  0     **** GLL Z 20
@<TRIPOS>SET

