#    Name: 2j7d_GI1_2_ligand
#    Modification time : Tue Mar 25 19:26:17 2014

@<TRIPOS>MOLECULE
2j7d_GI1_2_ligand
   34    35     1     0     0
SMALL
NO_CHARGES


@<TRIPOS>ATOM
      1 C1        -19.0220  -30.1820   -4.2250 C.2       1 GI11446     0.0000 
      2 C2        -18.3460  -30.9920   -5.2770 C.3       1 GI11446     0.0000 
      3 O2        -17.0590  -31.4180   -4.8250 O.3       1 GI11446     0.0000 
      4 C3        -18.2130  -30.1770   -6.5700 C.3       1 GI11446     0.0000 
      5 O3        -17.8690  -30.9460   -7.7330 O.3       1 GI11446     0.0000 
      6 C4        -19.4320  -29.2770   -6.7820 C.3       1 GI11446     0.0000 
      7 C80       -20.0920  -28.5600   -3.1710 C.2       1 GI11446     0.0000 
      8 N10       -19.5340  -28.9280   -4.3530 N.pl3     1 GI11446     0.0000 
      9 O4        -19.4360  -28.7510   -8.1300 O.3       1 GI11446     0.0000 
     10 C5        -19.4230  -28.2090   -5.6580 C.3       1 GI11446     0.0000 
     11 C6        -20.4730  -27.1260   -5.8150 C.3       1 GI11446     0.0000 
     12 O6        -21.8190  -27.5750   -5.5570 O.3       1 GI11446     0.0000 
     13 N1        -19.2580  -30.6110   -2.9710 N.2       1 GI11446     0.0000 
     14 C7        -19.8990  -29.6360   -2.3150 C.2       1 GI11446     0.0000 
     15 C8        -20.3710  -29.6540   -0.8950 C.3       1 GI11446     0.0000 
     16 O8        -21.3920  -28.6900   -0.6020 O.3       1 GI11446     0.0000 
     17 C9        -22.0270  -31.4100   -0.0320 C.3       1 GI11446     0.0000 
     18 O9        -20.7540  -31.0410   -0.6000 O.3       1 GI11446     0.0000 
     19 H         -18.9737  -31.8546   -5.5050 H         1 GI11446     0.0000 
     20 H         -17.3552  -29.4484   -6.3645 H         1 GI11446     0.0000 
     21 H         -20.3128  -29.9113   -6.6090 H         1 GI11446     0.0000 
     22 H         -20.5218  -27.7530   -2.9586 H         1 GI11446     0.0000 
     23 H         -18.4232  -27.7365   -5.6896 H         1 GI11446     0.0000 
     24 H         -20.3856  -26.7145   -6.8456 H         1 GI11446     0.0000 
     25 H         -20.2005  -26.2872   -5.1359 H         1 GI11446     0.0000 
     26 H         -19.4635  -29.4373   -0.2722 H         1 GI11446     0.0000 
     27 H         -22.1050  -32.3990    0.0935 H         1 GI11446     0.0000 
     28 H         -22.1702  -30.9887    0.8636 H         1 GI11446     0.0000 
     29 H         -22.7894  -31.1274   -0.6142 H         1 GI11446     0.0000 
     30 H         -16.6096  -30.5852   -4.5018 H         1 GI11446     0.0000 
     31 H         -18.0579  -30.3423   -8.5074 H         1 GI11446     0.0000 
     32 H         -20.3938  -28.7799   -8.4162 H         1 GI11446     0.0000 
     33 H         -21.9778  -28.3091   -6.2172 H         1 GI11446     0.0000 
     34 H         -20.9224  -27.9574   -0.1093 H         1 GI11446     0.0000 
@<TRIPOS>BOND
     1    2    1 1    
     2    8    1 1    
     3   13    1 2    
     4    3    2 1    
     5    4    2 1    
     6   19    2 1    
     7   30    3 1    
     8    5    4 1    
     9    6    4 1    
    10   20    4 1    
    11   31    5 1    
    12    9    6 1    
    13   10    6 1    
    14   21    6 1    
    15    8    7 1    
    16   14    7 2    
    17   22    7 1    
    18   10    8 1    
    19   32    9 1    
    20   11   10 1    
    21   23   10 1    
    22   12   11 1    
    23   24   11 1    
    24   25   11 1    
    25   33   12 1    
    26   14   13 1    
    27   15   14 1    
    28   16   15 1    
    29   18   15 1    
    30   26   15 1    
    31   34   16 1    
    32   18   17 1    
    33   27   17 1    
    34   28   17 1    
    35   29   17 1    
@<TRIPOS>SUBSTRUCTURE
     1 GI11446     1 GROUP   
@<TRIPOS>SET

