#    Name: 4lc7_1WP_1_INTS_M
#    Modification time : Tue Mar 25 09:59:47 2014

@<TRIPOS>MOLECULE
4lc7_1WP_1_INTS_M
   50     0     6     0     0
SMALL
NO_CHARGES


@<TRIPOS>ATOM
      1 CA         20.3585   12.3935    9.6410 C.3       2 GLC5        0.0000 
      2 CA         21.2390   13.1570    7.9510 C.3       6 GLL5        0.0000 
      3 CA         19.4780   11.6300   11.3310 C.3       4 GLP5        0.0000 
      4 CA         21.6635   11.7035    7.1325 C.3       2 GLC5        0.0000 
      5 CA         22.0880   10.2500    6.3140 C.3       4 GLP5        0.0000 
      6 CA         23.0130   11.4510    7.6490 C.3       2 GLC5        0.0000 
      7 CA         22.6990   12.9840    8.4510 C.3       6 GLL5        0.0000 
      8 CA         23.3270    9.9180    6.8470 C.3       4 GLP5        0.0000 
      9 CA         23.4950   12.1895   10.1950 C.3       2 GLC5        0.0000 
     10 CA         24.2910   11.3950   11.9390 C.3       4 GLP5        0.0000 
     11 O          22.4380   14.2420   11.0155 O.2       1 ALC1        0.0000 
     12 O          22.8160   14.8570    9.8820 O.2       5 ALL1        0.0000 
     13 O          22.0600   13.6270   12.1490 O.2       3 ALP1        0.0000 
     14 CA         22.8095   17.0415   11.2435 C.3       2 GLC5        0.0000 
     15 CA         22.1350   15.9690    9.6210 C.3       6 GLL5        0.0000 
     16 CA         23.4840   18.1140   12.8660 C.3       4 GLP5        0.0000 
     17 O          21.3400   16.0485   11.7175 O.2       1 ALC1        0.0000 
     18 O          21.2820   16.5580   10.4490 O.2       5 ALL1        0.0000 
     19 O          21.3980   15.5390   12.9860 O.2       3 ALP1        0.0000 
     20 O          21.6710   15.0925   11.2990 O.2       1 ALC1        0.0000 
     21 O          20.6010   17.7700   10.3595 O.2       1 ALC1        0.0000 
     22 O          19.9200   18.9820   10.2700 O.2       3 ALP1        0.0000 
     23 CA         30.4675   16.6740    9.0015 C.3       2 GLC5        0.0000 
     24 CA         28.8560   17.0950    9.2500 C.3       6 GLL5        0.0000 
     25 CA         32.0790   16.2530    8.7530 C.3       4 GLP5        0.0000 
     26 CA         30.5010   19.4125   11.3630 C.3       2 GLC5        0.0000 
     27 CA         28.8500   19.0540   10.5340 C.3       6 GLL5        0.0000 
     28 CA         32.1520   19.7710   12.1920 C.3       4 GLP5        0.0000 
     29 CA         25.2535   17.7885   11.8340 C.3       2 GLC5        0.0000 
     30 CA         27.0230   17.4630   10.8020 C.3       6 GLL5        0.0000 
     31 CA         28.1310   19.3665   13.4880 C.3       2 GLC5        0.0000 
     32 CA         26.9220   19.7360   12.3100 C.3       6 GLL5        0.0000 
     33 CA         29.3400   18.9970   14.6660 C.3       4 GLP5        0.0000 
     34 CA         25.2030   18.9250   12.5880 C.3       2 GLC5        0.0000 
     35 CA         25.2355   20.4025   11.3770 C.3       2 GLC5        0.0000 
     36 CA         23.5490   21.0690   10.4440 C.3       4 GLP5        0.0000 
     37 CA         26.4870   21.8240   11.5950 C.3       2 GLC5        0.0000 
     38 CA         26.0520   23.9120   10.8800 C.3       4 GLP5        0.0000 
     39 CA         21.8798   12.6965    5.8063 C.3       2 GLC5        0.0000 
     40 CA         22.3370   14.9530    6.3690 C.3       6 GLL5        0.0000 
     41 CA         22.0230   10.8990    5.0890 C.3       4 GLP5        0.0000 
     42 CA         24.7988   12.5578   10.2700 C.3       2 GLC5        0.0000 
     43 CA         24.9300   14.2910    8.7900 C.3       6 GLL5        0.0000 
     44 CA         26.5656   14.7003   11.2438 C.3       2 GLC5        0.0000 
     45 CA         27.7840   14.2870    9.0150 C.3       6 GLL5        0.0000 
     46 CA         26.6110   14.2580   13.2460 C.3       4 GLP5        0.0000 
     47 CA         26.9745   15.6520   11.7838 C.3       2 GLC5        0.0000 
     48 CA         27.6530   16.6290    9.8410 C.3       6 GLL5        0.0000 
     49 CA         28.7907   18.9345   12.7555 C.3       2 GLC5        0.0000 
     50 CA         27.6330   18.6900   11.1560 C.3       6 GLL5        0.0000 
@<TRIPOS>BOND
@<TRIPOS>SUBSTRUCTURE
     1 ALC1       11 GROUP        1 X    ALC  0     ROOT ALC X 1
     2 GLC5        1 GROUP        1 X    GLC  0     **** GLC X 6
     3 ALP1       13 GROUP        1 Y    ALP  0     ROOT ALP Y 8
     4 GLP5        3 GROUP        1 Y    GLP  0     **** GLP Y 13
     5 ALL1       12 GROUP        1 Z    ALL  0     ROOT ALL Z 15
     6 GLL5        2 GROUP        1 Z    GLL  0     **** GLL Z 20
@<TRIPOS>SET

