#    Name: 4lc7_1WP_1_ligand
#    Modification time : Tue Mar 25 09:59:47 2014

@<TRIPOS>MOLECULE
4lc7_1WP_1_ligand
   42    45     1     0     0
SMALL
NO_CHARGES


@<TRIPOS>ATOM
      1 C1         23.3990   14.3510    8.6590 C.3       1 1WP502      0.0000 
      2 C2         23.0810   15.4640    7.6210 C.3       1 1WP502      0.0000 
      3 C3         22.3370   14.9530    6.3690 C.3       1 1WP502      0.0000 
      4 C4         21.1360   14.0350    6.6780 C.3       1 1WP502      0.0000 
      5 C5         21.2390   13.1570    7.9510 C.3       1 1WP502      0.0000 
      6 C6         22.6990   12.9840    8.4510 C.3       1 1WP502      0.0000 
      7 N7         22.8160   14.8570    9.8820 N.pl3     1 1WP502      0.0000 
      8 C8         22.1350   15.9690    9.6210 C.2       1 1WP502      0.0000 
      9 O9         22.1390   16.3210    8.3110 O.3       1 1WP502      0.0000 
     10 C10        24.9300   14.2910    8.7900 C.ar      1 1WP502      0.0000 
     11 C11        25.6830   13.1500    8.4120 C.ar      1 1WP502      0.0000 
     12 C12        27.0940   13.1510    8.5290 C.ar      1 1WP502      0.0000 
     13 C13        27.7840   14.2870    9.0150 C.ar      1 1WP502      0.0000 
     14 C14        27.0430   15.4350    9.3970 C.ar      1 1WP502      0.0000 
     15 C15        25.6270   15.4240    9.2770 C.ar      1 1WP502      0.0000 
     16 C16        27.6530   16.6290    9.8410 C.ar      1 1WP502      0.0000 
     17 N17        21.2820   16.5580   10.4490 N.pl3     1 1WP502      0.0000 
     18 C18        28.8560   17.0950    9.2500 C.ar      1 1WP502      0.0000 
     19 N19        29.4360   18.2650    9.6100 N.ar      1 1WP502      0.0000 
     20 C20        28.8500   19.0540   10.5340 C.ar      1 1WP502      0.0000 
     21 C21        27.6330   18.6900   11.1560 C.ar      1 1WP502      0.0000 
     22 C22        27.0230   17.4630   10.8020 C.ar      1 1WP502      0.0000 
     23 CL1        26.9220   19.7360   12.3100 Cl        1 1WP502      0.0000 
     24 H          23.9453   15.9758    7.3635 H         1 1WP502      0.0000 
     25 H          23.0482   14.4044    5.7338 H         1 1WP502      0.0000 
     26 H          21.9818   15.8185    5.7903 H         1 1WP502      0.0000 
     27 H          20.9672   13.3674    5.8062 H         1 1WP502      0.0000 
     28 H          20.2227   14.6623    6.7596 H         1 1WP502      0.0000 
     29 H          20.8212   12.1704    7.7358 H         1 1WP502      0.0000 
     30 H          20.6463   13.6153    8.7465 H         1 1WP502      0.0000 
     31 H          22.6870   12.4441    9.3947 H         1 1WP502      0.0000 
     32 H          23.2571   12.4074    7.7173 H         1 1WP502      0.0000 
     33 H          22.9399   14.4103   10.7216 H         1 1WP502      0.0000 
     34 H          25.2027   12.3219    8.0528 H         1 1WP502      0.0000 
     35 H          27.6245   12.3147    8.2570 H         1 1WP502      0.0000 
     36 H          28.7947   14.2822    9.0898 H         1 1WP502      0.0000 
     37 H          25.0950   16.2633    9.5520 H         1 1WP502      0.0000 
     38 H          21.1692   16.1272   11.3444 H         1 1WP502      0.0000 
     39 H          20.8289   17.3795   10.1029 H         1 1WP502      0.0000 
     40 H          29.2899   16.4931    8.5115 H         1 1WP502      0.0000 
     41 H          29.2827   19.9602   10.8160 H         1 1WP502      0.0000 
     42 H          26.1477   17.1814   11.2278 H         1 1WP502      0.0000 
@<TRIPOS>BOND
     1    2    1 1    
     2    6    1 1    
     3    7    1 1    
     4   10    1 1    
     5    3    2 1    
     6    9    2 1    
     7   24    2 1    
     8    4    3 1    
     9   25    3 1    
    10   26    3 1    
    11    5    4 1    
    12   27    4 1    
    13   28    4 1    
    14    6    5 1    
    15   29    5 1    
    16   30    5 1    
    17   31    6 1    
    18   32    6 1    
    19    8    7 1    
    20   33    7 1    
    21    9    8 1    
    22   17    8 2    
    23   11   10 ar   
    24   15   10 ar   
    25   12   11 ar   
    26   34   11 1    
    27   13   12 ar   
    28   35   12 1    
    29   14   13 ar   
    30   36   13 1    
    31   15   14 ar   
    32   16   14 1    
    33   37   15 1    
    34   18   16 ar   
    35   22   16 ar   
    36   38   17 1    
    37   39   17 1    
    38   19   18 ar   
    39   40   18 1    
    40   20   19 ar   
    41   21   20 ar   
    42   41   20 1    
    43   22   21 ar   
    44   23   21 1    
    45   42   22 1    
@<TRIPOS>SUBSTRUCTURE
     1 1WP502      1 GROUP   
@<TRIPOS>SET

