#    Name: 1equ_EQI_1_INTS_M
#    Modification time : Tue Mar 25 00:10:49 2014

@<TRIPOS>MOLECULE
1equ_EQI_1_INTS_M
   50     0     6     0     0
SMALL
NO_CHARGES


@<TRIPOS>ATOM
      1 CA          5.6360   30.4090   33.9075 C.3       2 GLC5        0.0000 
      2 CA          6.3070   28.5150   33.2850 C.3       6 GLL5        0.0000 
      3 CA          4.9650   32.3030   34.5300 C.3       4 GLP5        0.0000 
      4 CA         10.9000   30.1835   30.6895 C.3       2 GLC5        0.0000 
      5 CA         10.4650   29.0980   32.2520 C.3       6 GLL5        0.0000 
      6 CA         11.3350   31.2690   29.1270 C.3       4 GLP5        0.0000 
      7 CA          9.1570   28.8095   36.7120 C.3       2 GLC5        0.0000 
      8 CA          9.6570   28.0850   34.9750 C.3       6 GLL5        0.0000 
      9 CA          8.6570   29.5340   38.4490 C.3       4 GLP5        0.0000 
     10 CA          9.6115   25.7905   38.2780 C.3       2 GLC5        0.0000 
     11 CA         10.3420   26.1200   36.4880 C.3       6 GLL5        0.0000 
     12 CA          8.8810   25.4610   40.0680 C.3       4 GLP5        0.0000 
     13 CA         14.5850   25.7180   34.9270 C.3       2 GLC5        0.0000 
     14 CA         13.5620   27.6490   35.4000 C.3       6 GLL5        0.0000 
     15 CA         15.6080   23.7870   34.4540 C.3       4 GLP5        0.0000 
     16 CA         15.1940   25.2685   36.1395 C.3       2 GLC5        0.0000 
     17 CA         14.0600   26.8080   36.6460 C.3       6 GLL5        0.0000 
     18 CA         16.3280   23.7290   35.6330 C.3       4 GLP5        0.0000 
     19 CA         14.2795   25.7735   38.2670 C.3       2 GLC5        0.0000 
     20 CA         14.4990   24.7390   39.8880 C.3       4 GLP5        0.0000 
     21 CA         10.3160   24.5900   35.6995 C.3       2 GLC5        0.0000 
     22 CA         11.9750   25.2210   34.7910 C.3       6 GLL5        0.0000 
     23 CA          8.6570   23.9590   36.6080 C.3       4 GLP5        0.0000 
     24 CA         11.9140   23.3435   33.9020 C.3       2 GLC5        0.0000 
     25 CA         11.8530   21.4660   33.0130 C.3       4 GLP5        0.0000 
     26 CA         13.7915   24.5040   34.6225 C.3       2 GLC5        0.0000 
     27 O           5.5240   30.7445   30.7165 O.2       1 ALC1        0.0000 
     28 O           5.6680   29.1620   31.1040 O.2       5 ALL1        0.0000 
     29 O           5.3800   32.3270   30.3290 O.2       3 ALP1        0.0000 
     30 CA          6.9383   30.9985   30.8848 C.3       2 GLC5        0.0000 
     31 CA          6.6600   28.9550   31.9800 C.3       6 GLL5        0.0000 
     32 CA          6.5440   32.9470   29.9390 C.3       4 GLP5        0.0000 
     33 CA          9.3460   27.4820   31.9630 C.3       2 GLC5        0.0000 
     34 CA          8.0050   29.1450   31.6810 C.3       6 GLL5        0.0000 
     35 CA         10.1820   25.9320   31.7870 C.3       4 GLP5        0.0000 
     36 CA          9.0765   27.1502   32.9313 C.3       2 GLC5        0.0000 
     37 CA          8.6440   28.4550   33.9470 C.3       6 GLL5        0.0000 
     38 CA          7.7534   30.5177   34.1640 C.3       2 GLC5        0.0000 
     39 CA          9.0150   28.9190   32.5970 C.3       6 GLL5        0.0000 
     40 CA          7.4430   32.5510   34.5900 C.3       4 GLP5        0.0000 
     41 CA         10.5705   27.3970   32.2772 C.3       2 GLC5        0.0000 
     42 CA         11.0235   25.8248   33.5840 C.3       2 GLC5        0.0000 
     43 CA         11.7550   26.2140   35.9710 C.3       6 GLL5        0.0000 
     44 CA          9.0087   27.3270   37.5337 C.3       2 GLC5        0.0000 
     45 CA          9.3530   26.6360   35.4730 C.3       6 GLL5        0.0000 
     46 CA          8.1700   28.2760   39.0870 C.3       4 GLP5        0.0000 
     47 CA          9.4289   25.1803   36.2296 C.3       2 GLC5        0.0000 
     48 CA         10.0242   26.6576   33.4496 C.3       2 GLC5        0.0000 
     49 CA         15.5895   27.3678   36.7920 C.3       2 GLC5        0.0000 
     50 CA         17.3680   27.5070   37.5610 C.3       4 GLP5        0.0000 
@<TRIPOS>BOND
@<TRIPOS>SUBSTRUCTURE
     1 ALC1       27 GROUP        1 X    ALC  0     ROOT ALC X 1
     2 GLC5        1 GROUP        1 X    GLC  0     **** GLC X 6
     3 ALP1       29 GROUP        1 Y    ALP  0     ROOT ALP Y 8
     4 GLP5        3 GROUP        1 Y    GLP  0     **** GLP Y 13
     5 ALL1       28 GROUP        1 Z    ALL  0     ROOT ALL Z 15
     6 GLL5        2 GROUP        1 Z    GLL  0     **** GLL Z 20
@<TRIPOS>SET

