#    Name: 1equ_EQI_1_ligand
#    Modification time : Tue Mar 25 00:10:49 2014

@<TRIPOS>MOLECULE
1equ_EQI_1_ligand
   40    43     1     0     0
SMALL
NO_CHARGES


@<TRIPOS>ATOM
      1 C1          6.6600   28.9550   31.9800 C.ar      1 EQI329      0.0000 
      2 C2          8.0050   29.1450   31.6810 C.ar      1 EQI329      0.0000 
      3 C3          9.0150   28.9190   32.5970 C.ar      1 EQI329      0.0000 
      4 C4          8.6440   28.4550   33.9470 C.ar      1 EQI329      0.0000 
      5 C5          7.2980   28.2820   34.2040 C.ar      1 EQI329      0.0000 
      6 C6          6.3070   28.5150   33.2850 C.ar      1 EQI329      0.0000 
      7 C10        10.4650   29.0980   32.2520 C.3       1 EQI329      0.0000 
      8 C11        11.4530   28.6260   33.2830 C.2       1 EQI329      0.0000 
      9 C12        11.1030   28.1760   34.5280 C.2       1 EQI329      0.0000 
     10 C13         9.6570   28.0850   34.9750 C.3       1 EQI329      0.0000 
     11 C16        12.0680   27.6940   35.5850 C.3       1 EQI329      0.0000 
     12 C17        11.7550   26.2140   35.9710 C.3       1 EQI329      0.0000 
     13 C18        10.3420   26.1200   36.4880 C.3       1 EQI329      0.0000 
     14 C19         9.3530   26.6360   35.4730 C.3       1 EQI329      0.0000 
     15 C24        13.5620   27.6490   35.4000 C.3       1 EQI329      0.0000 
     16 C25        14.0600   26.8080   36.6460 C.3       1 EQI329      0.0000 
     17 C26        12.8590   25.9030   36.9540 C.2       1 EQI329      0.0000 
     18 C27        11.9750   25.2210   34.7910 C.3       1 EQI329      0.0000 
     19 O1          5.6680   29.1620   31.1040 O.3       1 EQI329      0.0000 
     20 O26        12.8210   25.0470   37.8300 O.2       1 EQI329      0.0000 
     21 H           8.2601   29.4741   30.7177 H         1 EQI329      0.0000 
     22 H           7.0180   27.9489   35.1712 H         1 EQI329      0.0000 
     23 H           5.3208   28.3808   33.5130 H         1 EQI329      0.0000 
     24 H          10.6553   30.1784   32.0401 H         1 EQI329      0.0000 
     25 H          10.6743   28.5742   31.2876 H         1 EQI329      0.0000 
     26 H          12.4507   28.6646   32.9798 H         1 EQI329      0.0000 
     27 H           9.5236   28.7298   35.8574 H         1 EQI329      0.0000 
     28 H          11.8721   28.2390   36.5459 H         1 EQI329      0.0000 
     29 H          10.2530   26.7030   37.4105 H         1 EQI329      0.0000 
     30 H          10.1097   25.0761   36.7231 H         1 EQI329      0.0000 
     31 H           9.3375   25.9741   34.5939 H         1 EQI329      0.0000 
     32 H           8.3393   26.6329   35.9014 H         1 EQI329      0.0000 
     33 H          13.9846   28.6137   35.4662 H         1 EQI329      0.0000 
     34 H          13.8230   27.1218   34.5238 H         1 EQI329      0.0000 
     35 H          14.2383   27.4673   37.4440 H         1 EQI329      0.0000 
     36 H          14.8881   26.2330   36.3512 H         1 EQI329      0.0000 
     37 H          12.9201   25.2357   34.4645 H         1 EQI329      0.0000 
     38 H          11.7710   24.2785   35.0558 H         1 EQI329      0.0000 
     39 H          11.3913   25.4386   34.0087 H         1 EQI329      0.0000 
     40 H           5.6388   30.1534   30.9758 H         1 EQI329      0.0000 
@<TRIPOS>BOND
     1    2    1 ar   
     2    6    1 ar   
     3   19    1 1    
     4    3    2 ar   
     5   21    2 1    
     6    4    3 ar   
     7    7    3 1    
     8    5    4 ar   
     9   10    4 1    
    10    6    5 ar   
    11   22    5 1    
    12   23    6 1    
    13    8    7 1    
    14   24    7 1    
    15   25    7 1    
    16    9    8 2    
    17   26    8 1    
    18   10    9 1    
    19   11    9 1    
    20   14   10 1    
    21   27   10 1    
    22   12   11 1    
    23   15   11 1    
    24   28   11 1    
    25   13   12 1    
    26   17   12 1    
    27   18   12 1    
    28   14   13 1    
    29   29   13 1    
    30   30   13 1    
    31   31   14 1    
    32   32   14 1    
    33   16   15 1    
    34   33   15 1    
    35   34   15 1    
    36   17   16 1    
    37   35   16 1    
    38   36   16 1    
    39   20   17 2    
    40   37   18 1    
    41   38   18 1    
    42   39   18 1    
    43   40   19 1    
@<TRIPOS>SUBSTRUCTURE
     1 EQI329      1 GROUP   
@<TRIPOS>SET

