#    Name: 1hxw_RIT_1_INTS_M
#    Modification time : Tue Mar 25 06:30:58 2014

@<TRIPOS>MOLECULE
1hxw_RIT_1_INTS_M
  101     0     9     0     0
SMALL
NO_CHARGES


@<TRIPOS>ATOM
      1 CA         18.5755   17.7815    0.3240 C.3       3 GLC5        0.0000 
      2 CA         16.6620   17.7900    1.4940 C.3       9 GLL5        0.0000 
      3 CA         20.4890   17.7730   -0.8460 C.3       6 GLP5        0.0000 
      4 CA         16.5210   15.4585    3.7050 C.3       3 GLC5        0.0000 
      5 CA         17.3450   17.3240    4.0360 C.3       9 GLL5        0.0000 
      6 CA         15.6970   13.5930    3.3740 C.3       6 GLP5        0.0000 
      7 N          19.1950   17.8775    0.9180 N.am      2 SEC2        0.0000 
      8 N          17.8670   17.3660    1.3770 N.am      8 SEL2        0.0000 
      9 N          20.5230   18.3890    0.4590 N.am      5 SEP2        0.0000 
     10 CA         13.1955   18.1510    2.6520 C.3       3 GLC5        0.0000 
     11 CA         15.0730   18.4170    3.4890 C.3       9 GLL5        0.0000 
     12 CA         11.3180   17.8850    1.8150 C.3       6 GLP5        0.0000 
     13 CA         14.6865   16.4825    2.4960 C.3       3 GLC5        0.0000 
     14 CA         14.3000   14.5480    1.5030 C.3       6 GLP5        0.0000 
     15 CA         11.8325   21.4735    8.8390 C.3       3 GLC5        0.0000 
     16 CA         13.7990   21.7080    8.3440 C.3       9 GLL5        0.0000 
     17 CA          9.8660   21.2390    9.3340 C.3       6 GLP5        0.0000 
     18 CA         12.2795   20.2135    9.4620 C.3       3 GLC5        0.0000 
     19 CA         14.0980   20.6030    9.1570 C.3       9 GLL5        0.0000 
     20 CA         10.4610   19.8240    9.7670 C.3       6 GLP5        0.0000 
     21 CA         17.8055   23.0715    7.9115 C.3       3 GLC5        0.0000 
     22 CA         16.1150   21.6680    7.5490 C.3       9 GLL5        0.0000 
     23 CA         19.4960   24.4750    8.2740 C.3       6 GLP5        0.0000 
     24 N          15.3460   25.8225    4.2555 N.am      2 SEC2        0.0000 
     25 N          14.7540   24.6640    3.9780 N.am      8 SEL2        0.0000 
     26 N          15.9380   26.9810    4.5330 N.am      5 SEP2        0.0000 
     27 O          14.9685   24.3390    2.6635 O.2       1 ALC1        0.0000 
     28 O          14.7540   24.6640    3.9780 O.2       7 ALL1        0.0000 
     29 O          15.1830   24.0140    1.3490 O.2       4 ALP1        0.0000 
     30 CA         10.9800   24.8900    0.5380 C.3       3 GLC5        0.0000 
     31 CA         10.5690   23.5860    1.9290 C.3       9 GLL5        0.0000 
     32 CA         11.3910   26.1940   -0.8530 C.3       6 GLP5        0.0000 
     33 CA         11.4370   22.1940    0.6795 C.3       3 GLC5        0.0000 
     34 CA         12.3050   20.8020   -0.5700 C.3       6 GLP5        0.0000 
     35 CA         10.6820   21.1975    0.7110 C.3       3 GLC5        0.0000 
     36 CA          9.0590   21.5930    1.9920 C.3       9 GLL5        0.0000 
     37 O          11.1105   25.8780    3.5285 O.2       1 ALC1        0.0000 
     38 O          10.4690   24.5540    4.1370 O.2       7 ALL1        0.0000 
     39 O          11.7520   27.2020    2.9200 O.2       4 ALP1        0.0000 
     40 O           6.9790   24.5280    6.0065 O.2       1 ALC1        0.0000 
     41 O           7.9060   25.6800    5.5030 O.2       7 ALL1        0.0000 
     42 O           6.0520   23.3760    6.5100 O.2       4 ALP1        0.0000 
     43 CA         10.5675   27.0485    5.6120 C.3       3 GLC5        0.0000 
     44 CA          9.2740   25.5150    5.9960 C.3       9 GLL5        0.0000 
     45 CA         11.8610   28.5820    5.2280 C.3       6 GLP5        0.0000 
     46 CA         10.3710   26.3060   10.1410 C.3       3 GLC5        0.0000 
     47 CA         10.5960   25.2750    8.2820 C.3       9 GLL5        0.0000 
     48 CA         10.1460   27.3370   12.0000 C.3       6 GLP5        0.0000 
     49 CA         12.2080   25.1440    9.2460 C.3       3 GLC5        0.0000 
     50 CA         13.8200   25.0130   10.2100 C.3       6 GLP5        0.0000 
     51 CA         10.1030   23.6785    9.4310 C.3       3 GLC5        0.0000 
     52 CA          9.6100   22.0820   10.5800 C.3       6 GLP5        0.0000 
     53 CA          8.3915   28.7140    8.8420 C.3       3 GLC5        0.0000 
     54 CA          8.5650   26.8410    8.0950 C.3       9 GLL5        0.0000 
     55 CA          8.2180   30.5870    9.5890 C.3       6 GLP5        0.0000 
     56 CA          9.3555   27.0890   10.0475 C.3       3 GLC5        0.0000 
     57 CA          7.8350   26.1625   10.0210 C.3       3 GLC5        0.0000 
     58 CA          7.1050   25.4840   11.9470 C.3       6 GLP5        0.0000 
     59 N           9.1710   28.7395    4.6105 N.am      2 SEC2        0.0000 
     60 N           8.4710   27.4270    4.1920 N.am      8 SEL2        0.0000 
     61 N           9.8710   30.0520    5.0290 N.am      5 SEP2        0.0000 
     62 CA          7.3740   25.1635   -2.2375 C.3       3 GLC5        0.0000 
     63 CA          6.6390   26.2570   -0.7850 C.3       9 GLL5        0.0000 
     64 CA          8.1090   24.0700   -3.6900 C.3       6 GLP5        0.0000 
     65 CA          6.1240   24.6005   -3.0980 C.3       3 GLC5        0.0000 
     66 CA          4.1390   25.1310   -2.5060 C.3       9 GLL5        0.0000 
     67 CA         16.9677   19.7172    1.6715 C.3       3 GLC5        0.0000 
     68 CA         17.4900   21.5720    1.2040 C.3       6 GLP5        0.0000 
     69 CA         15.7483   17.4458    0.4315 C.3       3 GLC5        0.0000 
     70 CA         15.0510   17.0290   -1.2760 C.3       6 GLP5        0.0000 
     71 CA         15.3727   16.2052    1.8210 C.3       3 GLC5        0.0000 
     72 CA         13.3983   25.9270    2.8453 C.3       3 GLC5        0.0000 
     73 CA         12.6720   23.8060    3.1710 C.3       9 GLL5        0.0000 
     74 CA         13.7090   27.8810    1.9090 C.3       6 GLP5        0.0000 
     75 CA         13.9944   23.6170    8.9666 C.3       3 GLC5        0.0000 
     76 CA         14.2825   19.5175   10.8885 C.3       3 GLC5        0.0000 
     77 CA         13.8290   18.7270   12.6130 C.3       6 GLP5        0.0000 
     78 CA         13.5331   19.2081    8.1624 C.3       3 GLC5        0.0000 
     79 CA         15.3740   20.0130    9.1710 C.3       9 GLL5        0.0000 
     80 CA         12.4050   17.8320    7.3640 C.3       6 GLP5        0.0000 
     81 CA          7.9247   23.0385    0.2082 C.3       3 GLC5        0.0000 
     82 CA          6.8360   23.3350    2.0410 C.3       9 GLL5        0.0000 
     83 CA          8.3570   22.4870   -1.6130 C.3       6 GLP5        0.0000 
     84 CA          6.3100   20.4503    0.8472 C.3       3 GLC5        0.0000 
     85 CA          6.6600   21.9490    2.0260 C.3       9 GLL5        0.0000 
     86 CA          5.4120   19.3810   -0.3200 C.3       6 GLP5        0.0000 
     87 CA          7.7825   22.0033    0.2007 C.3       3 GLC5        0.0000 
     88 CA          9.2222   19.5957    2.2757 C.3       3 GLC5        0.0000 
     89 CA          7.7560   21.0900    2.0030 C.3       9 GLL5        0.0000 
     90 CA         10.0370   17.8500    2.5540 C.3       6 GLP5        0.0000 
     91 CA          8.9211   22.4622    0.1827 C.3       3 GLC5        0.0000 
     92 CA         11.2253   26.9060    7.2468 C.3       3 GLC5        0.0000 
     93 CA          9.2550   25.5670    7.5570 C.3       9 GLL5        0.0000 
     94 CA         12.5250   28.3910    6.5740 C.3       6 GLP5        0.0000 
     95 CA          7.1963   28.5228   -0.5978 C.3       3 GLC5        0.0000 
     96 CA          7.0240   27.0120    0.7840 C.3       9 GLL5        0.0000 
     97 CA          7.5610   30.4110   -1.1950 C.3       6 GLP5        0.0000 
     98 CA         16.2247   21.6351    9.9662 C.3       3 GLC5        0.0000 
     99 CA         17.1170   22.4880   11.3740 C.3       6 GLP5        0.0000 
    100 CA          7.3726   21.6069    3.7078 C.3       3 GLC5        0.0000 
    101 CA          7.1430   21.0490    5.3990 C.3       6 GLP5        0.0000 
@<TRIPOS>BOND
@<TRIPOS>SUBSTRUCTURE
     1 ALC1       27 GROUP        1 X    ALC  0     ROOT ALC X 1
     2 SEC2        7 GROUP        1 X    SEC  0     **** SEC X 2
     3 GLC5        1 GROUP        1 X    GLC  0     **** GLC X 6
     4 ALP1       29 GROUP        1 Y    ALP  0     ROOT ALP Y 8
     5 SEP2        9 GROUP        1 Y    SEP  0     **** SEP Y 9
     6 GLP5        3 GROUP        1 Y    GLP  0     **** GLP Y 13
     7 ALL1       28 GROUP        1 Z    ALL  0     ROOT ALL Z 15
     8 SEL2        8 GROUP        1 Z    SEL  0     **** SEL Z 16
     9 GLL5        2 GROUP        1 Z    GLL  0     **** GLL Z 20
@<TRIPOS>SET

