#    Name: 1hxw_RIT_1_ligand
#    Modification time : Tue Mar 25 06:30:58 2014

@<TRIPOS>MOLECULE
1hxw_RIT_1_ligand
   98   101     1     0     0
SMALL
NO_CHARGES


@<TRIPOS>ATOM
      1 C1         16.6620   17.7900    1.4940 C.2       1 RIT301      0.0000 
      2 C2         16.2290   17.9350    2.7840 C.2       1 RIT301      0.0000 
      3 S3         17.3450   17.3240    4.0360 S.3       1 RIT301      0.0000 
      4 C4         18.3160   17.1130    2.5550 C.2       1 RIT301      0.0000 
      5 N5         17.8670   17.3660    1.3770 N.2       1 RIT301      0.0000 
      6 C6         15.0730   18.4170    3.4890 C.3       1 RIT301      0.0000 
      7 O7         15.1860   19.8130    3.7080 O.3       1 RIT301      0.0000 
      8 C10        14.2160   20.6020    4.3390 C.2       1 RIT301      0.0000 
      9 O24        13.1030   20.1700    4.6600 O.2       1 RIT301      0.0000 
     10 N11        14.6500   21.8720    4.5250 N.am      1 RIT301      0.0000 
     11 C12        13.8730   22.9120    5.2280 C.3       1 RIT301      0.0000 
     12 C13        13.5030   24.1400    4.3920 C.3       1 RIT301      0.0000 
     13 C14        12.6720   23.8060    3.1710 C.3       1 RIT301      0.0000 
     14 C15        11.1400   23.5720    3.3150 C.3       1 RIT301      0.0000 
     15 C26        14.2610   23.2430    6.6710 C.3       1 RIT301      0.0000 
     16 C28        14.8160   22.2250    7.5340 C.ar      1 RIT301      0.0000 
     17 C31        13.7990   21.7080    8.3440 C.ar      1 RIT301      0.0000 
     18 C32        14.0980   20.6030    9.1570 C.ar      1 RIT301      0.0000 
     19 C33        15.3740   20.0130    9.1710 C.ar      1 RIT301      0.0000 
     20 C34        16.3920   20.5660    8.3640 C.ar      1 RIT301      0.0000 
     21 C35        16.1150   21.6680    7.5490 C.ar      1 RIT301      0.0000 
     22 O41        14.7540   24.6640    3.9780 O.3       1 RIT301      0.0000 
     23 C44        10.5690   23.5860    1.9290 C.3       1 RIT301      0.0000 
     24 C45         9.2540   22.9780    2.0010 C.ar      1 RIT301      0.0000 
     25 C48         8.1490   23.8450    2.0180 C.ar      1 RIT301      0.0000 
     26 C49         6.8360   23.3350    2.0410 C.ar      1 RIT301      0.0000 
     27 C50         6.6600   21.9490    2.0260 C.ar      1 RIT301      0.0000 
     28 C51         7.7560   21.0900    2.0030 C.ar      1 RIT301      0.0000 
     29 C52         9.0590   21.5930    1.9920 C.ar      1 RIT301      0.0000 
     30 N58        10.4690   24.5540    4.1370 N.am      1 RIT301      0.0000 
     31 N20         7.9060   25.6800    5.5030 N.am      1 RIT301      0.0000 
     32 C19         9.2740   25.5150    5.9960 C.3       1 RIT301      0.0000 
     33 C18         9.9600   24.2980    5.3480 C.2       1 RIT301      0.0000 
     34 O61         9.9680   23.1590    5.8580 O.2       1 RIT301      0.0000 
     35 C62         9.2550   25.5670    7.5570 C.3       1 RIT301      0.0000 
     36 C64        10.5960   25.2750    8.2820 C.3       1 RIT301      0.0000 
     37 C68         8.5650   26.8410    8.0950 C.3       1 RIT301      0.0000 
     38 C21         7.6650   26.5180    4.4810 C.2       1 RIT301      0.0000 
     39 N74         6.4230   26.4000    3.9580 N.am      1 RIT301      0.0000 
     40 C75         5.9690   27.3450    2.9380 C.3       1 RIT301      0.0000 
     41 O76         8.4710   27.4270    4.1920 O.2       1 RIT301      0.0000 
     42 C77         5.9100   26.8490    1.5590 C.2       1 RIT301      0.0000 
     43 C80         7.0240   27.0120    0.7840 C.2       1 RIT301      0.0000 
     44 S81         6.6390   26.2570   -0.7850 S.3       1 RIT301      0.0000 
     45 C82         5.0870   25.7360   -0.1240 C.2       1 RIT301      0.0000 
     46 N83         4.8710   26.2630    1.0440 N.2       1 RIT301      0.0000 
     47 C85         4.4970   24.8860   -1.0460 C.3       1 RIT301      0.0000 
     48 C86         4.1390   25.1310   -2.5060 C.3       1 RIT301      0.0000 
     49 C90         3.2450   24.3730   -0.4620 C.3       1 RIT301      0.0000 
     50 C95         5.4840   25.5080    4.2400 C.3       1 RIT301      0.0000 
     51 H          16.0435   18.0125    0.7193 H         1 RIT301      0.0000 
     52 H          19.2336   16.7709    2.8659 H         1 RIT301      0.0000 
     53 H          14.9710   17.8794    4.4523 H         1 RIT301      0.0000 
     54 H          14.1578   18.1875    2.9083 H         1 RIT301      0.0000 
     55 H          15.5858   22.1828    4.1671 H         1 RIT301      0.0000 
     56 H          12.7888   22.3970    5.3788 H         1 RIT301      0.0000 
     57 H          12.9868   24.8310    5.0165 H         1 RIT301      0.0000 
     58 H          13.1051   22.8901    2.6744 H         1 RIT301      0.0000 
     59 H          12.8156   24.6165    2.3992 H         1 RIT301      0.0000 
     60 H          11.0102   22.5679    3.7132 H         1 RIT301      0.0000 
     61 H          13.3376   23.7034    7.1593 H         1 RIT301      0.0000 
     62 H          14.9693   24.1367    6.6211 H         1 RIT301      0.0000 
     63 H          12.8740   22.1170    8.3455 H         1 RIT301      0.0000 
     64 H          13.3558   20.2096    9.7658 H         1 RIT301      0.0000 
     65 H          15.5632   19.2021    9.7512 H         1 RIT301      0.0000 
     66 H          17.3293   20.1566    8.3797 H         1 RIT301      0.0000 
     67 H          16.8467   22.0753    6.9621 H         1 RIT301      0.0000 
     68 H          11.2233   23.0232    1.2701 H         1 RIT301      0.0000 
     69 H          10.5053   24.6129    1.5819 H         1 RIT301      0.0000 
     70 H           8.2979   24.8617    2.0136 H         1 RIT301      0.0000 
     71 H           6.0413   23.9630    2.0678 H         1 RIT301      0.0000 
     72 H           5.7039   21.5583    2.0321 H         1 RIT301      0.0000 
     73 H           7.6054   20.0685    1.9939 H         1 RIT301      0.0000 
     74 H           9.8580   20.9596    1.9776 H         1 RIT301      0.0000 
     75 H          10.3980   25.5224    3.7166 H         1 RIT301      0.0000 
     76 H           7.1757   25.1369    5.9695 H         1 RIT301      0.0000 
     77 H           9.8493   26.4243    5.6712 H         1 RIT301      0.0000 
     78 H           8.5519   24.7122    7.8722 H         1 RIT301      0.0000 
     79 H           6.6252   28.2624    2.9682 H         1 RIT301      0.0000 
     80 H           4.9523   27.7391    3.2280 H         1 RIT301      0.0000 
     81 H           7.8330   27.3572    0.8175 H         1 RIT301      0.0000 
     82 H           5.1285   23.8898   -1.0869 H         1 RIT301      0.0000 
     83 H          10.9402   24.3599    8.0718 H         1 RIT301      0.0000 
     84 H          11.3096   25.9242    8.0187 H         1 RIT301      0.0000 
     85 H          10.5008   25.3312    9.2759 H         1 RIT301      0.0000 
     86 H           8.5561   26.8646    9.0947 H         1 RIT301      0.0000 
     87 H           9.0273   27.6723    7.7863 H         1 RIT301      0.0000 
     88 H           7.6142   26.9046    7.7918 H         1 RIT301      0.0000 
     89 H           4.9439   25.3640   -3.0517 H         1 RIT301      0.0000 
     90 H           3.7230   24.3248   -2.9267 H         1 RIT301      0.0000 
     91 H           3.4882   25.8834   -2.6076 H         1 RIT301      0.0000 
     92 H           3.4095   23.8715    0.3873 H         1 RIT301      0.0000 
     93 H           2.6055   25.1112   -0.2473 H         1 RIT301      0.0000 
     94 H           2.7734   23.7485   -1.0845 H         1 RIT301      0.0000 
     95 H           5.7926   24.5741    4.0592 H         1 RIT301      0.0000 
     96 H           5.2125   25.5460    5.2017 H         1 RIT301      0.0000 
     97 H           4.6576   25.6541    3.6962 H         1 RIT301      0.0000 
     98 H          15.0570   24.0590    3.2417 H         1 RIT301      0.0000 
@<TRIPOS>BOND
     1    2    1 2    
     2    5    1 1    
     3   51    1 1    
     4    3    2 1    
     5    6    2 1    
     6    4    3 1    
     7    5    4 2    
     8   52    4 1    
     9    7    6 1    
    10   53    6 1    
    11   54    6 1    
    12    8    7 1    
    13    9    8 2    
    14   10    8 am   
    15   11   10 1    
    16   55   10 1    
    17   12   11 1    
    18   15   11 1    
    19   56   11 1    
    20   13   12 1    
    21   22   12 1    
    22   57   12 1    
    23   14   13 1    
    24   58   13 1    
    25   59   13 1    
    26   23   14 1    
    27   30   14 1    
    28   60   14 1    
    29   16   15 1    
    30   61   15 1    
    31   62   15 1    
    32   17   16 ar   
    33   21   16 ar   
    34   18   17 ar   
    35   63   17 1    
    36   19   18 ar   
    37   64   18 1    
    38   20   19 ar   
    39   65   19 1    
    40   21   20 ar   
    41   66   20 1    
    42   67   21 1    
    43   98   22 1    
    44   24   23 1    
    45   68   23 1    
    46   69   23 1    
    47   25   24 ar   
    48   29   24 ar   
    49   26   25 ar   
    50   70   25 1    
    51   27   26 ar   
    52   71   26 1    
    53   28   27 ar   
    54   72   27 1    
    55   29   28 ar   
    56   73   28 1    
    57   74   29 1    
    58   33   30 am   
    59   75   30 1    
    60   32   31 1    
    61   38   31 am   
    62   76   31 1    
    63   33   32 1    
    64   35   32 1    
    65   77   32 1    
    66   34   33 2    
    67   36   35 1    
    68   37   35 1    
    69   78   35 1    
    70   83   36 1    
    71   84   36 1    
    72   85   36 1    
    73   86   37 1    
    74   87   37 1    
    75   88   37 1    
    76   39   38 am   
    77   41   38 2    
    78   40   39 1    
    79   50   39 1    
    80   42   40 1    
    81   79   40 1    
    82   80   40 1    
    83   43   42 2    
    84   46   42 1    
    85   44   43 1    
    86   81   43 1    
    87   45   44 1    
    88   46   45 2    
    89   47   45 1    
    90   48   47 1    
    91   49   47 1    
    92   82   47 1    
    93   89   48 1    
    94   90   48 1    
    95   91   48 1    
    96   92   49 1    
    97   93   49 1    
    98   94   49 1    
    99   95   50 1    
   100   96   50 1    
   101   97   50 1    
@<TRIPOS>SUBSTRUCTURE
     1 RIT301      1 GROUP   
@<TRIPOS>SET

