#    Name: 4HNH_3_CAVITY_N1_ALL.mol2
#    Modification time : Tue Mar 11 02:48:42 2014

@<TRIPOS>MOLECULE
4HNH_3_CAVITY_N1_ALL.mol2
   94     0     6     0     0
SMALL
NO_CHARGES


@<TRIPOS>ATOM
      1 CA        -15.2040   24.8650  -31.3145 C.3       5 GLY6        0.0000 
      2 DU        -15.6409   26.2686  -31.6133 H         6 CUB7        0.0000 
      3 CZ        -17.0497   25.7896  -31.8029 C.ar      4 PHE5        0.0000 
      4 NZ        -11.2505   26.5272  -29.2879 N.2       3 LYS4        0.0000 
      5 DU        -11.6874   27.9307  -29.5867 H         6 CUB7        0.0000 
      6 CZ        -12.2223   24.6447  -29.1789 C.ar      4 PHE5        0.0000 
      7 OG        -12.6593   26.0482  -29.4776 O.2       1 SER1        0.0000 
      8 DU        -13.0962   27.4517  -29.7763 H         6 CUB7        0.0000 
      9 OG        -14.0680   25.5693  -29.6672 O.2       1 SER1        0.0000 
     10 DU        -14.5050   26.9728  -29.9660 H         6 CUB7        0.0000 
     11 DU        -14.9419   28.3763  -30.2647 H         6 CUB7        0.0000 
     12 OG        -15.4768   25.0904  -29.8569 O.2       1 SER1        0.0000 
     13 DU        -15.9137   26.4939  -30.1556 H         6 CUB7        0.0000 
     14 DU        -16.3507   27.8974  -30.4543 H         6 CUB7        0.0000 
     15 O         -16.7876   29.3009  -30.7531 O.2       2 ALA2        0.0000 
     16 CA        -16.8856   24.6114  -30.0465 C.3       5 GLY6        0.0000 
     17 CZ        -17.3225   26.0150  -30.3452 C.ar      4 PHE5        0.0000 
     18 CZ        -17.7594   27.4185  -30.6440 C.ar      4 PHE5        0.0000 
     19 CZ        -18.1964   28.8220  -30.9427 C.ar      4 PHE5        0.0000 
     20 CA         -7.7339   29.5928  -27.5601 C.3       5 GLY6        0.0000 
     21 NZ         -8.7057   27.7103  -27.4510 N.2       3 LYS4        0.0000 
     22 DU         -9.1427   29.1138  -27.7497 H         6 CUB7        0.0000 
     23 O          -9.5796   30.5174  -28.0485 O.2       2 ALA2        0.0000 
     24 NZ        -10.1145   27.2314  -27.6406 N.2       3 LYS4        0.0000 
     25 DU        -10.5514   28.6349  -27.9394 H         6 CUB7        0.0000 
     26 O         -10.9884   30.0384  -28.2381 O.2       2 ALA2        0.0000 
     27 NZ        -11.5233   26.7525  -27.8303 N.2       3 LYS4        0.0000 
     28 DU        -11.9602   28.1560  -28.1290 H         6 CUB7        0.0000 
     29 O         -12.3971   29.5595  -28.4277 O.2       2 ALA2        0.0000 
     30 OG        -12.9321   26.2736  -28.0199 O.2       1 SER1        0.0000 
     31 DU        -13.3690   27.6771  -28.3187 H         6 CUB7        0.0000 
     32 O         -13.8059   29.0806  -28.6174 O.2       2 ALA2        0.0000 
     33 OG        -14.3409   25.7946  -28.2096 O.2       1 SER1        0.0000 
     34 DU        -14.7778   27.1981  -28.5083 H         6 CUB7        0.0000 
     35 CA        -15.2147   28.6017  -28.8070 C.3       5 GLY6        0.0000 
     36 OG        -15.7496   25.3157  -28.3992 O.2       1 SER1        0.0000 
     37 DU        -16.1866   26.7192  -28.6979 H         6 CUB7        0.0000 
     38 DU        -16.6235   28.1227  -28.9967 H         6 CUB7        0.0000 
     39 CA        -17.0604   29.5263  -29.2954 C.3       5 GLY6        0.0000 
     40 CA        -17.1584   24.8368  -28.5888 C.3       5 GLY6        0.0000 
     41 CZ        -17.5953   26.2403  -28.8876 C.ar      4 PHE5        0.0000 
     42 CZ        -18.0323   27.6438  -29.1863 C.ar      4 PHE5        0.0000 
     43 O         -18.4692   29.0473  -29.4850 O.2       2 ALA2        0.0000 
     44 N          -8.0067   29.8181  -26.1024 N.2       2 ALA2        0.0000 
     45 N          -8.9786   27.9357  -25.9933 N.2       2 ALA2        0.0000 
     46 N          -9.4155   29.3392  -26.2921 N.2       2 ALA2        0.0000 
     47 O          -9.8524   30.7427  -26.5908 O.2       2 ALA2        0.0000 
     48 N         -10.3873   27.4567  -26.1830 N.2       2 ALA2        0.0000 
     49 N         -10.8243   28.8603  -26.4817 N.2       2 ALA2        0.0000 
     50 DU        -11.2612   30.2638  -26.7804 H         6 CUB7        0.0000 
     51 CA        -11.6981   31.6673  -27.0792 C.3       5 GLY6        0.0000 
     52 NZ        -11.3592   25.5743  -26.0739 N.2       3 LYS4        0.0000 
     53 NZ        -11.7961   26.9778  -26.3726 N.2       3 LYS4        0.0000 
     54 DU        -12.2330   28.3813  -26.6713 H         6 CUB7        0.0000 
     55 CA        -12.6700   29.7848  -26.9701 C.3       5 GLY6        0.0000 
     56 O         -13.1069   31.1884  -27.2688 O.2       2 ALA2        0.0000 
     57 OG        -13.2049   26.4989  -26.5623 O.2       1 SER1        0.0000 
     58 CA        -13.6418   27.9024  -26.8610 C.3       5 GLY6        0.0000 
     59 CA        -14.0787   29.3059  -27.1597 C.3       5 GLY6        0.0000 
     60 OG        -14.6137   26.0200  -26.7519 O.2       1 SER1        0.0000 
     61 CA        -15.0506   27.4235  -27.0506 C.3       5 GLY6        0.0000 
     62 CA        -16.0225   25.5410  -26.9415 C.3       5 GLY6        0.0000 
     63 CA        -16.4594   26.9445  -27.2403 C.3       5 GLY6        0.0000 
     64 CA        -16.8963   28.3481  -27.5390 C.3       5 GLY6        0.0000 
     65 CA        -17.8682   26.4656  -27.4299 C.3       5 GLY6        0.0000 
     66 O         -18.3051   27.8691  -27.7286 O.2       2 ALA2        0.0000 
     67 O         -10.1252   30.9680  -25.1331 O.2       2 ALA2        0.0000 
     68 CA        -10.2232   26.2785  -24.4266 C.3       5 GLY6        0.0000 
     69 N         -10.6602   27.6821  -24.7253 N.2       2 ALA2        0.0000 
     70 N         -11.0971   29.0856  -25.0240 N.2       2 ALA2        0.0000 
     71 CA        -11.5340   30.4891  -25.3228 C.3       5 GLY6        0.0000 
     72 O         -11.9709   31.8926  -25.6215 O.2       2 ALA2        0.0000 
     73 N         -11.6320   25.7996  -24.6162 N.2       2 ALA2        0.0000 
     74 DU        -12.0689   27.2031  -24.9149 H         6 CUB7        0.0000 
     75 CA        -12.5059   28.6067  -25.2137 C.3       5 GLY6        0.0000 
     76 CA        -12.9428   30.0102  -25.5124 C.3       5 GLY6        0.0000 
     77 OG        -13.0408   25.3207  -24.8059 O.2       1 SER1        0.0000 
     78 DU        -13.4777   26.7242  -25.1046 H         6 CUB7        0.0000 
     79 CA        -13.9146   28.1277  -25.4033 C.3       5 GLY6        0.0000 
     80 OG        -14.4496   24.8418  -24.9955 O.2       1 SER1        0.0000 
     81 OG        -14.8865   26.2453  -25.2942 O.2       1 SER1        0.0000 
     82 CA        -15.3234   27.6488  -25.5930 C.3       5 GLY6        0.0000 
     83 CA        -16.2953   25.7664  -25.4839 C.3       5 GLY6        0.0000 
     84 CA        -16.7322   27.1699  -25.7826 C.3       5 GLY6        0.0000 
     85 N         -18.1410   26.6909  -25.9722 N.2       2 ALA2        0.0000 
     86 CA        -11.3699   29.3109  -23.5664 C.3       5 GLY6        0.0000 
     87 CA        -12.3418   27.4285  -23.4573 C.3       5 GLY6        0.0000 
     88 CA        -12.7787   28.8320  -23.7560 C.3       5 GLY6        0.0000 
     89 N         -13.3136   25.5460  -23.3482 N.2       2 ALA2        0.0000 
     90 CA        -13.7505   26.9495  -23.6469 C.3       5 GLY6        0.0000 
     91 CA        -14.1875   28.3531  -23.9457 C.3       5 GLY6        0.0000 
     92 N         -15.1593   26.4706  -23.8366 N.2       2 ALA2        0.0000 
     93 CA        -15.5962   27.8741  -24.1353 C.3       5 GLY6        0.0000 
     94 N         -16.5681   25.9917  -24.0262 N.2       2 ALA2        0.0000 
@<TRIPOS>BOND
@<TRIPOS>SUBSTRUCTURE
     1 SER1        7 GROUP   
     2 ALA2       15 GROUP   
     3 LYS4        4 GROUP   
     4 PHE5        3 GROUP   
     5 GLY6        1 GROUP   
     6 CUB7        2 GROUP   
@<TRIPOS>SET

