#    Name: 4hnh_NAP_3_INTS_M
#    Modification time : Tue Mar 25 01:29:06 2014

@<TRIPOS>MOLECULE
4hnh_NAP_3_INTS_M
   95     0    12     0     0
SMALL
NO_CHARGES


@<TRIPOS>ATOM
      1 N          -9.5080   32.5645  -28.1195 N.am      2 SEC2        0.0000 
      2 N          -9.8740   31.3720  -29.0290 N.am     10 SEL2        0.0000 
      3 N          -9.1420   33.7570  -27.2100 N.am      6 SEP2        0.0000 
      4 N         -11.0320   31.9245  -29.7160 N.am      2 SEC2        0.0000 
      5 N         -12.1900   32.4770  -30.4030 N.am      6 SEP2        0.0000 
      6 CA         -3.5350   28.9060  -25.8140 C.3       4 GLC5        0.0000 
      7 CA         -4.3550   27.8540  -27.3580 C.3      12 GLL5        0.0000 
      8 CA         -2.7150   29.9580  -24.2700 C.3       8 GLP5        0.0000 
      9 CA         -5.6900   26.6925  -26.1080 C.3       4 GLC5        0.0000 
     10 CA         -7.0250   25.5310  -24.8580 C.3       8 GLP5        0.0000 
     11 CA         -0.1260   23.6230  -25.6200 C.3       4 GLC5        0.0000 
     12 CA         -0.9520   24.3240  -27.1970 C.3      12 GLL5        0.0000 
     13 CA          0.7000   22.9220  -24.0430 C.3       8 GLP5        0.0000 
     14 O          -1.3525   21.6560  -26.8930 O.2       1 ALC1        0.0000 
     15 O          -0.7380   22.9390  -27.2050 O.2       9 ALL1        0.0000 
     16 O          -1.9670   20.3730  -26.5810 O.2       5 ALP1        0.0000 
     17 N           1.1950   24.6580  -26.3040 N.am      2 SEC2        0.0000 
     18 N           0.0800   25.1780  -27.1320 N.am     10 SEL2        0.0000 
     19 N           2.3100   24.1380  -25.4760 N.am      6 SEP2        0.0000 
     20 CA          0.9755   27.3495  -28.8815 C.3       4 GLC5        0.0000 
     21 CA         -0.0960   26.4950  -27.1220 C.3      12 GLL5        0.0000 
     22 CA          2.0470   28.2040  -30.6410 C.3       8 GLP5        0.0000 
     23 CA          1.7065   26.0065  -27.0935 C.3       4 GLC5        0.0000 
     24 CA          3.5090   25.5180  -27.0650 C.3       8 GLP5        0.0000 
     25 NZ        -13.7305   32.4500  -27.3545 N.4       3 LYC4        0.0000 
     26 NZ        -12.8220   31.3440  -27.2110 N.4      11 LYL4        0.0000 
     27 NZ        -15.3740   33.5340  -28.6050 N.4       7 LYP4        0.0000 
     28 N         -13.7305   32.4500  -27.3545 N.am      2 SEC2        0.0000 
     29 N         -12.8220   31.3440  -27.2110 N.am     10 SEL2        0.0000 
     30 N         -14.6390   33.5560  -27.4980 N.am      6 SEP2        0.0000 
     31 N         -10.8035   32.9280  -25.3485 N.am      2 SEC2        0.0000 
     32 N         -10.8510   31.5970  -25.7410 N.am     10 SEL2        0.0000 
     33 N         -10.7560   34.2590  -24.9560 N.am      6 SEP2        0.0000 
     34 CA        -12.6725   30.3920  -23.7275 C.3       4 GLC5        0.0000 
     35 CA        -11.5760   28.9310  -24.5280 C.3      12 GLL5        0.0000 
     36 CA        -13.7690   31.8530  -22.9270 C.3       8 GLP5        0.0000 
     37 CA         -9.4450   26.2170  -24.7105 C.3       4 GLC5        0.0000 
     38 CA        -11.2010   26.8460  -25.9200 C.3      12 GLL5        0.0000 
     39 CA         -7.6890   25.5880  -23.5010 C.3       8 GLP5        0.0000 
     40 N         -10.8585   24.8425  -24.6715 N.am      2 SEC2        0.0000 
     41 N         -10.5400   25.6760  -25.6820 N.am     10 SEL2        0.0000 
     42 N         -11.1770   24.0090  -23.6610 N.am      6 SEP2        0.0000 
     43 O          -9.9025   25.1385  -26.7385 O.2       1 ALC1        0.0000 
     44 O         -10.5400   25.6760  -25.6820 O.2       9 ALL1        0.0000 
     45 O          -9.2650   24.6010  -27.7950 O.2       5 ALP1        0.0000 
     46 N         -13.0785   24.5150  -27.4735 N.am      2 SEC2        0.0000 
     47 N         -12.3350   25.7050  -27.6890 N.am     10 SEL2        0.0000 
     48 N         -13.8220   23.3250  -27.2580 N.am      6 SEP2        0.0000 
     49 O         -10.8000   25.1530  -27.7420 O.2       1 ALC1        0.0000 
     50 O         -12.3350   25.7050  -27.6890 O.2       9 ALL1        0.0000 
     51 N         -19.0575   29.2970  -27.9230 N.am      2 SEC2        0.0000 
     52 N         -18.1460   28.4060  -28.6170 N.am     10 SEL2        0.0000 
     53 N         -19.9690   30.1880  -27.2290 N.am      6 SEP2        0.0000 
     54 CA        -19.5275   27.6315  -26.5235 C.3       4 GLC5        0.0000 
     55 CA        -17.5820   26.9360  -26.2330 C.3      12 GLL5        0.0000 
     56 CA        -21.4730   28.3270  -26.8140 C.3       8 GLP5        0.0000 
     57 CA        -17.4925   28.7525  -25.8990 C.3       4 GLC5        0.0000 
     58 CA        -17.4030   30.5690  -25.5650 C.3       8 GLP5        0.0000 
     59 NZ         -2.7685   26.5500  -31.1590 N.4       3 LYC4        0.0000 
     60 NZ         -3.8010   27.4430  -31.7470 N.4      11 LYL4        0.0000 
     61 NZ         -0.4470   25.8160  -30.8260 N.4       7 LYP4        0.0000 
     62 N          -2.7685   26.5500  -31.1590 N.am      2 SEC2        0.0000 
     63 N          -3.8010   27.4430  -31.7470 N.am     10 SEL2        0.0000 
     64 N          -1.7360   25.6570  -30.5710 N.am      6 SEP2        0.0000 
     65 NZ         -4.0105   31.1160  -31.9025 N.4       3 LYC4        0.0000 
     66 NZ         -4.3480   29.8320  -31.5910 N.4      11 LYL4        0.0000 
     67 NZ         -2.4090   32.7870  -32.1970 N.4       7 LYP4        0.0000 
     68 N          -4.0105   31.1160  -31.9025 N.am      2 SEC2        0.0000 
     69 N          -4.3480   29.8320  -31.5910 N.am     10 SEL2        0.0000 
     70 N          -3.6730   32.4000  -32.2140 N.am      6 SEP2        0.0000 
     71 NZ         -0.9945   28.0250  -31.3430 N.4       3 LYC4        0.0000 
     72 NZ         -1.9860   29.0750  -31.3750 N.4      11 LYL4        0.0000 
     73 NZ         -1.7245   30.5255  -31.5515 N.4       3 LYC4        0.0000 
     74 N          -0.9945   28.0250  -31.3430 N.am      2 SEC2        0.0000 
     75 N          -1.9860   29.0750  -31.3750 N.am     10 SEL2        0.0000 
     76 N          -0.0030   26.9750  -31.3110 N.am      6 SEP2        0.0000 
     77 N          -1.7245   30.5255  -31.5515 N.am      2 SEC2        0.0000 
     78 N          -1.4630   31.9760  -31.7280 N.am      6 SEP2        0.0000 
     79 CA         -7.0217   27.2127  -26.0577 C.3       4 GLC5        0.0000 
     80 CA         -6.2890   29.0170  -27.2400 C.3      12 GLL5        0.0000 
     81 CA         -6.6964   30.8829  -27.3594 C.3       4 GLC5        0.0000 
     82 CA         -7.0110   32.6920  -26.7780 C.3       8 GLP5        0.0000 
     83 CA        -11.1872   28.1700  -22.7647 C.3       4 GLC5        0.0000 
     84 CA        -10.7320   28.1760  -20.9620 C.3       8 GLP5        0.0000 
     85 CA        -15.9362   28.7278  -26.4115 C.3       4 GLC5        0.0000 
     86 CA        -15.3060   26.9810  -27.0950 C.3      12 GLL5        0.0000 
     87 CA        -15.8860   30.3680  -25.6260 C.3       8 GLP5        0.0000 
     88 CA        -17.6613   25.2755  -26.4745 C.3       4 GLC5        0.0000 
     89 CA        -16.6670   27.1940  -27.2990 C.3      12 GLL5        0.0000 
     90 CA        -18.1980   23.4860  -26.1830 C.3       8 GLP5        0.0000 
     91 CA        -17.2880   24.9075  -25.5497 C.3       4 GLC5        0.0000 
     92 CA        -17.0430   26.4250  -24.9780 C.3      12 GLL5        0.0000 
     93 CA        -16.9225   27.0795  -23.2933 C.3       4 GLC5        0.0000 
     94 CA        -17.4670   27.8300  -21.6700 C.3       8 GLP5        0.0000 
     95 CA        -16.1320   28.3485  -25.2713 C.3       4 GLC5        0.0000 
@<TRIPOS>BOND
@<TRIPOS>SUBSTRUCTURE
     1 ALC1       14 GROUP        1 X    ALC  0     ROOT ALC X 1
     2 SEC2        1 GROUP        1 X    SEC  0     **** SEC X 2
     3 LYC4       25 GROUP        1 X    LYC  0     **** LYC X 4
     4 GLC5        6 GROUP        1 X    GLC  0     **** GLC X 6
     5 ALP1       16 GROUP        1 Y    ALP  0     ROOT ALP Y 8
     6 SEP2        3 GROUP        1 Y    SEP  0     **** SEP Y 9
     7 LYP4       27 GROUP        1 Y    LYP  0     **** LYP Y 11
     8 GLP5        8 GROUP        1 Y    GLP  0     **** GLP Y 13
     9 ALL1       15 GROUP        1 Z    ALL  0     ROOT ALL Z 15
    10 SEL2        2 GROUP        1 Z    SEL  0     **** SEL Z 16
    11 LYL4       26 GROUP        1 Z    LYL  0     **** LYL Z 18
    12 GLL5        7 GROUP        1 Z    GLL  0     **** GLL Z 20
@<TRIPOS>SET

