#    Name: 4hnh_NAP_3_ligand
#    Modification time : Tue Mar 25 01:29:07 2014

@<TRIPOS>MOLECULE
4hnh_NAP_3_ligand
   73    77     1     0     0
SMALL
NO_CHARGES


@<TRIPOS>ATOM
      1 PA         -9.7250   30.0240  -28.3910 P.3       1 NAP302      0.0000 
      2 O1A        -9.8740   31.3720  -29.0290 O.co2     1 NAP302      0.0000 
      3 O2A        -9.7650   28.9920  -29.4720 O.co2     1 NAP302      0.0000 
      4 O5B        -8.3930   29.9880  -27.5760 O.3       1 NAP302      0.0000 
      5 C5B        -7.7480   28.7720  -27.2750 C.3       1 NAP302      0.0000 
      6 C4B        -6.2890   29.0170  -27.2400 C.3       1 NAP302      0.0000 
      7 O4B        -5.5520   27.9280  -26.6440 O.3       1 NAP302      0.0000 
      8 C3B        -5.7450   29.2530  -28.6240 C.3       1 NAP302      0.0000 
      9 O3B        -5.2300   30.5370  -28.7570 O.3       1 NAP302      0.0000 
     10 C2B        -4.6950   28.1990  -28.7810 C.3       1 NAP302      0.0000 
     11 O2B        -3.5450   28.6480  -29.4640 O.3       1 NAP302      0.0000 
     12 C1B        -4.3550   27.8540  -27.3580 C.3       1 NAP302      0.0000 
     13 N9A        -3.7840   26.5420  -27.3120 N.pl3     1 NAP302      0.0000 
     14 C8A        -4.4530   25.3180  -27.3710 C.2       1 NAP302      0.0000 
     15 N7A        -3.5700   24.3200  -27.3270 N.2       1 NAP302      0.0000 
     16 C5A        -2.2730   24.8660  -27.2540 C.ar      1 NAP302      0.0000 
     17 C6A        -0.9520   24.3240  -27.1970 C.ar      1 NAP302      0.0000 
     18 N6A        -0.7380   22.9390  -27.2050 N.pl3     1 NAP302      0.0000 
     19 N1A         0.0800   25.1780  -27.1320 N.ar      1 NAP302      0.0000 
     20 C2A        -0.0960   26.4950  -27.1220 C.ar      1 NAP302      0.0000 
     21 N3A        -1.3160   27.0670  -27.1870 N.ar      1 NAP302      0.0000 
     22 C4A        -2.3980   26.2910  -27.2450 C.ar      1 NAP302      0.0000 
     23 O3        -10.9190   29.6860  -27.4270 O.3       1 NAP302      0.0000 
     24 PN        -11.7390   30.6440  -26.4650 P.3       1 NAP302      0.0000 
     25 O1N       -12.8220   31.3440  -27.2110 O.co2     1 NAP302      0.0000 
     26 O2N       -10.8510   31.5970  -25.7410 O.co2     1 NAP302      0.0000 
     27 O5D       -12.3880   29.6000  -25.4900 O.3       1 NAP302      0.0000 
     28 C5D       -11.5760   28.9310  -24.5280 C.3       1 NAP302      0.0000 
     29 C4D       -11.7090   27.3970  -24.6070 C.3       1 NAP302      0.0000 
     30 O4D       -13.0290   26.9780  -24.4780 O.3       1 NAP302      0.0000 
     31 C3D       -11.2010   26.8460  -25.9200 C.3       1 NAP302      0.0000 
     32 O3D       -10.5400   25.6760  -25.6820 O.3       1 NAP302      0.0000 
     33 C2D       -12.4620   26.6660  -26.7050 C.3       1 NAP302      0.0000 
     34 O2D       -12.3350   25.7050  -27.6890 O.3       1 NAP302      0.0000 
     35 C1D       -13.3950   26.2540  -25.6280 C.3       1 NAP302      0.0000 
     36 N1N       -14.8430   26.4930  -25.8810 N.pl3     1 NAP302      0.0000 
     37 C2N       -15.3060   26.9810  -27.0950 C.ar      1 NAP302      0.0000 
     38 C3N       -16.6670   27.1940  -27.2990 C.ar      1 NAP302      0.0000 
     39 C7N       -17.1600   27.7070  -28.5830 C.2       1 NAP302      0.0000 
     40 O7N       -18.1460   28.4060  -28.6170 O.2       1 NAP302      0.0000 
     41 N7N       -16.4810   27.3780  -29.8090 N.am      1 NAP302      0.0000 
     42 C4N       -17.5820   26.9360  -26.2330 C.ar      1 NAP302      0.0000 
     43 C5N       -17.0430   26.4250  -24.9780 C.ar      1 NAP302      0.0000 
     44 C6N       -15.7130   26.2330  -24.8550 C.ar      1 NAP302      0.0000 
     45 P2B        -3.4170   28.7450  -31.0510 P.3       1 NAP302      0.0000 
     46 O1X        -3.8010   27.4430  -31.7470 O.co2     1 NAP302      0.0000 
     47 O2X        -4.3480   29.8320  -31.5910 O.co2     1 NAP302      0.0000 
     48 O3X        -1.9860   29.0750  -31.3750 O.co2     1 NAP302      0.0000 
     49 H          -7.9589   28.0042  -28.0301 H         1 NAP302      0.0000 
     50 H          -8.0630   28.3770  -26.3009 H         1 NAP302      0.0000 
     51 H          -6.0995   29.9367  -26.6639 H         1 NAP302      0.0000 
     52 H          -6.5390   29.0332  -29.3218 H         1 NAP302      0.0000 
     53 H          -5.1457   27.3336  -29.2229 H         1 NAP302      0.0000 
     54 H          -3.6471   28.5945  -27.0121 H         1 NAP302      0.0000 
     55 H          -5.4166   25.2426  -27.4341 H         1 NAP302      0.0000 
     56 H          -1.5576   22.3673  -27.2421 H         1 NAP302      0.0000 
     57 H           0.2160   22.6410  -27.1730 H         1 NAP302      0.0000 
     58 H           0.7540   27.1314  -27.0605 H         1 NAP302      0.0000 
     59 H         -11.8378   29.2273  -23.4942 H         1 NAP302      0.0000 
     60 H         -10.5036   29.1716  -24.6590 H         1 NAP302      0.0000 
     61 H         -11.0855   26.9704  -23.8153 H         1 NAP302      0.0000 
     62 H         -10.6196   27.6122  -26.3782 H         1 NAP302      0.0000 
     63 H         -12.7655   27.6309  -27.0534 H         1 NAP302      0.0000 
     64 H         -13.2462   25.1840  -25.4304 H         1 NAP302      0.0000 
     65 H         -14.6380   27.1883  -27.8539 H         1 NAP302      0.0000 
     66 H         -15.6574   26.8180  -29.7192 H         1 NAP302      0.0000 
     67 H         -16.8896   27.7368  -30.6482 H         1 NAP302      0.0000 
     68 H         -18.5603   27.0956  -26.3300 H         1 NAP302      0.0000 
     69 H         -17.7074   26.2289  -24.2272 H         1 NAP302      0.0000 
     70 H         -15.3231   25.8725  -23.9461 H         1 NAP302      0.0000 
     71 H          -5.0918   30.6598  -29.7397 H         1 NAP302      0.0000 
     72 H         -10.1650   25.4058  -26.5687 H         1 NAP302      0.0000 
     73 H         -11.3859   25.3961  -27.6280 H         1 NAP302      0.0000 
@<TRIPOS>BOND
     1    2    1 ar   
     2    3    1 ar   
     3    4    1 1    
     4   23    1 1    
     5    5    4 1    
     6    6    5 1    
     7   49    5 1    
     8   50    5 1    
     9    7    6 1    
    10    8    6 1    
    11   51    6 1    
    12   12    7 1    
    13    9    8 1    
    14   10    8 1    
    15   52    8 1    
    16   71    9 1    
    17   11   10 1    
    18   12   10 1    
    19   53   10 1    
    20   45   11 1    
    21   13   12 1    
    22   54   12 1    
    23   14   13 1    
    24   22   13 1    
    25   15   14 2    
    26   55   14 1    
    27   16   15 1    
    28   17   16 ar   
    29   22   16 ar   
    30   18   17 1    
    31   19   17 ar   
    32   56   18 1    
    33   57   18 1    
    34   20   19 ar   
    35   21   20 ar   
    36   58   20 1    
    37   22   21 ar   
    38   24   23 1    
    39   25   24 ar   
    40   26   24 ar   
    41   27   24 1    
    42   28   27 1    
    43   29   28 1    
    44   59   28 1    
    45   60   28 1    
    46   30   29 1    
    47   31   29 1    
    48   61   29 1    
    49   35   30 1    
    50   32   31 1    
    51   33   31 1    
    52   62   31 1    
    53   72   32 1    
    54   34   33 1    
    55   35   33 1    
    56   63   33 1    
    57   73   34 1    
    58   36   35 1    
    59   64   35 1    
    60   37   36 ar   
    61   44   36 ar   
    62   38   37 ar   
    63   65   37 1    
    64   39   38 1    
    65   42   38 ar   
    66   40   39 2    
    67   41   39 am   
    68   66   41 1    
    69   67   41 1    
    70   43   42 ar   
    71   68   42 1    
    72   44   43 ar   
    73   69   43 1    
    74   70   44 1    
    75   46   45 ar   
    76   47   45 ar   
    77   48   45 ar   
@<TRIPOS>SUBSTRUCTURE
     1 NAP302      1 GROUP   
@<TRIPOS>SET

