#    Name: 2bo7_GDP_1_INTS_M
#    Modification time : Mon Mar 24 21:14:56 2014

@<TRIPOS>MOLECULE
2bo7_GDP_1_INTS_M
   50     0    15     0     0
SMALL
NO_CHARGES


@<TRIPOS>ATOM
      1 Zn         89.5470   35.3400   22.9170 Zn        4 ZIC7        0.0000 
      2 Zn         90.0380   35.0360   22.2830 Zn       14 ZIL7        0.0000 
      3 Zn         89.0560   35.6440   23.5510 Zn        9 ZIP7        0.0000 
      4 Zn         89.5930   35.0960   24.2210 Zn        4 ZIC7        0.0000 
      5 Zn         90.1300   34.5480   24.8910 Zn       14 ZIL7        0.0000 
      6 NZ         91.6310   35.1420   26.9175 N.4       3 LYC4        0.0000 
      7 NZ         92.4360   34.3880   25.9440 N.4      13 LYL4        0.0000 
      8 NZ         90.7650   37.1880   28.2400 N.4       8 LYP4        0.0000 
      9 N          91.6310   35.1420   26.9175 N.am      2 SEC2        0.0000 
     10 N          92.4360   34.3880   25.9440 N.am     12 SEL2        0.0000 
     11 N          90.8260   35.8960   27.8910 N.am      7 SEP2        0.0000 
     12 CA         92.6570   31.5545   24.4460 C.3       5 GLC5        0.0000 
     13 CA         90.4700   31.4170   24.4540 C.3      15 GLL5        0.0000 
     14 CA         94.8440   31.6920   24.4380 C.3      10 GLP5        0.0000 
     15 N          86.7505   30.7670   26.8175 N.am      2 SEC2        0.0000 
     16 N          88.1100   30.9260   27.1190 N.am     12 SEL2        0.0000 
     17 N          85.3910   30.6080   26.5160 N.am      7 SEP2        0.0000 
     18 O          88.0485   29.6625   27.7165 O.2       1 ALC1        0.0000 
     19 O          88.1100   30.9260   27.1190 O.2      11 ALL1        0.0000 
     20 O          87.9870   28.3990   28.3140 O.2       6 ALP1        0.0000 
     21 N          90.2870   30.8475   30.3135 N.am      2 SEC2        0.0000 
     22 N          89.8930   31.5410   29.0370 N.am     12 SEL2        0.0000 
     23 N          90.6810   30.1540   31.5900 N.am      7 SEP2        0.0000 
     24 O          89.3360   32.4375   29.5880 O.2       1 ALC1        0.0000 
     25 O          89.8930   31.5410   29.0370 O.2      11 ALL1        0.0000 
     26 O          88.7790   33.3340   30.1390 O.2       6 ALP1        0.0000 
     27 CA         94.6245   27.1845   27.6665 C.3       5 GLC5        0.0000 
     28 CA         94.0530   28.6260   28.8260 C.3      15 GLL5        0.0000 
     29 CA         95.1960   25.7430   26.5070 C.3      10 GLP5        0.0000 
     30 O          93.9925   25.5015   30.8605 O.2       1 ALC1        0.0000 
     31 O          93.8820   26.6390   30.1480 O.2      11 ALL1        0.0000 
     32 O          94.1030   24.3640   31.5730 O.2       6 ALP1        0.0000 
     33 O          92.9370   25.0215   31.0640 O.2       1 ALC1        0.0000 
     34 O          91.7710   25.6790   30.5550 O.2      11 ALL1        0.0000 
     35 O          90.3890   25.4365   31.0775 O.2       1 ALC1        0.0000 
     36 O          89.0070   25.1940   31.6000 O.2       6 ALP1        0.0000 
     37 CA         90.6755   28.7455   29.7705 C.3       5 GLC5        0.0000 
     38 CA         92.5950   28.5860   28.6840 C.3      15 GLL5        0.0000 
     39 CA         88.7560   28.9050   30.8570 C.3      10 GLP5        0.0000 
     40 CA         92.9375   27.6415   26.9120 C.3       5 GLC5        0.0000 
     41 CA         93.2800   26.6970   25.1400 C.3      10 GLP5        0.0000 
     42 CA         90.8305   29.1657   24.2583 C.3       5 GLC5        0.0000 
     43 CA         89.8340   30.5860   25.5650 C.3      15 GLL5        0.0000 
     44 CA         91.5090   27.3300   23.5070 C.3      10 GLP5        0.0000 
     45 CA         88.1445   31.2319   24.6624 C.3       5 GLC5        0.0000 
     46 CA         86.5370   31.2210   23.4770 C.3      10 GLP5        0.0000 
     47 CA         89.7040   29.7752   29.2527 C.3       5 GLC5        0.0000 
     48 CA         90.4260   31.3610   27.7500 C.3      15 GLL5        0.0000 
     49 CA         93.1680   29.7145   30.1945 C.3       5 GLC5        0.0000 
     50 CA         93.0120   30.8230   31.6340 C.3      10 GLP5        0.0000 
@<TRIPOS>BOND
@<TRIPOS>SUBSTRUCTURE
     1 ALC1       18 GROUP        1 X    ALC  0     ROOT ALC X 1
     2 SEC2        9 GROUP        1 X    SEC  0     **** SEC X 2
     3 LYC4        6 GROUP        1 X    LYC  0     **** LYC X 4
     4 ZIC7        1 GROUP        1 X    ZIC  0     **** ZIC X 5
     5 GLC5       12 GROUP        1 X    GLC  0     **** GLC X 6
     6 ALP1       20 GROUP        1 Y    ALP  0     ROOT ALP Y 8
     7 SEP2       11 GROUP        1 Y    SEP  0     **** SEP Y 9
     8 LYP4        8 GROUP        1 Y    LYP  0     **** LYP Y 11
     9 ZIP7        3 GROUP        1 Y    ZIP  0     **** ZIP Y 12
    10 GLP5       14 GROUP        1 Y    GLP  0     **** GLP Y 13
    11 ALL1       19 GROUP        1 Z    ALL  0     ROOT ALL Z 15
    12 SEL2       10 GROUP        1 Z    SEL  0     **** SEL Z 16
    13 LYL4        7 GROUP        1 Z    LYL  0     **** LYL Z 18
    14 ZIL7        2 GROUP        1 Z    ZIL  0     **** ZIL Z 19
    15 GLL5       13 GROUP        1 Z    GLL  0     **** GLL Z 20
@<TRIPOS>SET

