#    Name: 2bo7_GDP_1_ligand
#    Modification time : Mon Mar 24 21:14:56 2014

@<TRIPOS>MOLECULE
2bo7_GDP_1_ligand
   40    42     1     0     0
SMALL
NO_CHARGES


@<TRIPOS>ATOM
      1 PB         91.4510   34.4790   22.1270 P.3       1 GDP1383     0.0000 
      2 O1B        91.4030   33.3130   21.1300 O.co2     1 GDP1383     0.0000 
      3 O2B        92.4440   35.5640   21.6540 O.co2     1 GDP1383     0.0000 
      4 O3B        90.0380   35.0360   22.2830 O.co2     1 GDP1383     0.0000 
      5 O3A        92.1610   33.9270   23.4690 O.3       1 GDP1383     0.0000 
      6 PA         91.4860   33.8690   24.8610 P.3       1 GDP1383     0.0000 
      7 O1A        90.1300   34.5480   24.8910 O.co2     1 GDP1383     0.0000 
      8 O2A        92.4360   34.3880   25.9440 O.co2     1 GDP1383     0.0000 
      9 O5'        91.4560   32.2780   25.0050 O.3       1 GDP1383     0.0000 
     10 C5'        90.4700   31.4170   24.4540 C.3       1 GDP1383     0.0000 
     11 C4'        89.8340   30.5860   25.5650 C.3       1 GDP1383     0.0000 
     12 O4'        90.7780   29.6810   26.1270 O.3       1 GDP1383     0.0000 
     13 C3'        89.3520   31.4840   26.6860 C.3       1 GDP1383     0.0000 
     14 O3'        88.1100   30.9260   27.1190 O.3       1 GDP1383     0.0000 
     15 C2'        90.4260   31.3610   27.7500 C.3       1 GDP1383     0.0000 
     16 O2'        89.8930   31.5410   29.0370 O.3       1 GDP1383     0.0000 
     17 C1'        90.8780   29.9300   27.5470 C.3       1 GDP1383     0.0000 
     18 N9         92.2600   29.6490   27.9640 N.pl3     1 GDP1383     0.0000 
     19 C8         93.3770   30.3300   27.6280 C.2       1 GDP1383     0.0000 
     20 N7         94.4690   29.7220   28.1740 N.2       1 GDP1383     0.0000 
     21 C5         94.0530   28.6260   28.8260 C.2       1 GDP1383     0.0000 
     22 C6         94.6880   27.5750   29.6220 C.2       1 GDP1383     0.0000 
     23 O6         95.9220   27.6080   29.8130 O.2       1 GDP1383     0.0000 
     24 N1         93.8820   26.6390   30.1480 N.am      1 GDP1383     0.0000 
     25 C2         92.5350   26.6400   29.9800 C.2       1 GDP1383     0.0000 
     26 N2         91.7710   25.6790   30.5550 N.pl3     1 GDP1383     0.0000 
     27 N3         91.8990   27.5950   29.2600 N.2       1 GDP1383     0.0000 
     28 C4         92.5950   28.5860   28.6840 C.2       1 GDP1383     0.0000 
     29 H          90.8965   30.7215   23.7205 H         1 GDP1383     0.0000 
     30 H          89.6684   31.9770   23.9565 H         1 GDP1383     0.0000 
     31 H          88.9834   30.0638   25.1639 H         1 GDP1383     0.0000 
     32 H          89.2873   32.4591   26.3383 H         1 GDP1383     0.0000 
     33 H          91.2214   32.0011   27.4971 H         1 GDP1383     0.0000 
     34 H          90.1873   29.2771   28.0640 H         1 GDP1383     0.0000 
     35 H          93.4061   31.1319   27.0809 H         1 GDP1383     0.0000 
     36 H          94.3134   25.8568   30.7249 H         1 GDP1383     0.0000 
     37 H          92.2530   25.0220   31.1347 H         1 GDP1383     0.0000 
     38 H          90.7931   25.7122   30.3486 H         1 GDP1383     0.0000 
     39 H          88.3452   30.0274   27.4893 H         1 GDP1383     0.0000 
     40 H          89.4813   32.4522   29.0214 H         1 GDP1383     0.0000 
@<TRIPOS>BOND
     1    2    1 ar   
     2    3    1 ar   
     3    4    1 ar   
     4    5    1 1    
     5    6    5 1    
     6    7    6 ar   
     7    8    6 ar   
     8    9    6 1    
     9   10    9 1    
    10   11   10 1    
    11   29   10 1    
    12   30   10 1    
    13   12   11 1    
    14   13   11 1    
    15   31   11 1    
    16   17   12 1    
    17   14   13 1    
    18   15   13 1    
    19   32   13 1    
    20   39   14 1    
    21   16   15 1    
    22   17   15 1    
    23   33   15 1    
    24   40   16 1    
    25   18   17 1    
    26   34   17 1    
    27   19   18 1    
    28   28   18 1    
    29   20   19 2    
    30   35   19 1    
    31   21   20 1    
    32   22   21 1    
    33   28   21 2    
    34   23   22 2    
    35   24   22 am   
    36   25   24 1    
    37   36   24 1    
    38   26   25 1    
    39   27   25 2    
    40   37   26 1    
    41   38   26 1    
    42   28   27 1    
@<TRIPOS>SUBSTRUCTURE
     1 GDP1383     1 GROUP   
@<TRIPOS>SET

