#    Name: 4dv8_0LX_1_INTS_M
#    Modification time : Mon Apr  7 23:11:59 2014

@<TRIPOS>MOLECULE
4dv8_0LX_1_INTS_M
   81     0    12     0     0
SMALL
NO_CHARGES


@<TRIPOS>ATOM
      1 Zn         15.9115   19.5690   29.5050 Zn        3 ZIC7        0.0000 
      2 Zn         16.5120   19.8430   28.6200 Zn       11 ZIL7        0.0000 
      3 Zn         15.3110   19.2950   30.3900 Zn        7 ZIP7        0.0000 
      4 N          16.9770   21.0555   28.6345 N.am      2 SEC2        0.0000 
      5 N          16.5120   19.8430   28.6200 N.am     10 SEL2        0.0000 
      6 N          17.4420   22.2680   28.6490 N.am      6 SEP2        0.0000 
      7 O          15.4015   17.2285   26.5680 O.2       1 ALC1        0.0000 
      8 O          15.4190   18.0210   27.7830 O.2       9 ALL1        0.0000 
      9 O          15.3840   16.4360   25.3530 O.2       5 ALP1        0.0000 
     10 Zn         14.9600   18.6165   29.6135 Zn        3 ZIC7        0.0000 
     11 Zn         14.6090   17.9380   28.8370 Zn       11 ZIL7        0.0000 
     12 O          14.2240   16.7485   28.9465 O.2       1 ALC1        0.0000 
     13 O          14.6090   17.9380   28.8370 O.2       9 ALL1        0.0000 
     14 O          13.8390   15.5590   29.0560 O.2       5 ALP1        0.0000 
     15 CA         18.1295   22.3450   25.4125 C.3       4 GLC5        0.0000 
     16 CA         17.0150   20.5510   25.8350 C.3      12 GLL5        0.0000 
     17 CA         19.2440   24.1390   24.9900 C.3       8 GLP5        0.0000 
     18 CA         13.1120   22.4205   23.3375 C.3       4 GLC5        0.0000 
     19 CA         13.5050   22.1210   25.2210 C.3      12 GLL5        0.0000 
     20 CA         12.7190   22.7200   21.4540 C.3       8 GLP5        0.0000 
     21 CA         11.3620   20.5135   24.3030 C.3       4 GLC5        0.0000 
     22 CA         10.3020   22.3380   24.0450 C.3      12 GLL5        0.0000 
     23 CA         12.4220   18.6890   24.5610 C.3       8 GLP5        0.0000 
     24 CA          8.1150   18.8130   21.7670 C.3       4 GLC5        0.0000 
     25 CA          8.1330   19.4760   23.4930 C.3      12 GLL5        0.0000 
     26 CA          8.0970   18.1500   20.0410 C.3       8 GLP5        0.0000 
     27 CA         17.9810   18.7145   24.8515 C.3       4 GLC5        0.0000 
     28 CA         18.6900   19.0180   26.9290 C.3      12 GLL5        0.0000 
     29 CA         17.2720   18.4110   22.7740 C.3       8 GLP5        0.0000 
     30 CA         17.8175   17.2330   29.4585 C.3       4 GLC5        0.0000 
     31 CA         18.8660   17.7350   27.7100 C.3      12 GLL5        0.0000 
     32 CA         16.7690   16.7310   31.2070 C.3       8 GLP5        0.0000 
     33 N          18.0375   15.6360   25.7490 N.am      2 SEC2        0.0000 
     34 N          18.7740   16.6030   26.9350 N.am     10 SEL2        0.0000 
     35 N          17.3010   14.6690   24.5630 N.am      6 SEP2        0.0000 
     36 CA         19.6625   14.9480   25.9190 C.3       4 GLC5        0.0000 
     37 CA         18.8620   15.3600   27.5460 C.3      12 GLL5        0.0000 
     38 CA         20.4630   14.5360   24.2920 C.3       8 GLP5        0.0000 
     39 CA         17.4575   14.7575   26.3210 C.3       4 GLC5        0.0000 
     40 CA         16.0530   14.1550   25.0960 C.3       8 GLP5        0.0000 
     41 CA         20.5960   14.7675   28.1355 C.3       4 GLC5        0.0000 
     42 CA         22.3300   14.1750   28.7250 C.3       8 GLP5        0.0000 
     43 CA         19.2765   13.6000   28.5890 C.3       4 GLC5        0.0000 
     44 CA         19.6910   11.8400   29.6320 C.3       8 GLP5        0.0000 
     45 CA         17.8155   16.0455   29.3765 C.3       4 GLC5        0.0000 
     46 CA         18.9850   16.9475   30.9045 C.3       4 GLC5        0.0000 
     47 CA         20.3300   17.7300   29.7380 C.3      12 GLL5        0.0000 
     48 CA         17.6400   16.1650   32.0710 C.3       8 GLP5        0.0000 
     49 CA         22.3310   16.1385   30.7185 C.3       4 GLC5        0.0000 
     50 CA         21.5580   17.7720   30.3630 C.3      12 GLL5        0.0000 
     51 CA         23.1040   14.5050   31.0740 C.3       8 GLP5        0.0000 
     52 CA         17.8987   21.0938   27.6865 C.3       4 GLC5        0.0000 
     53 CA         18.6850   22.2920   29.2140 C.3       8 GLP5        0.0000 
     54 CA         14.8980   21.1620   23.4890 C.3       4 GLC5        0.0000 
     55 CA         15.5920   20.6730   25.2650 C.3      12 GLL5        0.0000 
     56 CA         14.4890   20.9610   21.6030 C.3       8 GLP5        0.0000 
     57 CA         16.8121   19.3476   24.2430 C.3       4 GLC5        0.0000 
     58 CA         13.4140   20.2155   24.9295 C.3       4 GLC5        0.0000 
     59 CA         11.0900   19.8038   25.0938 C.3       4 GLC5        0.0000 
     60 CA         10.6000   22.1900   25.4050 C.3      12 GLL5        0.0000 
     61 CA          7.9110   18.0725   24.0442 C.3       4 GLC5        0.0000 
     62 CA          8.9110   20.3360   24.1280 C.3      12 GLL5        0.0000 
     63 CA          7.3000   16.2390   24.2780 C.3       8 GLP5        0.0000 
     64 CA         11.3012   22.2972   22.5888 C.3       4 GLC5        0.0000 
     65 CA          9.4650   21.4110   23.4020 C.3      12 GLL5        0.0000 
     66 CA          7.3978   20.7349   22.2215 C.3       4 GLC5        0.0000 
     67 CA          6.1350   21.2950   20.8140 C.3       8 GLP5        0.0000 
     68 CA          9.8452   18.8884   23.1980 C.3       4 GLC5        0.0000 
     69 CA         11.0300   17.6020   22.7670 C.3       8 GLP5        0.0000 
     70 CA         18.9095   19.8598   28.7362 C.3       4 GLC5        0.0000 
     71 CA         19.0410   21.3430   30.1530 C.3       8 GLP5        0.0000 
     72 CA         25.0633   18.2383   30.4850 C.3       4 GLC5        0.0000 
     73 CA         22.7300   17.8360   29.5860 C.3      12 GLL5        0.0000 
     74 CA         26.8080   18.6130   31.0720 C.3       8 GLP5        0.0000 
     75 CA         23.1602   16.7342   26.7065 C.3       4 GLC5        0.0000 
     76 CA         22.6570   17.8400   28.2000 C.3      12 GLL5        0.0000 
     77 CA         24.2880   15.6480   25.5300 C.3       8 GLP5        0.0000 
     78 CA         21.5882   15.9714   28.5149 C.3       4 GLC5        0.0000 
     79 CA         21.4080   17.8010   27.5660 C.3      12 GLL5        0.0000 
     80 CA         23.4036   16.2082   29.5817 C.3       4 GLC5        0.0000 
     81 CA         23.5070   14.5520   29.6120 C.3       8 GLP5        0.0000 
@<TRIPOS>BOND
@<TRIPOS>SUBSTRUCTURE
     1 ALC1        7 GROUP        1 X    ALC  0     ROOT ALC X 1
     2 SEC2        4 GROUP        1 X    SEC  0     **** SEC X 2
     3 ZIC7        1 GROUP        1 X    ZIC  0     **** ZIC X 5
     4 GLC5       15 GROUP        1 X    GLC  0     **** GLC X 6
     5 ALP1        9 GROUP        1 Y    ALP  0     ROOT ALP Y 8
     6 SEP2        6 GROUP        1 Y    SEP  0     **** SEP Y 9
     7 ZIP7        3 GROUP        1 Y    ZIP  0     **** ZIP Y 12
     8 GLP5       17 GROUP        1 Y    GLP  0     **** GLP Y 13
     9 ALL1        8 GROUP        1 Z    ALL  0     ROOT ALL Z 15
    10 SEL2        5 GROUP        1 Z    SEL  0     **** SEL Z 16
    11 ZIL7        2 GROUP        1 Z    ZIL  0     **** ZIL Z 19
    12 GLL5       16 GROUP        1 Z    GLL  0     **** GLL Z 20
@<TRIPOS>SET

