#    Name: 4dv8_0LX_1_ligand
#    Modification time : Mon Apr  7 23:11:59 2014

@<TRIPOS>MOLECULE
4dv8_0LX_1_ligand
   56    57     1     0     0
SMALL
NO_CHARGES


@<TRIPOS>ATOM
      1 O01        16.5120   19.8430   28.6200 O.2       1 0LX802      0.0000 
      2 C02        16.3440   19.0920   27.6880 C.2       1 0LX802      0.0000 
      3 N03        15.4190   18.0210   27.7830 N.am      1 0LX802      0.0000 
      4 O04        14.6090   17.9380   28.8370 O.3       1 0LX802      0.0000 
      5 C05        17.2100   19.2400   26.4830 C.3       1 0LX802      0.0000 
      6 C06        17.0150   20.5510   25.8350 C.3       1 0LX802      0.0000 
      7 C07        15.5920   20.6730   25.2650 C.3       1 0LX802      0.0000 
      8 C08        15.0220   22.0530   25.4850 C.3       1 0LX802      0.0000 
      9 C09        13.5050   22.1210   25.2210 C.3       1 0LX802      0.0000 
     10 N10        12.7720   22.6290   26.4160 N.4       1 0LX802      0.0000 
     11 C11        11.4890   23.1770   26.0530 C.3       1 0LX802      0.0000 
     12 C12        10.6000   22.1900   25.4050 C.ar      1 0LX802      0.0000 
     13 C13        10.0420   21.1160   26.1290 C.ar      1 0LX802      0.0000 
     14 C14         9.1950   20.1840   25.4860 C.ar      1 0LX802      0.0000 
     15 C15         8.9110   20.3360   24.1280 C.ar      1 0LX802      0.0000 
     16 C16         9.4650   21.4110   23.4020 C.ar      1 0LX802      0.0000 
     17 C17        10.3020   22.3380   24.0450 C.ar      1 0LX802      0.0000 
     18 F18         8.1330   19.4760   23.4930 F         1 0LX802      0.0000 
     19 C19        18.6900   19.0180   26.9290 C.3       1 0LX802      0.0000 
     20 C20        18.8660   17.7350   27.7100 C.3       1 0LX802      0.0000 
     21 O21        18.7740   16.6030   26.9350 O.3       1 0LX802      0.0000 
     22 C22        18.8620   15.3600   27.5460 C.3       1 0LX802      0.0000 
     23 C23        20.2400   17.7390   28.3490 C.ar      1 0LX802      0.0000 
     24 C24        20.3300   17.7300   29.7380 C.ar      1 0LX802      0.0000 
     25 C25        21.5580   17.7720   30.3630 C.ar      1 0LX802      0.0000 
     26 C26        22.7300   17.8360   29.5860 C.ar      1 0LX802      0.0000 
     27 C27        22.6570   17.8400   28.2000 C.ar      1 0LX802      0.0000 
     28 C28        21.4080   17.8010   27.5660 C.ar      1 0LX802      0.0000 
     29 F29        23.9070   17.8910   30.2100 F         1 0LX802      0.0000 
     30 H          15.4038   17.3280   27.0176 H         1 0LX802      0.0000 
     31 H          16.9724   18.4370   25.7867 H         1 0LX802      0.0000 
     32 H          17.7244   20.6850   25.0133 H         1 0LX802      0.0000 
     33 H          17.1659   21.3627   26.5524 H         1 0LX802      0.0000 
     34 H          14.9560   19.9283   25.7504 H         1 0LX802      0.0000 
     35 H          15.6240   20.4522   24.1950 H         1 0LX802      0.0000 
     36 H          15.5224   22.7704   24.8216 H         1 0LX802      0.0000 
     37 H          15.2090   22.3703   26.5191 H         1 0LX802      0.0000 
     38 H          13.1565   21.1184   24.9599 H         1 0LX802      0.0000 
     39 H          13.3347   22.7776   24.3638 H         1 0LX802      0.0000 
     40 H          11.6208   24.0449   25.3679 H         1 0LX802      0.0000 
     41 H          10.9759   23.5850   26.9531 H         1 0LX802      0.0000 
     42 H          10.2503   21.0091   27.1255 H         1 0LX802      0.0000 
     43 H           8.7986   19.4091   26.0179 H         1 0LX802      0.0000 
     44 H           9.2554   21.5135   22.4057 H         1 0LX802      0.0000 
     45 H          10.6942   23.1234   23.5158 H         1 0LX802      0.0000 
     46 H          18.9917   19.8725   27.5401 H         1 0LX802      0.0000 
     47 H          19.3150   18.9992   26.0325 H         1 0LX802      0.0000 
     48 H          18.1447   17.7352   28.5272 H         1 0LX802      0.0000 
     49 H          19.4633   17.6913   30.3017 H         1 0LX802      0.0000 
     50 H          21.6310   17.7574   31.3845 H         1 0LX802      0.0000 
     51 H          23.5132   17.8714   27.6349 H         1 0LX802      0.0000 
     52 H          21.3430   17.8172   26.5496 H         1 0LX802      0.0000 
     53 H          19.7357   15.2388   28.0172 H         1 0LX802      0.0000 
     54 H          18.1412   15.2289   28.2266 H         1 0LX802      0.0000 
     55 H          18.7798   14.6144   26.8847 H         1 0LX802      0.0000 
     56 H          13.9537   17.2195   28.6038 H         1 0LX802      0.0000 
@<TRIPOS>BOND
     1    2    1 2    
     2    3    2 am   
     3    5    2 1    
     4    4    3 1    
     5   30    3 1    
     6   56    4 1    
     7    6    5 1    
     8   19    5 1    
     9   31    5 1    
    10    7    6 1    
    11   32    6 1    
    12   33    6 1    
    13    8    7 1    
    14   34    7 1    
    15   35    7 1    
    16    9    8 1    
    17   36    8 1    
    18   37    8 1    
    19   10    9 1    
    20   38    9 1    
    21   39    9 1    
    22   11   10 1    
    23   12   11 1    
    24   40   11 1    
    25   41   11 1    
    26   13   12 ar   
    27   17   12 ar   
    28   14   13 ar   
    29   42   13 1    
    30   15   14 ar   
    31   43   14 1    
    32   16   15 ar   
    33   18   15 1    
    34   17   16 ar   
    35   44   16 1    
    36   45   17 1    
    37   20   19 1    
    38   46   19 1    
    39   47   19 1    
    40   21   20 1    
    41   23   20 1    
    42   48   20 1    
    43   22   21 1    
    44   53   22 1    
    45   54   22 1    
    46   55   22 1    
    47   24   23 ar   
    48   28   23 ar   
    49   25   24 ar   
    50   49   24 1    
    51   26   25 ar   
    52   50   25 1    
    53   27   26 ar   
    54   29   26 1    
    55   28   27 ar   
    56   51   27 1    
    57   52   28 1    
@<TRIPOS>SUBSTRUCTURE
     1 0LX802      1 GROUP   
@<TRIPOS>SET

