#    Name: 4kcf_AKM_1_INTS_M
#    Modification time : Tue Mar 25 07:44:08 2014

@<TRIPOS>MOLECULE
4kcf_AKM_1_INTS_M
   71     0    12     0     0
SMALL
NO_CHARGES


@<TRIPOS>ATOM
      1 N          16.9105   21.7045  -15.4665 N.am      2 SEC2        0.0000 
      2 N          18.1970   21.5320  -15.7120 N.am     10 SEL2        0.0000 
      3 N          15.6240   21.8770  -15.2210 N.am      6 SEP2        0.0000 
      4 NZ         18.2630   24.0485  -20.7850 N.4       3 LYC4        0.0000 
      5 NZ         18.9390   23.0080  -20.0770 N.4      11 LYL4        0.0000 
      6 NZ         16.5730   24.5770  -22.1730 N.4       7 LYP4        0.0000 
      7 N          17.6750   23.1305  -21.1830 N.am      2 SEC2        0.0000 
      8 N          18.9390   23.0080  -20.0770 N.am     10 SEL2        0.0000 
      9 N          16.4110   23.2530  -22.2890 N.am      6 SEP2        0.0000 
     10 N          18.2630   24.0485  -20.7850 N.am      2 SEC2        0.0000 
     11 N          17.5870   25.0890  -21.4930 N.am      6 SEP2        0.0000 
     12 CA         18.3495   19.5270  -19.3210 C.3       4 GLC5        0.0000 
     13 CA         16.5240   20.5230  -18.5570 C.3      12 GLL5        0.0000 
     14 CA         20.1750   18.5310  -20.0850 C.3       8 GLP5        0.0000 
     15 CA         15.7825   21.7630  -17.2025 C.3       4 GLC5        0.0000 
     16 CA         15.0410   23.0030  -15.8480 C.3       8 GLP5        0.0000 
     17 CA         17.9070   18.1595  -19.3825 C.3       4 GLC5        0.0000 
     18 CA         16.5770   18.9860  -18.5990 C.3      12 GLL5        0.0000 
     19 CA         19.2370   17.3330  -20.1660 C.3       8 GLP5        0.0000 
     20 CA         13.6060   18.7000  -15.3815 C.3       4 GLC5        0.0000 
     21 CA         14.9140   18.5060  -16.9600 C.3      12 GLL5        0.0000 
     22 CA         12.2980   18.8940  -13.8030 C.3       8 GLP5        0.0000 
     23 N          15.3940   18.9180  -21.4630 N.am      2 SEC2        0.0000 
     24 N          14.1620   18.4930  -20.7030 N.am     10 SEL2        0.0000 
     25 N          16.6260   19.3430  -22.2230 N.am      6 SEP2        0.0000 
     26 CA         12.2110   20.0790  -20.9290 C.3       4 GLC5        0.0000 
     27 CA         13.3070   21.4950  -20.1020 C.3      12 GLL5        0.0000 
     28 CA         11.1150   18.6630  -21.7560 C.3       8 GLP5        0.0000 
     29 CA         12.1635   22.7490  -19.3715 C.3       4 GLC5        0.0000 
     30 CA         11.0200   24.0030  -18.6410 C.3       8 GLP5        0.0000 
     31 CA         14.5135   20.6870  -21.6385 C.3       4 GLC5        0.0000 
     32 CA         15.7200   19.8790  -23.1750 C.3       8 GLP5        0.0000 
     33 CA         18.8125   25.7705  -13.9140 C.3       4 GLC5        0.0000 
     34 CA         19.3040   26.1390  -16.0620 C.3      12 GLL5        0.0000 
     35 CA         18.3210   25.4020  -11.7660 C.3       8 GLP5        0.0000 
     36 N          21.3260   26.6855  -18.5130 N.am      2 SEC2        0.0000 
     37 N          19.9980   27.4960  -17.8970 N.am     10 SEL2        0.0000 
     38 N          22.6540   25.8750  -19.1290 N.am      6 SEP2        0.0000 
     39 O          20.9910   28.4655  -17.9110 O.2       1 ALC1        0.0000 
     40 O          19.9980   27.4960  -17.8970 O.2       9 ALL1        0.0000 
     41 O          21.9840   29.4350  -17.9250 O.2       5 ALP1        0.0000 
     42 CA         19.6705   30.2855  -14.6505 C.3       4 GLC5        0.0000 
     43 CA         19.5510   28.5420  -15.7890 C.3      12 GLL5        0.0000 
     44 CA         19.7900   32.0290  -13.5120 C.3       8 GLP5        0.0000 
     45 CA         18.0605   30.0685  -14.7525 C.3       4 GLC5        0.0000 
     46 CA         18.5640   27.9630  -14.7730 C.3      12 GLL5        0.0000 
     47 CA         17.5570   32.1740  -14.7320 C.3       8 GLP5        0.0000 
     48 CA         18.4425   26.6825  -13.2695 C.3       4 GLC5        0.0000 
     49 N          17.8830   30.2050   -8.5545 N.am      2 SEC2        0.0000 
     50 N          18.8310   29.6660   -9.5230 N.am     10 SEL2        0.0000 
     51 N          16.9350   30.7440   -7.5860 N.am      6 SEP2        0.0000 
     52 N          18.9030   29.7985   -8.2050 N.am      2 SEC2        0.0000 
     53 N          18.9750   29.9310   -6.8870 N.am      6 SEP2        0.0000 
     54 CA         19.8835   27.5630   -9.0780 C.3       4 GLC5        0.0000 
     55 CA         21.2070   28.4850  -10.5920 C.3      12 GLL5        0.0000 
     56 CA         18.5600   26.6410   -7.5640 C.3       8 GLP5        0.0000 
     57 CA         19.8215   30.1395  -13.1230 C.3       4 GLC5        0.0000 
     58 CA         19.8530   28.2500  -12.7340 C.3      12 GLL5        0.0000 
     59 CA         12.7013   19.2242  -20.6980 C.3       4 GLC5        0.0000 
     60 CA         14.4350   20.4930  -19.8900 C.3      12 GLL5        0.0000 
     61 CA         15.0038   19.8323  -21.4075 C.3       4 GLC5        0.0000 
     62 CA         14.1400   19.0780  -19.3900 C.3      12 GLL5        0.0000 
     63 CA         20.1917   29.4962  -17.5613 C.3       4 GLC5        0.0000 
     64 CA         20.1540   27.3390  -16.4940 C.3      12 GLL5        0.0000 
     65 CA         20.5310   31.0520  -18.9810 C.3       8 GLP5        0.0000 
     66 CA         20.5765   30.3518  -11.6783 C.3       4 GLC5        0.0000 
     67 CA         19.9570   28.6440  -11.4110 C.3      12 GLL5        0.0000 
     68 CA         20.5710   32.1390  -12.3550 C.3       8 GLP5        0.0000 
     69 CA         19.2693   26.9046  -11.8169 C.3       4 GLC5        0.0000 
     70 CA         17.6946   27.6049  -16.6678 C.3       4 GLC5        0.0000 
     71 CA         15.9960   27.7140  -17.5560 C.3       8 GLP5        0.0000 
@<TRIPOS>BOND
@<TRIPOS>SUBSTRUCTURE
     1 ALC1       39 GROUP        1 X    ALC  0     ROOT ALC X 1
     2 SEC2        1 GROUP        1 X    SEC  0     **** SEC X 2
     3 LYC4        4 GROUP        1 X    LYC  0     **** LYC X 4
     4 GLC5       12 GROUP        1 X    GLC  0     **** GLC X 6
     5 ALP1       41 GROUP        1 Y    ALP  0     ROOT ALP Y 8
     6 SEP2        3 GROUP        1 Y    SEP  0     **** SEP Y 9
     7 LYP4        6 GROUP        1 Y    LYP  0     **** LYP Y 11
     8 GLP5       14 GROUP        1 Y    GLP  0     **** GLP Y 13
     9 ALL1       40 GROUP        1 Z    ALL  0     ROOT ALL Z 15
    10 SEL2        2 GROUP        1 Z    SEL  0     **** SEL Z 16
    11 LYL4        5 GROUP        1 Z    LYL  0     **** LYL Z 18
    12 GLL5       13 GROUP        1 Z    GLL  0     **** GLL Z 20
@<TRIPOS>SET

