#    Name: 4kcf_AKM_1_ligand
#    Modification time : Tue Mar 25 07:44:08 2014

@<TRIPOS>MOLECULE
4kcf_AKM_1_ligand
   64    66     1     0     0
SMALL
NO_CHARGES


@<TRIPOS>ATOM
      1 O2P        18.1970   21.5320  -15.7120 O.co2     1 AKM501      0.0000 
      2 P          19.3840   22.3920  -16.1560 P.3       1 AKM501      0.0000 
      3 O1P        20.7630   21.9920  -15.7190 O.co2     1 AKM501      0.0000 
      4 OPP        19.4380   22.4260  -17.7490 O.3       1 AKM501      0.0000 
      5 P2         18.2380   22.5660  -18.7990 P.3       1 AKM501      0.0000 
      6 O3P        18.9390   23.0080  -20.0770 O.co2     1 AKM501      0.0000 
      7 O1         17.7410   21.0660  -19.0380 O.3       1 AKM501      0.0000 
      8 C1         16.5240   20.5230  -18.5570 C.3       1 AKM501      0.0000 
      9 C2         16.5770   18.9860  -18.5990 C.3       1 AKM501      0.0000 
     10 C3         15.1690   18.4060  -18.4680 C.3       1 AKM501      0.0000 
     11 C3M        14.9140   18.5060  -16.9600 C.3       1 AKM501      0.0000 
     12 N3         15.1390   16.9900  -18.8620 N.4       1 AKM501      0.0000 
     13 C4         14.1400   19.0780  -19.3900 C.3       1 AKM501      0.0000 
     14 O4A        14.1620   18.4930  -20.7030 O.3       1 AKM501      0.0000 
     15 O4B        12.8100   18.8100  -18.9110 O.3       1 AKM501      0.0000 
     16 C5         14.4350   20.4930  -19.8900 C.3       1 AKM501      0.0000 
     17 C6         13.3070   21.4950  -20.1020 C.3       1 AKM501      0.0000 
     18 O5         15.6040   21.1670  -19.4290 O.3       1 AKM501      0.0000 
     19 O4P        17.0450   23.4040  -18.3680 O.co2     1 AKM501      0.0000 
     20 O5'        19.0910   23.8830  -15.6320 O.3       1 AKM501      0.0000 
     21 C5'        20.1000   24.8570  -15.8920 C.3       1 AKM501      0.0000 
     22 C4'        19.3040   26.1390  -16.0620 C.3       1 AKM501      0.0000 
     23 C3'        20.1540   27.3390  -16.4940 C.3       1 AKM501      0.0000 
     24 O3'        19.9980   27.4960  -17.8970 O.3       1 AKM501      0.0000 
     25 C2'        19.5510   28.5420  -15.7890 C.3       1 AKM501      0.0000 
     26 C1'        18.5640   27.9630  -14.7730 C.3       1 AKM501      0.0000 
     27 O4'        18.7490   26.5320  -14.8040 O.3       1 AKM501      0.0000 
     28 N11        18.6880   28.4330  -13.3870 N.am      1 AKM501      0.0000 
     29 C21        17.6200   28.9570  -12.7960 C.2       1 AKM501      0.0000 
     30 O21        16.4730   29.1120  -13.5020 O.2       1 AKM501      0.0000 
     31 N31        17.6280   29.3980  -11.5270 N.am      1 AKM501      0.0000 
     32 C41        18.7600   29.2620  -10.8130 C.2       1 AKM501      0.0000 
     33 O41        18.8310   29.6660   -9.5230 O.2       1 AKM501      0.0000 
     34 C51        19.9570   28.6440  -11.4110 C.2       1 AKM501      0.0000 
     35 C5A        21.2070   28.4850  -10.5920 C.3       1 AKM501      0.0000 
     36 C61        19.8530   28.2500  -12.7340 C.2       1 AKM501      0.0000 
     37 H          16.3747   20.8488  -17.5400 H         1 AKM501      0.0000 
     38 H          17.1926   18.6299  -17.7799 H         1 AKM501      0.0000 
     39 H          17.0114   18.6718  -19.5421 H         1 AKM501      0.0000 
     40 H          14.7361   20.2740  -21.0733 H         1 AKM501      0.0000 
     41 H          20.6287   24.6618  -16.8027 H         1 AKM501      0.0000 
     42 H          20.7695   24.9797  -15.0652 H         1 AKM501      0.0000 
     43 H          18.5284   25.9991  -16.7855 H         1 AKM501      0.0000 
     44 H          21.1362   27.1958  -16.1841 H         1 AKM501      0.0000 
     45 H          19.0250   29.1498  -16.4907 H         1 AKM501      0.0000 
     46 H          20.3137   29.0841  -15.2762 H         1 AKM501      0.0000 
     47 H          17.5522   28.1768  -15.1488 H         1 AKM501      0.0000 
     48 H          16.7886   29.8297  -11.1103 H         1 AKM501      0.0000 
     49 H          20.6679   27.8225  -13.2004 H         1 AKM501      0.0000 
     50 H          15.5278   17.9125  -16.4394 H         1 AKM501      0.0000 
     51 H          15.0495   19.4371  -16.6214 H         1 AKM501      0.0000 
     52 H          13.9793   18.2410  -16.7230 H         1 AKM501      0.0000 
     53 H          14.9437   16.8797  -19.8365 H         1 AKM501      0.0000 
     54 H          16.0126   16.5366  -18.6850 H         1 AKM501      0.0000 
     55 H          14.4379   16.4804  -18.3631 H         1 AKM501      0.0000 
     56 H          13.6492   22.3757  -20.4294 H         1 AKM501      0.0000 
     57 H          12.6431   21.1698  -20.7754 H         1 AKM501      0.0000 
     58 H          12.8038   21.6722  -19.2562 H         1 AKM501      0.0000 
     59 H          21.9411   28.0519  -11.1150 H         1 AKM501      0.0000 
     60 H          21.5557   29.3658  -10.2716 H         1 AKM501      0.0000 
     61 H          21.0510   27.9195   -9.7822 H         1 AKM501      0.0000 
     62 H          13.3562   18.8635  -21.1649 H         1 AKM501      0.0000 
     63 H          12.2453   18.7520  -19.7343 H         1 AKM501      0.0000 
     64 H          20.6583   28.2019  -18.1533 H         1 AKM501      0.0000 
@<TRIPOS>BOND
     1    2    1 ar   
     2    3    2 ar   
     3    4    2 1    
     4   20    2 1    
     5    5    4 1    
     6    6    5 ar   
     7    7    5 1    
     8   19    5 ar   
     9    8    7 1    
    10    9    8 1    
    11   18    8 1    
    12   37    8 1    
    13   10    9 1    
    14   38    9 1    
    15   39    9 1    
    16   11   10 1    
    17   12   10 1    
    18   13   10 1    
    19   50   11 1    
    20   51   11 1    
    21   52   11 1    
    22   53   12 1    
    23   54   12 1    
    24   55   12 1    
    25   14   13 1    
    26   15   13 1    
    27   16   13 1    
    28   62   14 1    
    29   63   15 1    
    30   17   16 1    
    31   18   16 1    
    32   40   16 1    
    33   56   17 1    
    34   57   17 1    
    35   58   17 1    
    36   21   20 1    
    37   22   21 1    
    38   41   21 1    
    39   42   21 1    
    40   23   22 1    
    41   27   22 1    
    42   43   22 1    
    43   24   23 1    
    44   25   23 1    
    45   44   23 1    
    46   64   24 1    
    47   26   25 1    
    48   45   25 1    
    49   46   25 1    
    50   27   26 1    
    51   28   26 1    
    52   47   26 1    
    53   29   28 1    
    54   36   28 1    
    55   30   29 2    
    56   31   29 1    
    57   32   31 1    
    58   48   31 1    
    59   33   32 2    
    60   34   32 1    
    61   35   34 1    
    62   36   34 2    
    63   59   35 1    
    64   60   35 1    
    65   61   35 1    
    66   49   36 1    
@<TRIPOS>SUBSTRUCTURE
     1 AKM501      1 GROUP   
@<TRIPOS>SET

