#    Name: 1o6r_R19_3_INTS_M
#    Modification time : Mon Mar 24 19:42:52 2014

@<TRIPOS>MOLECULE
1o6r_R19_3_INTS_M
   67     0     6     0     0
SMALL
NO_CHARGES


@<TRIPOS>ATOM
      1 CA        104.5105   30.6905   57.7605 C.3       2 GLC5        0.0000 
      2 CA        102.5820   31.0070   58.7760 C.3       6 GLL5        0.0000 
      3 CA        106.4390   30.3740   56.7450 C.3       4 GLP5        0.0000 
      4 CA        102.9540   32.8830   61.2365 C.3       2 GLC5        0.0000 
      5 CA        102.9050   31.0460   60.2500 C.3       6 GLL5        0.0000 
      6 CA        103.0030   34.7200   62.2230 C.3       4 GLP5        0.0000 
      7 OD1       106.1935   31.0205   59.9275 O.co2     1 ASC3        0.0000 
      8 OD1       104.3210   30.6870   60.5290 O.co2     5 ASL3        0.0000 
      9 OD1       108.0660   31.3540   59.3260 O.co2     3 ASP3        0.0000 
     10 CA        104.7830   33.3240   61.3775 C.3       2 GLC5        0.0000 
     11 CA        105.1700   31.9080   60.5070 C.3       6 GLL5        0.0000 
     12 CA        104.3960   34.7400   62.2480 C.3       4 GLP5        0.0000 
     13 CA        105.8045   31.1410   58.6260 C.3       2 GLC5        0.0000 
     14 CA        103.1405   28.2940   61.7455 C.3       2 GLC5        0.0000 
     15 CA        104.5030   29.9510   61.8490 C.3       6 GLL5        0.0000 
     16 CA        101.7780   26.6370   61.6420 C.3       4 GLP5        0.0000 
     17 CA        104.6865   32.6745   63.3110 C.3       2 GLC5        0.0000 
     18 CA        104.2890   30.7560   63.1730 C.3       6 GLL5        0.0000 
     19 CA        105.0840   34.5930   63.4490 C.3       4 GLP5        0.0000 
     20 CA        102.9030   32.5065   64.1655 C.3       2 GLC5        0.0000 
     21 CA        102.8440   30.5940   63.7110 C.3       6 GLL5        0.0000 
     22 CA        102.9620   34.4190   64.6200 C.3       4 GLP5        0.0000 
     23 CA        102.3890   31.9895   67.4095 C.3       2 GLC5        0.0000 
     24 CA        102.2280   30.3450   66.1450 C.3       6 GLL5        0.0000 
     25 CA        102.5500   33.6340   68.6740 C.3       4 GLP5        0.0000 
     26 CA        102.5950   32.3820   65.3825 C.3       2 GLC5        0.0000 
     27 CA        103.4990   29.5635   69.4960 C.3       2 GLC5        0.0000 
     28 CA        101.6840   28.4530   69.1950 C.3       6 GLL5        0.0000 
     29 CA        105.3140   30.6740   69.7970 C.3       4 GLP5        0.0000 
     30 CA        104.6660   25.7120   69.6630 C.3       2 GLC5        0.0000 
     31 CA        102.7590   26.3570   70.0020 C.3       6 GLL5        0.0000 
     32 CA        106.5730   25.0670   69.3240 C.3       4 GLP5        0.0000 
     33 CA        105.6995   23.0420   74.3420 C.3       2 GLC5        0.0000 
     34 CA        104.2520   22.8280   72.9330 C.3       6 GLL5        0.0000 
     35 CA        107.1470   23.2560   75.7510 C.3       4 GLP5        0.0000 
     36 CA        103.4905   20.5855   74.8305 C.3       2 GLC5        0.0000 
     37 CA        104.6950   19.9950   73.3600 C.3       6 GLL5        0.0000 
     38 CA        102.2860   21.1760   76.3010 C.3       4 GLP5        0.0000 
     39 CA        106.1810   20.1005   72.2425 C.3       2 GLC5        0.0000 
     40 CA        107.6670   20.2060   71.1250 C.3       4 GLP5        0.0000 
     41 CA        104.7885   18.9335   75.2445 C.3       2 GLC5        0.0000 
     42 CA        104.8820   17.8720   77.1290 C.3       4 GLP5        0.0000 
     43 CA        104.6250   18.4700   71.8835 C.3       2 GLC5        0.0000 
     44 CA        104.5550   16.9450   70.4070 C.3       4 GLP5        0.0000 
     45 CA        101.3430   26.2440   73.3250 C.3       2 GLC5        0.0000 
     46 CA        100.0750   25.3840   72.2490 C.3       6 GLL5        0.0000 
     47 CA        102.6110   27.1040   74.4010 C.3       4 GLP5        0.0000 
     48 CA         99.6050   30.0460   70.4115 C.3       2 GLC5        0.0000 
     49 CA        100.5440   28.2290   70.0200 C.3       6 GLL5        0.0000 
     50 CA         98.6660   31.8630   70.8030 C.3       4 GLP5        0.0000 
     51 CA        101.9562   32.1513   57.4005 C.3       2 GLC5        0.0000 
     52 CA        101.3730   30.6760   58.3120 C.3       6 GLL5        0.0000 
     53 CA        101.9350   33.4610   56.2570 C.3       4 GLP5        0.0000 
     54 CA        101.3512   28.9868   58.5465 C.3       2 GLC5        0.0000 
     55 CA        100.7250   27.1320   58.5490 C.3       4 GLP5        0.0000 
     56 CA        102.6172   28.1898   63.5640 C.3       2 GLC5        0.0000 
     57 CA        102.4070   26.2610   62.8160 C.3       4 GLP5        0.0000 
     58 CA         99.9752   30.0832   65.6078 C.3       2 GLC5        0.0000 
     59 CA         98.1120   30.3260   64.6400 C.3       4 GLP5        0.0000 
     60 CA        104.4522   27.5392   70.4740 C.3       2 GLC5        0.0000 
     61 CA        102.7700   27.5320   69.1880 C.3       6 GLL5        0.0000 
     62 CA        106.1400   28.1340   71.3530 C.3       4 GLP5        0.0000 
     63 CA        102.6029   25.6546   73.3281 C.3       2 GLC5        0.0000 
     64 CA        101.3000   25.0570   71.7550 C.3       6 GLL5        0.0000 
     65 CA        105.9307   21.8667   72.3438 C.3       2 GLC5        0.0000 
     66 CA        107.8960   21.5610   71.7860 C.3       4 GLP5        0.0000 
     67 CA        101.9850   26.8765   72.5126 C.3       2 GLC5        0.0000 
@<TRIPOS>BOND
@<TRIPOS>SUBSTRUCTURE
     1 ASC3        7 GROUP        1 X    ASC  0     ROOT ASC X 3
     2 GLC5        1 GROUP        1 X    GLC  0     **** GLC X 6
     3 ASP3        9 GROUP        1 Y    ASP  0     ROOT ASP Y 10
     4 GLP5        3 GROUP        1 Y    GLP  0     **** GLP Y 13
     5 ASL3        8 GROUP        1 Z    ASL  0     ROOT ASL Z 17
     6 GLL5        2 GROUP        1 Z    GLL  0     **** GLL Z 20
@<TRIPOS>SET

