#    Name: 1o6r_R19_3_ligand
#    Modification time : Mon Mar 24 19:42:52 2014

@<TRIPOS>MOLECULE
1o6r_R19_3_ligand
   55    57     1     0     0
SMALL
NO_CHARGES


@<TRIPOS>ATOM
      1 C2A       102.5820   31.0070   58.7760 C.2       1 R19800      0.0000 
      2 C1A       102.9050   31.0460   60.2500 C.3       1 R19800      0.0000 
      3 N1        104.3210   30.6870   60.5290 N.4       1 R19800      0.0000 
      4 C1E       105.1700   31.9080   60.5070 C.3       1 R19800      0.0000 
      5 C1B       104.5030   29.9510   61.8490 C.3       1 R19800      0.0000 
      6 C2B       104.2890   30.7560   63.1730 C.3       1 R19800      0.0000 
      7 C3B       102.8440   30.5940   63.7110 C.3       1 R19800      0.0000 
      8 C4B       102.8110   29.6430   64.9130 C.3       1 R19800      0.0000 
      9 C5B       102.2280   30.3450   66.1450 C.3       1 R19800      0.0000 
     10 C6B       101.4490   29.3360   67.0060 C.3       1 R19800      0.0000 
     11 O7B       101.7490   29.5820   68.3870 O.3       1 R19800      0.0000 
     12 C6C       101.6840   28.4530   69.1950 C.ar      1 R19800      0.0000 
     13 C5C       102.7700   27.5320   69.1880 C.ar      1 R19800      0.0000 
     14 C4C       102.7590   26.3570   70.0020 C.ar      1 R19800      0.0000 
     15 C3P       101.6270   26.1250   70.8270 C.ar      1 R19800      0.0000 
     16 C3C       101.3000   25.0570   71.7550 C.2       1 R19800      0.0000 
     17 C1D       102.1230   23.8280   72.1320 C.ar      1 R19800      0.0000 
     18 C6D       103.4780   23.9680   72.5670 C.ar      1 R19800      0.0000 
     19 C5D       104.2520   22.8280   72.9330 C.ar      1 R19800      0.0000 
     20 C4D       103.6790   21.5170   72.8700 C.ar      1 R19800      0.0000 
     21 BR27      104.6950   19.9950   73.3600 Br        1 R19800      0.0000 
     22 C3D       102.3190   21.3790   72.4310 C.ar      1 R19800      0.0000 
     23 C2D       101.5520   22.5280   72.0670 C.ar      1 R19800      0.0000 
     24 C2C       100.0750   25.3840   72.2490 C.2       1 R19800      0.0000 
     25 O1C        99.6050   26.5720   71.7080 O.3       1 R19800      0.0000 
     26 C7P       100.5250   27.0570   70.8340 C.ar      1 R19800      0.0000 
     27 C7C       100.5440   28.2290   70.0200 C.ar      1 R19800      0.0000 
     28 C3A       101.3730   30.6760   58.3120 C.2       1 R19800      0.0000 
     29 H         103.3778   31.2587   58.1571 H         1 R19800      0.0000 
     30 H         102.2333   30.3522   60.7806 H         1 R19800      0.0000 
     31 H         102.6943   32.0569   60.6345 H         1 R19800      0.0000 
     32 H         104.6764   30.0190   59.7276 H         1 R19800      0.0000 
     33 H         105.5302   29.5127   61.8848 H         1 R19800      0.0000 
     34 H         103.8140   29.0717   61.8756 H         1 R19800      0.0000 
     35 H         104.4818   31.8060   62.9766 H         1 R19800      0.0000 
     36 H         104.9905   30.3934   63.9177 H         1 R19800      0.0000 
     37 H         102.2176   30.1970   62.9176 H         1 R19800      0.0000 
     38 H         102.4705   31.5690   64.0100 H         1 R19800      0.0000 
     39 H         103.8223   29.3113   65.1350 H         1 R19800      0.0000 
     40 H         102.1975   28.7791   64.6694 H         1 R19800      0.0000 
     41 H         101.5567   31.1333   65.8256 H         1 R19800      0.0000 
     42 H         103.0340   30.7673   66.7333 H         1 R19800      0.0000 
     43 H         101.7492   28.3349   66.6967 H         1 R19800      0.0000 
     44 H         100.3884   29.4659   66.7909 H         1 R19800      0.0000 
     45 H         103.5813   27.7141   68.5847 H         1 R19800      0.0000 
     46 H         103.5317   25.7169   69.9876 H         1 R19800      0.0000 
     47 H         103.8962   24.9000   72.6156 H         1 R19800      0.0000 
     48 H         105.2148   22.9432   73.2403 H         1 R19800      0.0000 
     49 H         101.8999   20.4518   72.3796 H         1 R19800      0.0000 
     50 H         100.5862   22.4110   71.7581 H         1 R19800      0.0000 
     51 H          99.5763   24.8571   72.9039 H         1 R19800      0.0000 
     52 H          99.7775   28.8750   70.0291 H         1 R19800      0.0000 
     53 H         106.1290   31.6970   60.6960 H         1 R19800      0.0000 
     54 H         105.1402   32.3651   59.6181 H         1 R19800      0.0000 
     55 H         104.8768   32.5766   61.1904 H         1 R19800      0.0000 
@<TRIPOS>BOND
     1    2    1 1    
     2   28    1 2    
     3   29    1 1    
     4    3    2 1    
     5   30    2 1    
     6   31    2 1    
     7    4    3 1    
     8    5    3 1    
     9   32    3 1    
    10   53    4 1    
    11   54    4 1    
    12   55    4 1    
    13    6    5 1    
    14   33    5 1    
    15   34    5 1    
    16    7    6 1    
    17   35    6 1    
    18   36    6 1    
    19    8    7 1    
    20   37    7 1    
    21   38    7 1    
    22    9    8 1    
    23   39    8 1    
    24   40    8 1    
    25   10    9 1    
    26   41    9 1    
    27   42    9 1    
    28   11   10 1    
    29   43   10 1    
    30   44   10 1    
    31   12   11 1    
    32   13   12 ar   
    33   27   12 ar   
    34   14   13 ar   
    35   45   13 1    
    36   15   14 ar   
    37   46   14 1    
    38   16   15 1    
    39   26   15 ar   
    40   17   16 1    
    41   24   16 2    
    42   18   17 ar   
    43   23   17 ar   
    44   19   18 ar   
    45   47   18 1    
    46   20   19 ar   
    47   48   19 1    
    48   21   20 1    
    49   22   20 ar   
    50   23   22 ar   
    51   49   22 1    
    52   50   23 1    
    53   25   24 1    
    54   51   24 1    
    55   26   25 1    
    56   27   26 ar   
    57   52   27 1    
@<TRIPOS>SUBSTRUCTURE
     1 R19800      1 GROUP   
@<TRIPOS>SET

