#    Name: 2src_ANP_1_INTS_M
#    Modification time : Tue Mar 25 00:04:59 2014

@<TRIPOS>MOLECULE
2src_ANP_1_INTS_M
   61     0    12     0     0
SMALL
NO_CHARGES


@<TRIPOS>ATOM
      1 NZ         12.0980   20.8895   57.5330 N.4       3 LYC4        0.0000 
      2 NZ         11.6050   19.8620   58.6260 N.4      11 LYL4        0.0000 
      3 NZ         12.5910   21.9170   56.4400 N.4       7 LYP4        0.0000 
      4 N          12.0980   20.8895   57.5330 N.am      2 SEC2        0.0000 
      5 N          11.6050   19.8620   58.6260 N.am     10 SEL2        0.0000 
      6 N          12.5910   21.9170   56.4400 N.am      6 SEP2        0.0000 
      7 NZ         10.0660   19.0050   62.2705 N.4       3 LYC4        0.0000 
      8 NZ         10.0760   20.0170   60.6300 N.4      11 LYL4        0.0000 
      9 NZ         10.0560   17.9930   63.9110 N.4       7 LYP4        0.0000 
     10 N          10.5090   20.9940   61.9640 N.am      2 SEC2        0.0000 
     11 N          10.0760   20.0170   60.6300 N.am     10 SEL2        0.0000 
     12 N          10.9420   21.9710   63.2980 N.am      6 SEP2        0.0000 
     13 NZ         13.1385   20.1930   56.3720 N.4       3 LYC4        0.0000 
     14 NZ         13.6860   18.4690   56.3040 N.4      11 LYL4        0.0000 
     15 NZ         13.4825   21.0530   57.2425 N.4       3 LYC4        0.0000 
     16 NZ         14.3740   20.1890   58.0450 N.4      11 LYL4        0.0000 
     17 N          13.4825   21.0530   57.2425 N.am      2 SEC2        0.0000 
     18 N          14.3740   20.1890   58.0450 N.am     10 SEL2        0.0000 
     19 CA         16.6970   19.4285   56.6790 C.3       4 GLC5        0.0000 
     20 CA         16.6900   18.5590   58.6400 C.3      12 GLL5        0.0000 
     21 CA         16.7040   20.2980   54.7180 C.3       8 GLP5        0.0000 
     22 CA         18.6825   16.6075   56.9930 C.3       4 GLC5        0.0000 
     23 CA         18.0730   17.9160   58.5170 C.3      12 GLL5        0.0000 
     24 CA         19.2920   15.2990   55.4690 C.3       8 GLP5        0.0000 
     25 CA         19.5660   19.3310   62.0440 C.3       4 GLC5        0.0000 
     26 CA         19.4650   19.2230   59.9260 C.3      12 GLL5        0.0000 
     27 CA         19.6670   19.4390   64.1620 C.3       8 GLP5        0.0000 
     28 N          21.3180   19.7625   62.1055 N.am      2 SEC2        0.0000 
     29 N          20.7060   19.2850   60.5770 N.am     10 SEL2        0.0000 
     30 N          21.9300   20.2400   63.6340 N.am      6 SEP2        0.0000 
     31 CA         21.0160   19.2050   56.9280 C.3       4 GLC5        0.0000 
     32 CA         19.7320   19.7010   58.5530 C.3      12 GLL5        0.0000 
     33 CA         22.3000   18.7090   55.3030 C.3       8 GLP5        0.0000 
     34 CA         19.3560   20.5125   56.5430 C.3       4 GLC5        0.0000 
     35 CA         18.9800   21.3240   54.5330 C.3       8 GLP5        0.0000 
     36 CA         21.0545   25.1050   56.1425 C.3       4 GLC5        0.0000 
     37 CA         20.8380   24.4980   57.9270 C.3      12 GLL5        0.0000 
     38 CA         21.2710   25.7120   54.3580 C.3       8 GLP5        0.0000 
     39 CA         22.4310   25.9115   57.2515 C.3       4 GLC5        0.0000 
     40 CA         24.0240   27.3250   56.5760 C.3       8 GLP5        0.0000 
     41 CA         21.6590   25.7950   59.4785 C.3       4 GLC5        0.0000 
     42 CA         22.4800   27.0920   61.0300 C.3       8 GLP5        0.0000 
     43 O          20.8860   27.0455   57.5245 O.2       1 ALC1        0.0000 
     44 O          20.2040   25.6890   57.7210 O.2       9 ALL1        0.0000 
     45 O          21.5680   28.4020   57.3280 O.2       5 ALP1        0.0000 
     46 N          23.1840   25.3790   58.4075 N.am      2 SEC2        0.0000 
     47 N          22.2110   24.4110   58.0130 N.am     10 SEL2        0.0000 
     48 N          24.1570   26.3470   58.8020 N.am      6 SEP2        0.0000 
     49 CA         22.9775   22.0980   56.7920 C.3       4 GLC5        0.0000 
     50 CA         22.7240   23.1670   58.2240 C.3      12 GLL5        0.0000 
     51 CA         23.2310   21.0290   55.3600 C.3       8 GLP5        0.0000 
     52 CA         23.7010   24.6520   59.1880 C.3       4 GLC5        0.0000 
     53 CA         24.6780   26.1370   60.1520 C.3       8 GLP5        0.0000 
     54 CA         21.9390   21.5475   56.8165 C.3       4 GLC5        0.0000 
     55 CA         20.6470   22.0660   58.2730 C.3      12 GLL5        0.0000 
     56 CA         20.2085   22.6650   60.2210 C.3       4 GLC5        0.0000 
     57 CA         19.7700   23.2640   62.1690 C.3       8 GLP5        0.0000 
     58 CA         19.6668   22.0050   56.3478 C.3       4 GLC5        0.0000 
     59 CA         19.9420   24.7005   59.5302 C.3       4 GLC5        0.0000 
     60 CA         20.0600   23.3060   58.0520 C.3      12 GLL5        0.0000 
     61 CA         19.4350   25.4990   61.0710 C.3       8 GLP5        0.0000 
@<TRIPOS>BOND
@<TRIPOS>SUBSTRUCTURE
     1 ALC1       43 GROUP        1 X    ALC  0     ROOT ALC X 1
     2 SEC2        4 GROUP        1 X    SEC  0     **** SEC X 2
     3 LYC4        1 GROUP        1 X    LYC  0     **** LYC X 4
     4 GLC5       19 GROUP        1 X    GLC  0     **** GLC X 6
     5 ALP1       45 GROUP        1 Y    ALP  0     ROOT ALP Y 8
     6 SEP2        6 GROUP        1 Y    SEP  0     **** SEP Y 9
     7 LYP4        3 GROUP        1 Y    LYP  0     **** LYP Y 11
     8 GLP5       21 GROUP        1 Y    GLP  0     **** GLP Y 13
     9 ALL1       44 GROUP        1 Z    ALL  0     ROOT ALL Z 15
    10 SEL2        5 GROUP        1 Z    SEL  0     **** SEL Z 16
    11 LYL4        2 GROUP        1 Z    LYL  0     **** LYL Z 18
    12 GLL5       20 GROUP        1 Z    GLL  0     **** GLL Z 20
@<TRIPOS>SET

