#    Name: 2src_ANP_1_ligand
#    Modification time : Tue Mar 25 00:04:59 2014

@<TRIPOS>MOLECULE
2src_ANP_1_ligand
   43    45     1     0     0
SMALL
NO_CHARGES


@<TRIPOS>ATOM
      1 PG         10.8530   19.1150   59.7040 P.3       1 ANP1        0.0000 
      2 O1G        10.0910   17.8950   59.2120 O.co2     1 ANP1        0.0000 
      3 O2G        11.6050   19.8620   58.6260 O.co2     1 ANP1        0.0000 
      4 O3G        10.0760   20.0170   60.6300 O.co2     1 ANP1        0.0000 
      5 PB         13.4370   17.6900   60.3530 P.3       1 ANP1        0.0000 
      6 O1B        13.0480   16.2480   60.5240 O.co2     1 ANP1        0.0000 
      7 O2B        14.6220   18.0050   61.1540 O.co2     1 ANP1        0.0000 
      8 N3B        12.0690   18.4630   60.7010 N.4       1 ANP1        0.0000 
      9 PA         14.4540   18.7530   57.5800 P.3       1 ANP1        0.0000 
     10 O1A        13.6860   18.4690   56.3040 O.co2     1 ANP1        0.0000 
     11 O2A        14.3740   20.1890   58.0450 O.co2     1 ANP1        0.0000 
     12 O3A        13.9990   17.7460   58.7680 O.3       1 ANP1        0.0000 
     13 O5'        15.9740   18.2830   57.4370 O.3       1 ANP1        0.0000 
     14 C5'        16.6900   18.5590   58.6400 C.3       1 ANP1        0.0000 
     15 C4'        18.0730   17.9160   58.5170 C.3       1 ANP1        0.0000 
     16 O4'        18.8600   18.8550   57.8210 O.3       1 ANP1        0.0000 
     17 C3'        18.8570   17.8160   59.7720 C.3       1 ANP1        0.0000 
     18 O3'        19.9430   16.9770   59.4480 O.3       1 ANP1        0.0000 
     19 C2'        19.4650   19.2230   59.9260 C.3       1 ANP1        0.0000 
     20 O2'        20.7060   19.2850   60.5770 O.3       1 ANP1        0.0000 
     21 C1'        19.7320   19.7010   58.5530 C.3       1 ANP1        0.0000 
     22 N9         19.6290   21.1900   58.3340 N.pl3     1 ANP1        0.0000 
     23 C8         18.4840   21.8850   58.1720 C.2       1 ANP1        0.0000 
     24 N7         18.7290   23.1800   58.0010 N.2       1 ANP1        0.0000 
     25 C5         20.0600   23.3060   58.0520 C.ar      1 ANP1        0.0000 
     26 C6         20.8380   24.4980   57.9270 C.ar      1 ANP1        0.0000 
     27 N6         20.2040   25.6890   57.7210 N.pl3     1 ANP1        0.0000 
     28 N1         22.2110   24.4110   58.0130 N.ar      1 ANP1        0.0000 
     29 C2         22.7240   23.1670   58.2240 C.ar      1 ANP1        0.0000 
     30 N3         21.9970   22.0420   58.3500 N.ar      1 ANP1        0.0000 
     31 C4         20.6470   22.0660   58.2730 C.ar      1 ANP1        0.0000 
     32 H          16.2006   18.1337   59.5135 H         1 ANP1        0.0000 
     33 H          16.8308   19.6264   58.7960 H         1 ANP1        0.0000 
     34 H          18.0326   17.0096   58.0137 H         1 ANP1        0.0000 
     35 H          18.3103   17.5649   60.5637 H         1 ANP1        0.0000 
     36 H          18.7297   19.8680   60.3607 H         1 ANP1        0.0000 
     37 H          20.7805   19.3745   58.3270 H         1 ANP1        0.0000 
     38 H          17.5862   21.4746   58.1811 H         1 ANP1        0.0000 
     39 H          19.2064   25.6522   57.6629 H         1 ANP1        0.0000 
     40 H          20.7929   26.4937   57.6463 H         1 ANP1        0.0000 
     41 H          23.7942   23.0846   58.2944 H         1 ANP1        0.0000 
     42 H          20.7230   17.3611   59.9420 H         1 ANP1        0.0000 
     43 H          21.2895   19.8252   59.9707 H         1 ANP1        0.0000 
@<TRIPOS>BOND
     1    2    1 ar   
     2    3    1 ar   
     3    4    1 ar   
     4    8    1 1    
     5    6    5 ar   
     6    7    5 ar   
     7    8    5 1    
     8   12    5 1    
     9   10    9 ar   
    10   11    9 ar   
    11   12    9 1    
    12   13    9 1    
    13   14   13 1    
    14   15   14 1    
    15   32   14 1    
    16   33   14 1    
    17   16   15 1    
    18   17   15 1    
    19   34   15 1    
    20   21   16 1    
    21   18   17 1    
    22   19   17 1    
    23   35   17 1    
    24   42   18 1    
    25   20   19 1    
    26   21   19 1    
    27   36   19 1    
    28   43   20 1    
    29   22   21 1    
    30   37   21 1    
    31   23   22 1    
    32   31   22 1    
    33   24   23 2    
    34   38   23 1    
    35   25   24 1    
    36   26   25 ar   
    37   31   25 ar   
    38   27   26 1    
    39   28   26 ar   
    40   39   27 1    
    41   40   27 1    
    42   29   28 ar   
    43   30   29 ar   
    44   41   29 1    
    45   31   30 ar   
@<TRIPOS>SUBSTRUCTURE
     1 ANP1        1 GROUP   
@<TRIPOS>SET

