#    Name: 4nfn_2KC_1_INTS_M
#    Modification time : Tue Mar 25 13:05:34 2014

@<TRIPOS>MOLECULE
4nfn_2KC_1_INTS_M
   71     0    12     0     0
SMALL
NO_CHARGES


@<TRIPOS>ATOM
      1 CA         13.1790   20.4455   25.1240 C.3       4 GLC5        0.0000 
      2 CA         11.8820   21.8700   26.2220 C.3      12 GLL5        0.0000 
      3 CA         14.4760   19.0210   24.0260 C.3       8 GLP5        0.0000 
      4 CA         10.9685   26.1240   24.0475 C.3       4 GLC5        0.0000 
      5 CA         11.1230   24.2640   24.8300 C.3      12 GLL5        0.0000 
      6 CA         10.8140   27.9840   23.2650 C.3       8 GLP5        0.0000 
      7 N           4.5070   19.0865   25.0695 N.am      2 SEC2        0.0000 
      8 N           5.8200   19.6990   24.6710 N.am     10 SEL2        0.0000 
      9 N           3.1940   18.4740   25.4680 N.am      6 SEP2        0.0000 
     10 CA          4.3285   21.8165   24.7830 C.3       4 GLC5        0.0000 
     11 CA          5.8260   21.7510   26.0910 C.3      12 GLL5        0.0000 
     12 CA          2.8310   21.8820   23.4750 C.3       8 GLP5        0.0000 
     13 CA          7.1935   24.1670   23.9795 C.3       4 GLC5        0.0000 
     14 CA          8.7970   23.6790   25.0080 C.3      12 GLL5        0.0000 
     15 CA          5.5900   24.6550   22.9510 C.3       8 GLP5        0.0000 
     16 CA          8.7700   23.8145   22.8350 C.3       4 GLC5        0.0000 
     17 CA          8.7430   23.9500   20.6620 C.3       8 GLP5        0.0000 
     18 CA         12.9090   19.7165   22.9485 C.3       4 GLC5        0.0000 
     19 CA         11.3420   20.4120   21.8710 C.3      12 GLL5        0.0000 
     20 CA         13.0310   18.8040   22.0105 C.3       4 GLC5        0.0000 
     21 CA         11.9260   19.8840   20.7340 C.3      12 GLL5        0.0000 
     22 CA         14.1360   17.7240   23.2870 C.3       8 GLP5        0.0000 
     23 CA          7.2800   20.4840   20.6460 C.3       4 GLC5        0.0000 
     24 CA          9.1890   20.3330   20.7860 C.3      12 GLL5        0.0000 
     25 CA          5.3710   20.6350   20.5060 C.3       8 GLP5        0.0000 
     26 N          14.4330   20.6675   19.7465 N.am      2 SEC2        0.0000 
     27 N          13.2880   19.7740   20.7170 N.am     10 SEL2        0.0000 
     28 N          15.5780   21.5610   18.7760 N.am      6 SEP2        0.0000 
     29 O          13.6380   18.7510   20.0185 O.2       1 ALC1        0.0000 
     30 O          13.2880   19.7740   20.7170 O.2       9 ALL1        0.0000 
     31 O          13.9880   17.7280   19.3200 O.2       5 ALP1        0.0000 
     32 CA         13.1575   23.5585   29.4580 C.3       4 GLC5        0.0000 
     33 CA         13.0470   23.8500   27.2700 C.3      12 GLL5        0.0000 
     34 CA         13.2680   23.2670   31.6460 C.3       8 GLP5        0.0000 
     35 OD1        14.5315   21.7945   24.5075 O.co2     3 ASC3        0.0000 
     36 OD1        14.3050   22.3350   25.7630 O.co2    11 ASL3        0.0000 
     37 OD1        14.7580   21.2540   23.2520 O.co2     7 ASP3        0.0000 
     38 O          14.3900   21.3185   26.6480 O.2       1 ALC1        0.0000 
     39 O          14.3050   22.3350   25.7630 O.2       9 ALL1        0.0000 
     40 O          14.4750   20.3020   27.5330 O.2       5 ALP1        0.0000 
     41 O          14.5315   21.7945   24.5075 O.2       1 ALC1        0.0000 
     42 O          14.7580   21.2540   23.2520 O.2       5 ALP1        0.0000 
     43 CA          7.0360   20.0260   19.3325 C.3       4 GLC5        0.0000 
     44 CA          8.7010   19.4170   18.1590 C.3      12 GLL5        0.0000 
     45 CA          7.4605   20.8860   17.2230 C.3       4 GLC5        0.0000 
     46 CA          6.2200   22.3550   16.2870 C.3       8 GLP5        0.0000 
     47 CA          9.8460   18.9745   16.6085 C.3       4 GLC5        0.0000 
     48 CA         10.9910   18.5320   15.0580 C.3       8 GLP5        0.0000 
     49 CA          7.8435   17.9495   18.9610 C.3       4 GLC5        0.0000 
     50 CA          6.9860   16.4820   19.7630 C.3       8 GLP5        0.0000 
     51 CA         10.1677   20.5192   26.7270 C.3       4 GLC5        0.0000 
     52 CA         10.4810   22.4590   26.2500 C.3      12 GLL5        0.0000 
     53 CA          9.1540   18.8740   27.2180 C.3       8 GLP5        0.0000 
     54 CA         11.9670   24.1427   23.0042 C.3       4 GLC5        0.0000 
     55 CA         12.0970   24.2760   21.2120 C.3       8 GLP5        0.0000 
     56 CA          8.3927   20.4642   26.0625 C.3       4 GLC5        0.0000 
     57 CA          7.7310   22.6430   25.2320 C.3      12 GLL5        0.0000 
     58 CA          9.7533   18.7100   21.8087 C.3       4 GLC5        0.0000 
     59 CA          9.9670   20.6220   21.9000 C.3      12 GLL5        0.0000 
     60 CA          8.8520   16.9030   21.7320 C.3       8 GLP5        0.0000 
     61 CA         11.8655   22.2120   21.2572 C.3       4 GLC5        0.0000 
     62 CA         12.4043   20.7227   18.9925 C.3       4 GLC5        0.0000 
     63 CA         13.2690   21.7290   17.8040 C.3       8 GLP5        0.0000 
     64 CA         10.1958   18.3098   20.9565 C.3       4 GLC5        0.0000 
     65 CA         11.1530   19.5490   19.6280 C.3      12 GLL5        0.0000 
     66 CA          9.2135   22.0426   20.5860 C.3       4 GLC5        0.0000 
     67 CA          9.7900   19.7930   19.6770 C.3      12 GLL5        0.0000 
     68 CA         10.1182   20.8055   17.8430 C.3       4 GLC5        0.0000 
     69 CA         10.9910   22.0060   16.7680 C.3       8 GLP5        0.0000 
     70 CA          9.1707   18.4830   20.9817 C.3       4 GLC5        0.0000 
     71 CA          6.2645   23.4108   24.2345 C.3       4 GLC5        0.0000 
@<TRIPOS>BOND
@<TRIPOS>SUBSTRUCTURE
     1 ALC1       29 GROUP        1 X    ALC  0     ROOT ALC X 1
     2 SEC2        7 GROUP        1 X    SEC  0     **** SEC X 2
     3 ASC3       35 GROUP        1 X    ASC  0     **** ASC X 3
     4 GLC5        1 GROUP        1 X    GLC  0     **** GLC X 6
     5 ALP1       31 GROUP        1 Y    ALP  0     ROOT ALP Y 8
     6 SEP2        9 GROUP        1 Y    SEP  0     **** SEP Y 9
     7 ASP3       37 GROUP        1 Y    ASP  0     **** ASP Y 10
     8 GLP5        3 GROUP        1 Y    GLP  0     **** GLP Y 13
     9 ALL1       30 GROUP        1 Z    ALL  0     ROOT ALL Z 15
    10 SEL2        8 GROUP        1 Z    SEL  0     **** SEL Z 16
    11 ASL3       36 GROUP        1 Z    ASL  0     **** ASL Z 17
    12 GLL5        2 GROUP        1 Z    GLL  0     **** GLL Z 20
@<TRIPOS>SET

