#    Name: 4nfn_2KC_1_ligand
#    Modification time : Tue Mar 25 13:05:34 2014

@<TRIPOS>MOLECULE
4nfn_2KC_1_ligand
   52    55     1     0     0
SMALL
NO_CHARGES


@<TRIPOS>ATOM
      1 N1         10.1720   23.1570   24.9970 N.4       1 2KC401      0.0000 
      2 C2         10.4810   22.4590   26.2500 C.3       1 2KC401      0.0000 
      3 C3         11.8820   21.8700   26.2220 C.3       1 2KC401      0.0000 
      4 C4         12.9420   22.9530   26.0110 C.3       1 2KC401      0.0000 
      5 C5         12.5510   23.7550   24.7630 C.3       1 2KC401      0.0000 
      6 C6         11.1230   24.2640   24.8300 C.3       1 2KC401      0.0000 
      7 N7          5.8200   19.6990   24.6710 N.2       1 2KC401      0.0000 
      8 C8          6.5480   19.0940   23.7200 C.2       1 2KC401      0.0000 
      9 N9          7.6810   19.5320   23.1570 N.2       1 2KC401      0.0000 
     10 C10         8.1670   20.6910   23.5870 C.2       1 2KC401      0.0000 
     11 C11         7.5320   21.4660   24.5820 C.2       1 2KC401      0.0000 
     12 C12         7.7310   22.6430   25.2320 C.2       1 2KC401      0.0000 
     13 C13         6.6670   22.8060   26.1670 C.2       1 2KC401      0.0000 
     14 C14         5.8260   21.7510   26.0910 C.2       1 2KC401      0.0000 
     15 N15         9.3560   21.1040   23.0690 N.pl3     1 2KC401      0.0000 
     16 C16         8.7970   23.6790   25.0080 C.3       1 2KC401      0.0000 
     17 N17         6.3340   20.8930   25.0940 N.pl3     1 2KC401      0.0000 
     18 C18         9.9670   20.6220   21.9000 C.ar      1 2KC401      0.0000 
     19 C19        11.3420   20.4120   21.8710 C.ar      1 2KC401      0.0000 
     20 C20        11.9260   19.8840   20.7340 C.ar      1 2KC401      0.0000 
     21 C21        11.1530   19.5490   19.6280 C.ar      1 2KC401      0.0000 
     22 C22         9.7900   19.7930   19.6770 C.ar      1 2KC401      0.0000 
     23 C23         9.1890   20.3330   20.7860 C.ar      1 2KC401      0.0000 
     24 O24        13.2880   19.7740   20.7170 O.3       1 2KC401      0.0000 
     25 C25        13.0470   23.8500   27.2700 C.3       1 2KC401      0.0000 
     26 N26        14.3050   22.3350   25.7630 N.4       1 2KC401      0.0000 
     27 BR27        8.7010   19.4170   18.1590 Br        1 2KC401      0.0000 
     28 H          10.2888   22.4675   24.1666 H         1 2KC401      0.0000 
     29 H           9.7653   21.6441   26.4238 H         1 2KC401      0.0000 
     30 H          10.4112   23.1482   27.1024 H         1 2KC401      0.0000 
     31 H          11.9529   21.1401   25.4124 H         1 2KC401      0.0000 
     32 H          12.0795   21.3579   27.1664 H         1 2KC401      0.0000 
     33 H          12.6695   23.1158   23.8813 H         1 2KC401      0.0000 
     34 H          13.2363   24.6034   24.6596 H         1 2KC401      0.0000 
     35 H          11.0429   24.9688   25.6683 H         1 2KC401      0.0000 
     36 H          10.9072   24.8198   23.9078 H         1 2KC401      0.0000 
     37 H           6.1699   18.1280   23.3629 H         1 2KC401      0.0000 
     38 H           6.5957   23.5679   26.7467 H         1 2KC401      0.0000 
     39 H           5.0426   21.5878   26.5918 H         1 2KC401      0.0000 
     40 H           9.8930   21.8744   23.5943 H         1 2KC401      0.0000 
     41 H           8.5849   24.2012   24.0459 H         1 2KC401      0.0000 
     42 H           8.6982   24.4628   25.7949 H         1 2KC401      0.0000 
     43 H          11.9149   20.6482   22.6885 H         1 2KC401      0.0000 
     44 H          11.5807   19.1341   18.8022 H         1 2KC401      0.0000 
     45 H           8.1823   20.5231   20.8000 H         1 2KC401      0.0000 
     46 H          13.3013   23.3233   28.0811 H         1 2KC401      0.0000 
     47 H          13.7349   24.5672   27.1587 H         1 2KC401      0.0000 
     48 H          12.1803   24.3045   27.4755 H         1 2KC401      0.0000 
     49 H          15.0090   23.0316   25.6248 H         1 2KC401      0.0000 
     50 H          14.6009   21.7677   26.5315 H         1 2KC401      0.0000 
     51 H          14.3061   21.7519   24.9506 H         1 2KC401      0.0000 
     52 H          13.4672   18.7970   20.6012 H         1 2KC401      0.0000 
@<TRIPOS>BOND
     1    2    1 1    
     2    6    1 1    
     3   16    1 1    
     4   28    1 1    
     5    3    2 1    
     6   29    2 1    
     7   30    2 1    
     8    4    3 1    
     9   31    3 1    
    10   32    3 1    
    11    5    4 1    
    12   25    4 1    
    13   26    4 1    
    14    6    5 1    
    15   33    5 1    
    16   34    5 1    
    17   35    6 1    
    18   36    6 1    
    19    8    7 2    
    20   17    7 1    
    21    9    8 1    
    22   37    8 1    
    23   10    9 2    
    24   11   10 1    
    25   15   10 1    
    26   12   11 2    
    27   17   11 1    
    28   13   12 1    
    29   16   12 1    
    30   14   13 2    
    31   38   13 1    
    32   17   14 1    
    33   39   14 1    
    34   18   15 1    
    35   40   15 1    
    36   41   16 1    
    37   42   16 1    
    38   19   18 ar   
    39   23   18 ar   
    40   20   19 ar   
    41   43   19 1    
    42   21   20 ar   
    43   24   20 1    
    44   22   21 ar   
    45   44   21 1    
    46   23   22 ar   
    47   27   22 1    
    48   45   23 1    
    49   52   24 1    
    50   46   25 1    
    51   47   25 1    
    52   48   25 1    
    53   49   26 1    
    54   50   26 1    
    55   51   26 1    
@<TRIPOS>SUBSTRUCTURE
     1 2KC401      1 GROUP   
@<TRIPOS>SET

