#    Name: 1FRB_1_CAVITY_N1_6.mol2
#    Modification time : Mon Mar 10 23:50:14 2014

@<TRIPOS>MOLECULE
1FRB_1_CAVITY_N1_6.mol2
   73     0     5     0     0
SMALL
NO_CHARGES


@<TRIPOS>ATOM
      1 CA         76.2494   -3.8800   21.1798 C.3       4 GLY6        0.0000 
      2 CZ         75.1482   -3.9524   22.1958 C.ar      3 PHE5        0.0000 
      3 CA         75.9142   -5.2671   20.7177 C.3       4 GLY6        0.0000 
      4 CZ         74.8131   -5.3396   21.7336 C.ar      3 PHE5        0.0000 
      5 CZ         73.7119   -5.4120   22.7496 C.ar      3 PHE5        0.0000 
      6 CZ         72.2755   -6.8715   23.3033 C.ar      3 PHE5        0.0000 
      7 CA         78.2167   -0.2850   23.5685 C.3       4 GLY6        0.0000 
      8 CA         77.8815   -1.6721   23.1063 C.3       4 GLY6        0.0000 
      9 CA         76.7803   -1.7445   24.1222 C.3       4 GLY6        0.0000 
     10 CA         77.5464   -3.0592   22.6441 C.3       4 GLY6        0.0000 
     11 CA         76.4452   -3.1316   23.6601 C.3       4 GLY6        0.0000 
     12 CA         77.2112   -4.4463   22.1820 C.3       4 GLY6        0.0000 
     13 CZ         76.1100   -4.5187   23.1979 C.ar      3 PHE5        0.0000 
     14 CA         76.8760   -5.8334   21.7198 C.3       4 GLY6        0.0000 
     15 DU         75.7749   -5.9058   22.7357 H         5 CUB7        0.0000 
     16 CZ         74.6737   -5.9783   23.7517 C.ar      3 PHE5        0.0000 
     17 CA         75.4397   -7.2930   22.2736 C.3       4 GLY6        0.0000 
     18 CZ         74.3385   -7.3654   23.2895 C.ar      3 PHE5        0.0000 
     19 CZ         73.2373   -7.4378   24.3055 C.ar      3 PHE5        0.0000 
     20 CA         72.1362   -7.5102   25.3214 C.3       4 GLY6        0.0000 
     21 DU         72.9022   -8.8249   23.8433 H         5 CUB7        0.0000 
     22 CA         71.8010   -8.8974   24.8592 C.3       4 GLY6        0.0000 
     23 CA         70.3647  -10.3569   25.4130 C.3       4 GLY6        0.0000 
     24 N          79.1785   -0.8513   24.5706 N.2       2 ALA2        0.0000 
     25 CZ         78.0773   -0.9237   25.5865 C.ar      3 PHE5        0.0000 
     26 CA         78.8433   -2.2384   24.1084 C.3       4 GLY6        0.0000 
     27 CZ         77.7421   -2.3108   25.1244 C.ar      3 PHE5        0.0000 
     28 CZ         76.6410   -2.3832   26.1403 C.ar      3 PHE5        0.0000 
     29 CA         78.5082   -3.6255   23.6462 C.3       4 GLY6        0.0000 
     30 DU         77.4070   -3.6979   24.6622 H         5 CUB7        0.0000 
     31 CZ         76.3058   -3.7703   25.6781 C.ar      3 PHE5        0.0000 
     32 CA         78.1730   -5.0126   23.1841 C.3       4 GLY6        0.0000 
     33 CZ         77.0718   -5.0850   24.2000 C.ar      3 PHE5        0.0000 
     34 CZ         75.9706   -5.1575   25.2160 C.ar      3 PHE5        0.0000 
     35 CZ         74.8695   -5.2299   26.2319 C.ar      3 PHE5        0.0000 
     36 CZ         76.7367   -6.4721   23.7379 C.ar      3 PHE5        0.0000 
     37 O          75.6355   -6.5446   24.7538 O.2       2 ALA2        0.0000 
     38 CZ         74.5343   -6.6170   25.7698 C.ar      3 PHE5        0.0000 
     39 CZ         73.4331   -6.6894   26.7857 C.ar      3 PHE5        0.0000 
     40 CZ         76.4015   -7.8592   23.2757 C.ar      3 PHE5        0.0000 
     41 O          75.3003   -7.9317   24.2916 O.2       2 ALA2        0.0000 
     42 N          74.1991   -8.0041   25.3076 N.2       2 ALA2        0.0000 
     43 CA         73.0980   -8.0765   26.3235 C.3       4 GLY6        0.0000 
     44 O          74.9652   -9.3188   23.8295 O.2       2 ALA2        0.0000 
     45 N          73.8640   -9.3912   24.8454 N.2       2 ALA2        0.0000 
     46 N          72.7628   -9.4636   25.8614 N.2       2 ALA2        0.0000 
     47 N          72.4276  -10.8507   25.3992 N.2       2 ALA2        0.0000 
     48 CZ         80.1403   -1.4176   25.5727 C.ar      3 PHE5        0.0000 
     49 CA         80.9063   -2.7322   24.0946 C.3       4 GLY6        0.0000 
     50 CZ         79.8051   -2.8047   25.1105 C.ar      3 PHE5        0.0000 
     51 CZ         78.7040   -2.8771   26.1265 C.ar      3 PHE5        0.0000 
     52 CA         79.4700   -4.1918   24.6484 C.3       4 GLY6        0.0000 
     53 CZ         78.3688   -4.2642   25.6643 C.ar      3 PHE5        0.0000 
     54 O          77.2676   -4.3366   26.6803 O.2       2 ALA2        0.0000 
     55 CZ         76.1664   -4.4091   27.6962 C.ar      3 PHE5        0.0000 
     56 CZ         78.0336   -5.6513   25.2021 C.ar      3 PHE5        0.0000 
     57 DU         76.9325   -5.7237   26.2181 H         5 CUB7        0.0000 
     58 CZ         75.8313   -5.7962   27.2340 C.ar      3 PHE5        0.0000 
     59 O          76.5973   -7.1109   25.7559 O.2       2 ALA2        0.0000 
     60 O          75.4961   -7.1833   26.7719 O.2       2 ALA2        0.0000 
     61 O          75.1610   -8.5704   26.3097 O.2       2 ALA2        0.0000 
     62 OG         82.2033   -1.9114   25.5589 O.2       1 SER1        0.0000 
     63 CA         81.8681   -3.2985   25.0967 C.3       4 GLY6        0.0000 
     64 CZ         80.7669   -3.3710   26.1127 C.ar      3 PHE5        0.0000 
     65 CZ         81.5330   -4.6856   24.6345 C.ar      3 PHE5        0.0000 
     66 CZ         80.4318   -4.7581   25.6505 C.ar      3 PHE5        0.0000 
     67 CZ         79.3306   -4.8305   26.6664 C.ar      3 PHE5        0.0000 
     68 O          78.2294   -4.9029   27.6824 O.2       2 ALA2        0.0000 
     69 N          77.1282   -4.9754   28.6983 N.2       2 ALA2        0.0000 
     70 CZ         78.9954   -6.2176   26.2043 C.ar      3 PHE5        0.0000 
     71 CZ         77.8943   -6.2900   27.2202 C.ar      3 PHE5        0.0000 
     72 CZ         76.7931   -6.3625   28.2362 C.ar      3 PHE5        0.0000 
     73 O          77.5591   -7.6771   26.7581 O.2       2 ALA2        0.0000 
@<TRIPOS>BOND
@<TRIPOS>SUBSTRUCTURE
     1 SER1       62 GROUP   
     2 ALA2       24 GROUP   
     3 PHE5        2 GROUP   
     4 GLY6        1 GROUP   
     5 CUB7       15 GROUP   
@<TRIPOS>SET

