#    Name: 1frb_ZST_1_INTS_M
#    Modification time : Tue Mar 25 02:02:08 2014

@<TRIPOS>MOLECULE
1frb_ZST_1_INTS_M
   51     0     6     0     0
SMALL
NO_CHARGES


@<TRIPOS>ATOM
      1 CA         78.5580   -1.8700   26.1550 C.3       2 GLC5        0.0000 
      2 CA         78.2660   -2.3980   24.1280 C.3       6 GLL5        0.0000 
      3 CA         78.8500   -1.3420   28.1820 C.3       4 GLP5        0.0000 
      4 CA         79.2725   -3.0985   22.8175 C.3       2 GLC5        0.0000 
      5 CA         80.2790   -3.7990   21.5070 C.3       4 GLP5        0.0000 
      6 CA         76.6760   -1.3400   23.4295 C.3       2 GLC5        0.0000 
      7 CA         75.0860   -0.2820   22.7310 C.3       4 GLP5        0.0000 
      8 CA         75.5905   -1.1575   24.3280 C.3       2 GLC5        0.0000 
      9 CA         76.0950   -2.0330   25.9250 C.3       6 GLL5        0.0000 
     10 CA         79.4805   -7.6810   26.3040 C.3       2 GLC5        0.0000 
     11 CA         78.9220   -6.0960   27.0140 C.3       6 GLL5        0.0000 
     12 CA         80.0390   -9.2660   25.5940 C.3       4 GLP5        0.0000 
     13 CA         78.3410   -7.6700   28.3300 C.3       2 GLC5        0.0000 
     14 CA         77.7600   -9.2440   29.6460 C.3       4 GLP5        0.0000 
     15 CA         80.4305   -5.7010   27.8085 C.3       2 GLC5        0.0000 
     16 CA         81.9390   -5.3060   28.6030 C.3       4 GLP5        0.0000 
     17 N          77.2255   -3.5130   29.0070 N.am      1 SEC2        0.0000 
     18 N          77.5440   -4.8870   28.5070 N.am      5 SEL2        0.0000 
     19 N          76.9070   -2.1390   29.5070 N.am      3 SEP2        0.0000 
     20 N          79.3230   -7.3205   30.1060 N.am      1 SEC2        0.0000 
     21 N          78.9670   -6.2710   29.3990 N.am      5 SEL2        0.0000 
     22 N          79.6790   -8.3700   30.8130 N.am      3 SEP2        0.0000 
     23 N          78.2205   -5.7955   30.4735 N.am      1 SEC2        0.0000 
     24 N          77.4740   -5.3200   31.5480 N.am      3 SEP2        0.0000 
     25 CA         76.7110    3.6730   30.8635 C.3       2 GLC5        0.0000 
     26 CA         75.9720    3.7240   29.0010 C.3       6 GLL5        0.0000 
     27 CA         77.4500    3.6220   32.7260 C.3       4 GLP5        0.0000 
     28 CA         77.6145    5.0365   28.9495 C.3       2 GLC5        0.0000 
     29 CA         79.2570    6.3490   28.8980 C.3       4 GLP5        0.0000 
     30 CA         73.3780    5.1530   26.7160 C.3       2 GLC5        0.0000 
     31 CA         74.5920    4.2480   27.4620 C.3       6 GLL5        0.0000 
     32 CA         72.1640    6.0580   25.9700 C.3       4 GLP5        0.0000 
     33 CA         77.4655    5.8660   26.2190 C.3       2 GLC5        0.0000 
     34 CA         76.6670    4.4230   27.1390 C.3       6 GLL5        0.0000 
     35 CA         78.2640    7.3090   25.2990 C.3       4 GLP5        0.0000 
     36 CA         77.9620    5.3860   28.0185 C.3       2 GLC5        0.0000 
     37 CA         75.4879    1.0889   29.3705 C.3       2 GLC5        0.0000 
     38 CA         74.7980    0.0210   27.3720 C.3       6 GLL5        0.0000 
     39 CA         75.7030    0.7240   31.3770 C.3       4 GLP5        0.0000 
     40 CA         75.2900    2.8152   25.2447 C.3       2 GLC5        0.0000 
     41 CA         75.7520    2.2230   27.1900 C.3       6 GLL5        0.0000 
     42 CA         74.3410    3.6250   23.7360 C.3       4 GLP5        0.0000 
     43 CA         75.7922    0.3044   24.5027 C.3       2 GLC5        0.0000 
     44 CA         76.7260    1.7880   26.3170 C.3       6 GLL5        0.0000 
     45 CA         74.0740    4.7509   29.1479 C.3       2 GLC5        0.0000 
     46 CA         72.9220    5.5360   30.3900 C.3       4 GLP5        0.0000 
     47 CA         77.2558    2.5996   28.5561 C.3       2 GLC5        0.0000 
     48 CA         75.7480    3.6430   27.6980 C.3       6 GLL5        0.0000 
     49 CA         78.2480    1.1460   29.3680 C.3       4 GLP5        0.0000 
     50 CA         75.5277    4.5531   25.6163 C.3       2 GLC5        0.0000 
     51 CA         75.1370    4.9220   23.8730 C.3       4 GLP5        0.0000 
@<TRIPOS>BOND
@<TRIPOS>SUBSTRUCTURE
     1 SEC2       17 GROUP        1 X    SEC  0     ROOT SEC X 2
     2 GLC5        1 GROUP        1 X    GLC  0     **** GLC X 6
     3 SEP2       19 GROUP        1 Y    SEP  0     ROOT SEP Y 9
     4 GLP5        3 GROUP        1 Y    GLP  0     **** GLP Y 13
     5 SEL2       18 GROUP        1 Z    SEL  0     ROOT SEL Z 16
     6 GLL5        2 GROUP        1 Z    GLL  0     **** GLL Z 20
@<TRIPOS>SET

