#    Name: 1frb_ZST_1_ligand
#    Modification time : Tue Mar 25 02:02:08 2014

@<TRIPOS>MOLECULE
1frb_ZST_1_ligand
   40    43     1     0     0
SMALL
NO_CHARGES


@<TRIPOS>ATOM
      1 C1         76.7250   -4.2660   23.8110 C.2       1 ZST351      0.0000 
      2 O1         76.2640   -3.7050   22.8110 O.2       1 ZST351      0.0000 
      3 C2         76.2040   -5.4940   24.3900 C.ar      1 ZST351      0.0000 
      4 C3         76.8780   -6.1000   25.4580 C.ar      1 ZST351      0.0000 
      5 C4         78.0910   -5.4670   25.9330 C.2       1 ZST351      0.0000 
      6 C5         75.0250   -6.0580   23.9030 C.ar      1 ZST351      0.0000 
      7 C6         74.5140   -7.1920   24.4960 C.ar      1 ZST351      0.0000 
      8 C7         75.1790   -7.7940   25.5510 C.ar      1 ZST351      0.0000 
      9 C8         76.3510   -7.2630   26.0330 C.ar      1 ZST351      0.0000 
     10 N1         77.8430   -3.7700   24.4180 N.am      1 ZST351      0.0000 
     11 N2         78.5480   -4.3530   25.4590 N.2       1 ZST351      0.0000 
     12 C9         78.2660   -2.3980   24.1280 C.3       1 ZST351      0.0000 
     13 C10        77.4510   -1.4510   24.9900 C.2       1 ZST351      0.0000 
     14 C11        75.7930   -0.4450   26.4960 C.ar      1 ZST351      0.0000 
     15 C12        76.7490    0.4320   25.9680 C.ar      1 ZST351      0.0000 
     16 C13        74.7980    0.0210   27.3720 C.ar      1 ZST351      0.0000 
     17 C14        74.7890    1.3480   27.7040 C.ar      1 ZST351      0.0000 
     18 C15        75.7520    2.2230   27.1900 C.ar      1 ZST351      0.0000 
     19 C16        76.7260    1.7880   26.3170 C.ar      1 ZST351      0.0000 
     20 N3         77.6810   -0.1830   25.1060 N.2       1 ZST351      0.0000 
     21 S1         76.0950   -2.0330   25.9250 S.3       1 ZST351      0.0000 
     22 C17        78.9220   -6.0960   27.0140 C.3       1 ZST351      0.0000 
     23 C18        78.4540   -5.7380   28.3900 C.2       1 ZST351      0.0000 
     24 O2         77.5440   -4.8870   28.5070 O.co2     1 ZST351      0.0000 
     25 O3         78.9670   -6.2710   29.3990 O.co2     1 ZST351      0.0000 
     26 C19        75.7480    3.6430   27.6980 C.3       1 ZST351      0.0000 
     27 F1         75.9720    3.7240   29.0010 F         1 ZST351      0.0000 
     28 F2         74.5920    4.2480   27.4620 F         1 ZST351      0.0000 
     29 F3         76.6670    4.4230   27.1390 F         1 ZST351      0.0000 
     30 H          74.5449   -5.6238   23.1046 H         1 ZST351      0.0000 
     31 H          73.6268   -7.5992   24.1526 H         1 ZST351      0.0000 
     32 H          74.7854   -8.6523   25.9774 H         1 ZST351      0.0000 
     33 H          76.8491   -7.7100   26.8140 H         1 ZST351      0.0000 
     34 H          78.0950   -2.1527   23.0826 H         1 ZST351      0.0000 
     35 H          79.3196   -2.2605   24.3588 H         1 ZST351      0.0000 
     36 H          74.1058   -0.6293   27.7427 H         1 ZST351      0.0000 
     37 H          74.0648    1.7235   28.3438 H         1 ZST351      0.0000 
     38 H          77.4156    2.4281   25.9303 H         1 ZST351      0.0000 
     39 H          79.9731   -5.7819   26.8920 H         1 ZST351      0.0000 
     40 H          78.9014   -7.1931   26.8947 H         1 ZST351      0.0000 
@<TRIPOS>BOND
     1    2    1 2    
     2    3    1 1    
     3   10    1 am   
     4    4    3 ar   
     5    6    3 ar   
     6    5    4 1    
     7    9    4 ar   
     8   11    5 2    
     9   22    5 1    
    10    7    6 ar   
    11   30    6 1    
    12    8    7 ar   
    13   31    7 1    
    14    9    8 ar   
    15   32    8 1    
    16   33    9 1    
    17   11   10 1    
    18   12   10 1    
    19   13   12 1    
    20   34   12 1    
    21   35   12 1    
    22   20   13 2    
    23   21   13 1    
    24   15   14 ar   
    25   16   14 ar   
    26   21   14 1    
    27   19   15 ar   
    28   20   15 1    
    29   17   16 ar   
    30   36   16 1    
    31   18   17 ar   
    32   37   17 1    
    33   19   18 ar   
    34   26   18 1    
    35   38   19 1    
    36   23   22 1    
    37   39   22 1    
    38   40   22 1    
    39   24   23 ar   
    40   25   23 ar   
    41   27   26 1    
    42   28   26 1    
    43   29   26 1    
@<TRIPOS>SUBSTRUCTURE
     1 ZST351      1 GROUP   
@<TRIPOS>SET

