#    Name: 2PDN_1_CAVITY_N1_6.mol2
#    Modification time : Tue Mar 11 05:07:53 2014

@<TRIPOS>MOLECULE
2PDN_1_CAVITY_N1_6.mol2
   86     0     4     0     0
SMALL
NO_CHARGES


@<TRIPOS>ATOM
      1 CA         22.5310    5.3509  -12.2251 C.3       3 GLY6        0.0000 
      2 CA         23.0079    5.4550  -13.6435 C.3       3 GLY6        0.0000 
      3 CA         21.5359    6.6527  -10.8778 C.3       3 GLY6        0.0000 
      4 CA         22.0128    6.7568  -12.2962 C.3       3 GLY6        0.0000 
      5 CZ         22.4897    6.8609  -13.7146 C.ar      2 PHE5        0.0000 
      6 CZ         22.7127    8.8755   -7.1463 C.ar      2 PHE5        0.0000 
      7 CZ         22.3421    8.5711  -10.4660 C.ar      2 PHE5        0.0000 
      8 CZ         21.0177    8.0585  -10.9489 C.ar      2 PHE5        0.0000 
      9 CZ         21.4946    8.1626  -12.3673 C.ar      2 PHE5        0.0000 
     10 CZ         19.6933    7.5459  -11.4318 C.ar      2 PHE5        0.0000 
     11 CA         20.1702    7.6500  -12.8502 C.3       3 GLY6        0.0000 
     12 CZ         20.6471    7.7541  -14.2686 C.ar      2 PHE5        0.0000 
     13 CA         18.3689    7.0333  -11.9148 C.3       3 GLY6        0.0000 
     14 CZ         16.5676    6.4167  -10.9794 C.ar      2 PHE5        0.0000 
     15 CA         15.2432    5.9041  -11.4623 C.3       3 GLY6        0.0000 
     16 CA         15.7201    6.0082  -12.8807 C.3       3 GLY6        0.0000 
     17 CA         14.3957    5.4956  -13.3636 C.3       3 GLY6        0.0000 
     18 N          14.8726    5.5997  -14.7819 N.2       1 ALA2        0.0000 
     19 CA         13.0713    4.9830  -13.8465 C.3       3 GLY6        0.0000 
     20 DU         23.5188   10.7940   -6.7345 H         4 CUB7        0.0000 
     21 DU         23.9957   10.8981   -8.1528 H         4 CUB7        0.0000 
     22 DU         24.4727   11.0022   -9.5712 H         4 CUB7        0.0000 
     23 CZ         22.1944   10.2814   -7.2174 C.ar      2 PHE5        0.0000 
     24 CZ         22.6714   10.3855   -8.6358 C.ar      2 PHE5        0.0000 
     25 DU         23.1483   10.4896  -10.0541 H         4 CUB7        0.0000 
     26 CZ         21.3470    9.8729   -9.1187 C.ar      2 PHE5        0.0000 
     27 CZ         21.8239    9.9770  -10.5370 C.ar      2 PHE5        0.0000 
     28 CZ         20.4995    9.4644  -11.0200 C.ar      2 PHE5        0.0000 
     29 CZ         20.9764    9.5685  -12.4383 C.ar      2 PHE5        0.0000 
     30 CZ         19.1751    8.9518  -11.5029 C.ar      2 PHE5        0.0000 
     31 CZ         19.6520    9.0559  -12.9213 C.ar      2 PHE5        0.0000 
     32 CZ         17.3738    8.3351  -10.5675 C.ar      2 PHE5        0.0000 
     33 CZ         17.8507    8.4392  -11.9858 C.ar      2 PHE5        0.0000 
     34 CA         18.3276    8.5433  -13.4042 C.3       3 GLY6        0.0000 
     35 O          18.8045    8.6474  -14.8226 O.2       1 ALA2        0.0000 
     36 CZ         16.0494    7.8225  -11.0504 C.ar      2 PHE5        0.0000 
     37 CA         16.5263    7.9266  -12.4688 C.3       3 GLY6        0.0000 
     38 O          17.0032    8.0307  -13.8871 O.2       1 ALA2        0.0000 
     39 CZ         14.7250    7.3099  -11.5334 C.ar      2 PHE5        0.0000 
     40 CZ         15.2019    7.4140  -12.9517 C.ar      2 PHE5        0.0000 
     41 O          15.6788    7.5181  -14.3701 O.2       1 ALA2        0.0000 
     42 CZ         13.4006    6.7973  -12.0163 C.ar      2 PHE5        0.0000 
     43 CZ         13.8775    6.9014  -13.4347 C.ar      2 PHE5        0.0000 
     44 CZ         14.3544    7.0055  -14.8530 C.ar      2 PHE5        0.0000 
     45 O          24.8019   12.8165   -7.7409 O.2       1 ALA2        0.0000 
     46 N          23.0006   12.1998   -6.8055 N.2       1 ALA2        0.0000 
     47 O          23.4775   12.3039   -8.2239 O.2       1 ALA2        0.0000 
     48 CA         21.6762   11.6872   -7.2885 C.3       3 GLY6        0.0000 
     49 O          22.1531   11.7913   -8.7068 O.2       1 ALA2        0.0000 
     50 O          22.6300   11.8954  -10.1252 O.2       1 ALA2        0.0000 
     51 CA         20.3518   11.1746   -7.7714 C.3       3 GLY6        0.0000 
     52 CZ         20.8287   11.2787   -9.1898 C.ar      2 PHE5        0.0000 
     53 CZ         21.3057   11.3828  -10.6081 C.ar      2 PHE5        0.0000 
     54 CZ         19.0274   10.6620   -8.2543 C.ar      2 PHE5        0.0000 
     55 CZ         19.5044   10.7661   -9.6727 C.ar      2 PHE5        0.0000 
     56 DU         19.9813   10.8702  -11.0910 H         4 CUB7        0.0000 
     57 CZ         20.4582   10.9743  -12.5094 C.ar      2 PHE5        0.0000 
     58 CZ         18.1800   10.2535  -10.1556 C.ar      2 PHE5        0.0000 
     59 DU         18.6569   10.3576  -11.5740 H         4 CUB7        0.0000 
     60 CZ         19.1338   10.4617  -12.9923 C.ar      2 PHE5        0.0000 
     61 CZ         19.6107   10.5658  -14.4107 C.ar      2 PHE5        0.0000 
     62 O          16.8556    9.7409  -10.6386 O.2       1 ALA2        0.0000 
     63 CZ         17.3325    9.8450  -12.0569 C.ar      2 PHE5        0.0000 
     64 CZ         17.8094    9.9491  -13.4753 C.ar      2 PHE5        0.0000 
     65 CA         18.2863   10.0532  -14.8936 C.3       3 GLY6        0.0000 
     66 CZ         16.4850    9.4365  -13.9582 C.ar      2 PHE5        0.0000 
     67 N          22.4824   13.6057   -6.8766 N.2       1 ALA2        0.0000 
     68 N          21.1580   13.0931   -7.3595 N.2       1 ALA2        0.0000 
     69 CA         19.8336   12.5805   -7.8425 C.3       3 GLY6        0.0000 
     70 O          20.3105   12.6846   -9.2608 O.2       1 ALA2        0.0000 
     71 O          20.7874   12.7887  -10.6792 O.2       1 ALA2        0.0000 
     72 CA         18.5092   12.0679   -8.3254 C.3       3 GLY6        0.0000 
     73 DU         18.9861   12.1720   -9.7438 H         4 CUB7        0.0000 
     74 CZ         19.4631   12.2761  -11.1621 C.ar      2 PHE5        0.0000 
     75 CZ         19.9400   12.3802  -12.5805 C.ar      2 PHE5        0.0000 
     76 O          17.6618   11.6594  -10.2267 O.2       1 ALA2        0.0000 
     77 CZ         18.1387   11.7635  -11.6450 C.ar      2 PHE5        0.0000 
     78 CA         18.6156   11.8676  -13.0634 C.3       3 GLY6        0.0000 
     79 CZ         17.2912   11.3550  -13.5463 C.ar      2 PHE5        0.0000 
     80 CZ         19.7923   14.0904   -9.3319 C.ar      2 PHE5        0.0000 
     81 CZ         18.4679   13.5778   -9.8148 C.ar      2 PHE5        0.0000 
     82 CZ         18.9448   13.6819  -11.2332 C.ar      2 PHE5        0.0000 
     83 CZ         19.4217   13.7860  -12.6515 C.ar      2 PHE5        0.0000 
     84 N          17.1435   13.0652  -10.2978 N.2       1 ALA2        0.0000 
     85 CZ         17.6204   13.1693  -11.7161 C.ar      2 PHE5        0.0000 
     86 CZ         18.0974   13.2734  -13.1345 C.ar      2 PHE5        0.0000 
@<TRIPOS>BOND
@<TRIPOS>SUBSTRUCTURE
     1 ALA2       18 GROUP   
     2 PHE5        5 GROUP   
     3 GLY6        1 GROUP   
     4 CUB7       20 GROUP   
@<TRIPOS>SET

