#    Name: 2pdn_47D_1_INTS_M
#    Modification time : Mon Mar 24 18:51:35 2014

@<TRIPOS>MOLECULE
2pdn_47D_1_INTS_M
   57     0     6     0     0
SMALL
NO_CHARGES


@<TRIPOS>ATOM
      1 N          17.0265    7.1370  -14.9375 N.am      1 SEC2        0.0000 
      2 N          16.5640    8.1220  -13.8180 N.am      5 SEL2        0.0000 
      3 N          17.4890    6.1520  -16.0570 N.am      3 SEP2        0.0000 
      4 CA         16.6770   10.2510  -13.4580 C.3       2 GLC5        0.0000 
      5 CA         18.6200    9.4670  -13.7720 C.3       6 GLL5        0.0000 
      6 CA         14.7340   11.0350  -13.1440 C.3       4 GLP5        0.0000 
      7 CA         20.3740   10.0535  -14.1745 C.3       2 GLC5        0.0000 
      8 CA         22.1280   10.6400  -14.5770 C.3       4 GLP5        0.0000 
      9 CA         17.9925   10.8305  -15.2410 C.3       2 GLC5        0.0000 
     10 CA         17.3650   12.1940  -16.7100 C.3       4 GLP5        0.0000 
     11 CA         18.4915    7.3540  -13.8765 C.3       2 GLC5        0.0000 
     12 CA         18.3630    5.2410  -13.9810 C.3       4 GLP5        0.0000 
     13 CA         20.6810   14.1680  -11.5835 C.3       2 GLC5        0.0000 
     14 CA         19.0620   13.6670  -11.4130 C.3       6 GLL5        0.0000 
     15 CA         22.3000   14.6690  -11.7540 C.3       4 GLP5        0.0000 
     16 CA         19.0130   15.0170   -9.8255 C.3       2 GLC5        0.0000 
     17 CA         18.9640   16.3670   -8.2380 C.3       4 GLP5        0.0000 
     18 CA         17.8915   14.6770  -12.4765 C.3       2 GLC5        0.0000 
     19 CA         16.7210   15.6870  -13.5400 C.3       4 GLP5        0.0000 
     20 N          17.2680   16.2020  -10.1025 N.am      1 SEC2        0.0000 
     21 N          17.1920   14.9400  -10.5940 N.am      5 SEL2        0.0000 
     22 N          17.3440   17.4640   -9.6110 N.am      3 SEP2        0.0000 
     23 N          16.1345   14.7800   -9.7945 N.am      1 SEC2        0.0000 
     24 N          15.0770   14.6200   -8.9950 N.am      3 SEP2        0.0000 
     25 N          15.7740   11.9685  -10.5130 N.am      1 SEC2        0.0000 
     26 N          17.1790   12.7380  -10.3690 N.am      5 SEL2        0.0000 
     27 N          14.3690   11.1990  -10.6570 N.am      3 SEP2        0.0000 
     28 CA         20.1620    9.2290   -9.6995 C.3       2 GLC5        0.0000 
     29 CA         20.8600   10.5560  -10.9860 C.3       6 GLL5        0.0000 
     30 CA         19.4640    7.9020   -8.4130 C.3       4 GLP5        0.0000 
     31 CA         13.7550    7.9265   -8.8485 C.3       2 GLC5        0.0000 
     32 CA         14.7660    7.6480  -10.7410 C.3       6 GLL5        0.0000 
     33 CA         12.7440    8.2050   -6.9560 C.3       4 GLP5        0.0000 
     34 CA         12.2205    7.6285  -13.0650 C.3       2 GLC5        0.0000 
     35 CA         12.1270    5.6200  -13.0420 C.3       6 GLL5        0.0000 
     36 CA         12.3140    9.6370  -13.0880 C.3       4 GLP5        0.0000 
     37 CA         10.8510    5.0710  -11.9240 C.3       2 GLC5        0.0000 
     38 CA          9.5750    4.5220  -10.8060 C.3       4 GLP5        0.0000 
     39 CA         13.1925    4.1735  -12.9065 C.3       2 GLC5        0.0000 
     40 CA         14.2580    2.7270  -12.7710 C.3       4 GLP5        0.0000 
     41 CA         11.9375    4.5090  -14.4075 C.3       2 GLC5        0.0000 
     42 CA         11.7480    3.3980  -15.7730 C.3       4 GLP5        0.0000 
     43 CA         10.7755    5.9415  -14.1090 C.3       2 GLC5        0.0000 
     44 CA          9.4240    6.2630  -15.1760 C.3       4 GLP5        0.0000 
     45 CA         21.5358   12.4565  -11.8528 C.3       2 GLC5        0.0000 
     46 CA         22.4200   13.7240  -12.7830 C.3       4 GLP5        0.0000 
     47 CA         21.3897   10.9145  -12.7498 C.3       2 GLC5        0.0000 
     48 CA         20.4430   11.8220  -10.8590 C.3       6 GLL5        0.0000 
     49 CA         12.7130    8.3722  -10.4402 C.3       2 GLC5        0.0000 
     50 CA         11.2100    9.4690   -9.9130 C.3       4 GLP5        0.0000 
     51 CA         14.7600    5.3297  -11.2172 C.3       2 GLC5        0.0000 
     52 CA         13.6660    6.9030  -11.1940 C.3       6 GLL5        0.0000 
     53 CA         15.3040    3.3840  -11.4670 C.3       4 GLP5        0.0000 
     54 CA         14.6530    5.0445  -12.2500 C.3       2 GLC5        0.0000 
     55 CA         13.5270    6.5550  -12.5420 C.3       6 GLL5        0.0000 
     56 CA         16.7009    6.2888  -13.4746 C.3       2 GLC5        0.0000 
     57 CA         14.4770    6.8550  -13.5240 C.3       6 GLL5        0.0000 
@<TRIPOS>BOND
@<TRIPOS>SUBSTRUCTURE
     1 SEC2        1 GROUP        1 X    SEC  0     ROOT SEC X 2
     2 GLC5        4 GROUP        1 X    GLC  0     **** GLC X 6
     3 SEP2        3 GROUP        1 Y    SEP  0     ROOT SEP Y 9
     4 GLP5        6 GROUP        1 Y    GLP  0     **** GLP Y 13
     5 SEL2        2 GROUP        1 Z    SEL  0     ROOT SEL Z 16
     6 GLL5        5 GROUP        1 Z    GLL  0     **** GLL Z 20
@<TRIPOS>SET

