#    Name: 2pdn_47D_1_ligand
#    Modification time : Mon Mar 24 18:51:35 2014

@<TRIPOS>MOLECULE
2pdn_47D_1_ligand
   32    34     1     0     0
SMALL
NO_CHARGES


@<TRIPOS>ATOM
      1 C1         15.5290    7.6470  -13.0810 C.ar      1 47D600      0.0000 
      2 N          16.5640    8.1220  -13.8180 N.2       1 47D600      0.0000 
      3 C2         17.4370    8.7730  -13.1640 C.2       1 47D600      0.0000 
      4 C3         18.6200    9.4670  -13.7720 C.3       1 47D600      0.0000 
      5 N2         19.2910   10.2790  -12.7650 N.am      1 47D600      0.0000 
      6 C4         18.9250   11.5720  -12.5690 C.2       1 47D600      0.0000 
      7 O1         18.0490   12.0520  -13.2780 O.2       1 47D600      0.0000 
      8 N3         19.4880   12.2980  -11.6450 N.am      1 47D600      0.0000 
      9 C5         19.0620   13.6670  -11.4130 C.3       1 47D600      0.0000 
     10 C6         17.7920   13.7580  -10.6280 C.2       1 47D600      0.0000 
     11 O2         17.1920   14.9400  -10.5940 O.co2     1 47D600      0.0000 
     12 O3         17.1790   12.7380  -10.3690 O.co2     1 47D600      0.0000 
     13 C7         20.4430   11.8220  -10.8590 C.2       1 47D600      0.0000 
     14 C8         20.8600   10.5560  -10.9860 C.2       1 47D600      0.0000 
     15 C9         20.2600    9.7070  -12.0060 C.2       1 47D600      0.0000 
     16 O4         20.6020    8.5350  -12.1690 O.2       1 47D600      0.0000 
     17 S          17.1190    8.9330  -11.4060 S.3       1 47D600      0.0000 
     18 C10        15.6720    7.9890  -11.7440 C.ar      1 47D600      0.0000 
     19 C12        14.7660    7.6480  -10.7410 C.ar      1 47D600      0.0000 
     20 C13        13.6660    6.9030  -11.1940 C.ar      1 47D600      0.0000 
     21 C14        13.5270    6.5550  -12.5420 C.ar      1 47D600      0.0000 
     22 CL         12.1270    5.6200  -13.0420 Cl        1 47D600      0.0000 
     23 C15        14.4770    6.8550  -13.5240 C.ar      1 47D600      0.0000 
     24 H          18.2757   10.0914  -14.6044 H         1 47D600      0.0000 
     25 H          19.3038    8.7126  -14.1777 H         1 47D600      0.0000 
     26 H          18.9186   14.1943  -12.3791 H         1 47D600      0.0000 
     27 H          19.8520   14.2296  -10.8732 H         1 47D600      0.0000 
     28 H          20.8804   12.4383  -10.1283 H         1 47D600      0.0000 
     29 H          21.5874   10.1402  -10.4002 H         1 47D600      0.0000 
     30 H          14.8827    7.9043   -9.7981 H         1 47D600      0.0000 
     31 H          12.9439    6.6059  -10.5154 H         1 47D600      0.0000 
     32 H          14.4018    6.5286  -14.4536 H         1 47D600      0.0000 
@<TRIPOS>BOND
     1    2    1 1    
     2   18    1 ar   
     3   23    1 ar   
     4    3    2 2    
     5    4    3 1    
     6   17    3 1    
     7    5    4 1    
     8   24    4 1    
     9   25    4 1    
    10    6    5 am   
    11   15    5 am   
    12    7    6 2    
    13    8    6 am   
    14    9    8 1    
    15   13    8 1    
    16   10    9 1    
    17   26    9 1    
    18   27    9 1    
    19   11   10 ar   
    20   12   10 ar   
    21   14   13 2    
    22   28   13 1    
    23   15   14 1    
    24   29   14 1    
    25   16   15 2    
    26   18   17 1    
    27   19   18 ar   
    28   20   19 ar   
    29   30   19 1    
    30   21   20 ar   
    31   31   20 1    
    32   22   21 1    
    33   23   21 ar   
    34   32   23 1    
@<TRIPOS>SUBSTRUCTURE
     1 47D600      1 GROUP   
@<TRIPOS>SET

