#    Name: 1hsh_MK1_1_INTS_M
#    Modification time : Tue Mar 25 05:44:51 2014

@<TRIPOS>MOLECULE
1hsh_MK1_1_INTS_M
  108     0     9     0     0
SMALL
NO_CHARGES


@<TRIPOS>ATOM
      1 CA         19.9435    1.4520    8.7730 C.3       3 GLC5        0.0000 
      2 CA         17.9040    0.8640    9.0220 C.3       9 GLL5        0.0000 
      3 CA         21.9830    2.0400    8.5240 C.3       6 GLP5        0.0000 
      4 CA         14.9310   -2.0315    8.7805 C.3       3 GLC5        0.0000 
      5 CA         16.4940   -0.6600    7.9530 C.3       9 GLL5        0.0000 
      6 CA         13.3680   -3.4030    9.6080 C.3       6 GLP5        0.0000 
      7 CA         17.5905   -2.3020    8.0095 C.3       3 GLC5        0.0000 
      8 CA         18.6870   -3.9440    8.0660 C.3       6 GLP5        0.0000 
      9 CA         15.9055   -2.2125    6.8435 C.3       3 GLC5        0.0000 
     10 CA         15.3170   -3.7650    5.7340 C.3       6 GLP5        0.0000 
     11 CA         15.0920   -2.0150   11.2590 C.3       3 GLC5        0.0000 
     12 CA         16.1200   -0.3140   10.5490 C.3       9 GLL5        0.0000 
     13 CA         14.0640   -3.7160   11.9690 C.3       6 GLP5        0.0000 
     14 CA         17.4415    0.0680   11.6710 C.3       3 GLC5        0.0000 
     15 CA         18.7630    0.4500   12.7930 C.3       6 GLP5        0.0000 
     16 CA         14.3145    0.0700   11.4805 C.3       3 GLC5        0.0000 
     17 CA         12.5090    0.4540   12.4120 C.3       6 GLP5        0.0000 
     18 CA         10.2540    6.0290    8.9160 C.3       3 GLC5        0.0000 
     19 CA         10.7520    4.1370    8.9100 C.3       9 GLL5        0.0000 
     20 CA          9.7560    7.9210    8.9220 C.3       6 GLP5        0.0000 
     21 CA          9.3930    2.6860    9.8275 C.3       3 GLC5        0.0000 
     22 CA          8.0340    1.2350   10.7450 C.3       6 GLP5        0.0000 
     23 CA         13.3170    3.6050    4.8085 C.3       3 GLC5        0.0000 
     24 CA         12.7070    2.0400    6.3020 C.3       9 GLL5        0.0000 
     25 CA         13.9270    5.1700    3.3150 C.3       6 GLP5        0.0000 
     26 CA         14.6555    2.6370    5.7595 C.3       3 GLC5        0.0000 
     27 CA         16.6040    3.2340    5.2170 C.3       6 GLP5        0.0000 
     28 N          11.0970    2.4405    4.1025 N.am      2 SEC2        0.0000 
     29 N          11.8160    1.0600    4.2690 N.am      8 SEL2        0.0000 
     30 N          10.3780    3.8210    3.9360 N.am      5 SEP2        0.0000 
     31 O          13.0020    0.5435    3.8405 O.2       1 ALC1        0.0000 
     32 O          11.8160    1.0600    4.2690 O.2       7 ALL1        0.0000 
     33 O          14.1880    0.0270    3.4120 O.2       4 ALP1        0.0000 
     34 CA         12.5255   -3.0860    7.6620 C.3       3 GLC5        0.0000 
     35 CA         11.6830   -2.7690    5.7160 C.3       9 GLL5        0.0000 
     36 CA         11.6555   -3.7140    2.3560 C.3       3 GLC5        0.0000 
     37 CA         10.4000   -4.2230    4.1150 C.3       9 GLL5        0.0000 
     38 CA         12.9110   -3.2050    0.5970 C.3       6 GLP5        0.0000 
     39 CA         11.9900   -4.7585    7.8790 C.3       3 GLC5        0.0000 
     40 CA         10.3260   -4.6920    6.4830 C.3       9 GLL5        0.0000 
     41 CA         13.6540   -4.8250    9.2750 C.3       6 GLP5        0.0000 
     42 O           9.1910   -1.5990    3.4975 O.2       1 ALC1        0.0000 
     43 O           8.6380   -1.9010    5.0490 O.2       7 ALL1        0.0000 
     44 O           9.7440   -1.2970    1.9460 O.2       4 ALP1        0.0000 
     45 N           6.6530   -1.8675    2.0390 N.am      2 SEC2        0.0000 
     46 N           7.1820   -2.9470    3.1220 N.am      8 SEL2        0.0000 
     47 N           6.1240   -0.7880    0.9560 N.am      5 SEP2        0.0000 
     48 CA          3.4375    1.2215    6.3670 C.3       3 GLC5        0.0000 
     49 CA          4.1270    0.2010    4.7200 C.3       9 GLL5        0.0000 
     50 CA          2.7480    2.2420    8.0140 C.3       6 GLP5        0.0000 
     51 CA          2.0310    0.7160    4.8950 C.3       3 GLC5        0.0000 
     52 CA         -0.0650    1.2310    5.0700 C.3       6 GLP5        0.0000 
     53 CA          3.5440    2.4105    6.1145 C.3       3 GLC5        0.0000 
     54 CA          4.5010    1.4360    5.2500 C.3       9 GLL5        0.0000 
     55 CA          2.5870    3.3850    6.9790 C.3       6 GLP5        0.0000 
     56 CA          4.2440    1.9300    6.9515 C.3       3 GLC5        0.0000 
     57 CA          5.7400    1.6180    5.8890 C.3       9 GLL5        0.0000 
     58 CA         10.6110    6.4540   10.0640 C.3       3 GLC5        0.0000 
     59 CA         11.4660    4.9870   11.2060 C.3       9 GLL5        0.0000 
     60 CA         11.1420    6.2055   14.4360 C.3       3 GLC5        0.0000 
     61 CA         13.1230    5.3490   14.6790 C.3       9 GLL5        0.0000 
     62 CA          9.1610    7.0620   14.1930 C.3       6 GLP5        0.0000 
     63 CA         14.0105    3.4610   14.8930 C.3       3 GLC5        0.0000 
     64 CA         14.8980    1.5730   15.1070 C.3       6 GLP5        0.0000 
     65 CA         12.7647    1.6990   10.8420 C.3       3 GLC5        0.0000 
     66 CA         12.7330    3.1970    9.9370 C.3       9 GLL5        0.0000 
     67 CA         17.9650    0.5343   10.9305 C.3       3 GLC5        0.0000 
     68 CA         16.8933    0.8761    6.7268 C.3       3 GLC5        0.0000 
     69 CA         16.4300    0.3730    9.1140 C.3       9 GLL5        0.0000 
     70 CA         16.9560    1.7730    4.9430 C.3       6 GLP5        0.0000 
     71 CA          9.1352    4.2462    7.5118 C.3       3 GLC5        0.0000 
     72 CA         11.2470    3.6340    7.5410 C.3       9 GLL5        0.0000 
     73 CA          7.2710    4.6070    6.7980 C.3       6 GLP5        0.0000 
     74 CA         13.2875   -3.5635    5.6480 C.3       3 GLC5        0.0000 
     75 CA         11.7233   -5.4315    4.3712 C.3       3 GLC5        0.0000 
     76 CA         10.8330   -3.9550    5.4080 C.3       9 GLL5        0.0000 
     77 CA         12.8300   -6.7740    3.9810 C.3       6 GLP5        0.0000 
     78 CA         11.0107   -6.1772    4.2105 C.3       3 GLC5        0.0000 
     79 CA          9.4470   -5.2180    3.8990 C.3       9 GLL5        0.0000 
     80 CA          9.0458   -4.2123    8.0392 C.3       3 GLC5        0.0000 
     81 CA          9.3790   -5.6790    6.2700 C.3       9 GLL5        0.0000 
     82 CA          8.2390   -3.2390    9.7020 C.3       6 GLP5        0.0000 
     83 CA         10.6827   -6.7348    7.3157 C.3       3 GLC5        0.0000 
     84 CA         11.5130   -8.2840    8.2550 C.3       6 GLP5        0.0000 
     85 CA         11.3412   -5.9798    5.1787 C.3       3 GLC5        0.0000 
     86 CA          7.3302   -0.8890    3.3822 C.3       3 GLC5        0.0000 
     87 CA          7.2200   -2.0180    5.3980 C.3       9 GLL5        0.0000 
     88 CA          7.8310    0.6460    1.8970 C.3       6 GLP5        0.0000 
     89 CA          5.0600   -2.4977    2.4160 C.3       3 GLC5        0.0000 
     90 CA          6.4390   -2.8300    4.3370 C.3       9 GLL5        0.0000 
     91 CA          4.3810   -2.4430    0.4960 C.3       6 GLP5        0.0000 
     92 CA          5.9802    0.8027    3.6545 C.3       3 GLC5        0.0000 
     93 CA          5.0260   -0.8500    4.8220 C.3       9 GLL5        0.0000 
     94 CA          7.3840    1.9300    2.5380 C.3       6 GLP5        0.0000 
     95 CA          3.7440   -0.3442    6.4975 C.3       3 GLC5        0.0000 
     96 CA          3.1740   -1.5070    8.0100 C.3       6 GLP5        0.0000 
     97 CA          6.2523    1.7285    4.0537 C.3       3 GLC5        0.0000 
     98 CA          3.0154    0.5219    3.7163 C.3       3 GLC5        0.0000 
     99 CA          1.4920    0.4880    2.4220 C.3       6 GLP5        0.0000 
    100 CA          6.2070    1.8242    7.7713 C.3       3 GLC5        0.0000 
    101 CA          6.2070    2.5540    9.5870 C.3       6 GLP5        0.0000 
    102 CA          6.9648    0.9317    4.1520 C.3       3 GLC5        0.0000 
    103 CA          6.6740    0.5710    6.0220 C.3       9 GLL5        0.0000 
    104 CA          6.5841    2.8280    6.2969 C.3       3 GLC5        0.0000 
    105 CA          4.4494   -1.3201    6.5271 C.3       3 GLC5        0.0000 
    106 CA          6.4170   -0.7040    5.5100 C.3       9 GLL5        0.0000 
    107 CA         10.4700    5.3751   13.2145 C.3       3 GLC5        0.0000 
    108 CA          8.8020    5.6900   13.7270 C.3       6 GLP5        0.0000 
@<TRIPOS>BOND
@<TRIPOS>SUBSTRUCTURE
     1 ALC1       31 GROUP        1 X    ALC  0     ROOT ALC X 1
     2 SEC2       28 GROUP        1 X    SEC  0     **** SEC X 2
     3 GLC5        1 GROUP        1 X    GLC  0     **** GLC X 6
     4 ALP1       33 GROUP        1 Y    ALP  0     ROOT ALP Y 8
     5 SEP2       30 GROUP        1 Y    SEP  0     **** SEP Y 9
     6 GLP5        3 GROUP        1 Y    GLP  0     **** GLP Y 13
     7 ALL1       32 GROUP        1 Z    ALL  0     ROOT ALL Z 15
     8 SEL2       29 GROUP        1 Z    SEL  0     **** SEL Z 16
     9 GLL5        2 GROUP        1 Z    GLL  0     **** GLL Z 20
@<TRIPOS>SET

