#    Name: 1hsh_MK1_1_ligand
#    Modification time : Tue Mar 25 05:44:51 2014

@<TRIPOS>MOLECULE
1hsh_MK1_1_ligand
   93    97     1     0     0
SMALL
NO_CHARGES


@<TRIPOS>ATOM
      1 N1         11.8340    4.3590    9.9060 N.3       1 MK1401      0.0000 
      2 C1         12.7330    3.1970    9.9370 C.3       1 MK1401      0.0000 
      3 C2         13.3080    2.6910    8.6070 C.3       1 MK1401      0.0000 
      4 C3         14.1000    1.4240    8.8820 C.2       1 MK1401      0.0000 
      5 O1         13.5090    0.3830    9.1850 O.2       1 MK1401      0.0000 
      6 N2         15.4300    1.5170    8.8220 N.am      1 MK1401      0.0000 
      7 C4         16.4300    0.3730    9.1140 C.3       1 MK1401      0.0000 
      8 C5         17.9040    0.8640    9.0220 C.3       1 MK1401      0.0000 
      9 C6         16.4940   -0.6600    7.9530 C.3       1 MK1401      0.0000 
     10 C7         16.1200   -0.3140   10.5490 C.3       1 MK1401      0.0000 
     11 N3         12.2600    2.5380    7.5910 N.4       1 MK1401      0.0000 
     12 C8         11.2470    3.6340    7.5410 C.3       1 MK1401      0.0000 
     13 C9         10.7520    4.1370    8.9100 C.3       1 MK1401      0.0000 
     14 C10        12.7070    2.0400    6.3020 C.3       1 MK1401      0.0000 
     15 C11        11.7170    1.0420    5.6970 C.3       1 MK1401      0.0000 
     16 O2         11.8160    1.0600    4.2690 O.3       1 MK1401      0.0000 
     17 C12        11.8960   -0.4230    6.0910 C.3       1 MK1401      0.0000 
     18 C13        11.0140   -1.4400    5.3650 C.3       1 MK1401      0.0000 
     19 C14        11.6830   -2.7690    5.7160 C.3       1 MK1401      0.0000 
     20 C15        10.8330   -3.9550    5.4080 C.ar      1 MK1401      0.0000 
     21 C16        10.4000   -4.2230    4.1150 C.ar      1 MK1401      0.0000 
     22 C17         9.4470   -5.2180    3.8990 C.ar      1 MK1401      0.0000 
     23 C18         8.9360   -5.9430    4.9810 C.ar      1 MK1401      0.0000 
     24 C19         9.3790   -5.6790    6.2700 C.ar      1 MK1401      0.0000 
     25 C20        10.3260   -4.6920    6.4830 C.ar      1 MK1401      0.0000 
     26 C21         9.5570   -1.3850    5.8630 C.2       1 MK1401      0.0000 
     27 O3          9.2740   -0.9040    6.9590 O.2       1 MK1401      0.0000 
     28 N4          8.6380   -1.9010    5.0490 N.am      1 MK1401      0.0000 
     29 C22         7.2200   -2.0180    5.3980 C.3       1 MK1401      0.0000 
     30 C23         6.4390   -2.8300    4.3370 C.3       1 MK1401      0.0000 
     31 O4          7.1820   -2.9470    3.1220 O.3       1 MK1401      0.0000 
     32 C24         5.0390   -2.2750    4.3350 C.3       1 MK1401      0.0000 
     33 C25         5.0260   -0.8500    4.8220 C.ar      1 MK1401      0.0000 
     34 C26         4.1270    0.2010    4.7200 C.ar      1 MK1401      0.0000 
     35 C27         4.5010    1.4360    5.2500 C.ar      1 MK1401      0.0000 
     36 C28         5.7400    1.6180    5.8890 C.ar      1 MK1401      0.0000 
     37 C29         6.6740    0.5710    6.0220 C.ar      1 MK1401      0.0000 
     38 C30         6.4170   -0.7040    5.5100 C.ar      1 MK1401      0.0000 
     39 C31        11.4660    4.9870   11.2060 C.3       1 MK1401      0.0000 
     40 C32        12.5180    5.3700   12.3280 C.ar      1 MK1401      0.0000 
     41 C33        13.6040    6.2000   12.0930 C.ar      1 MK1401      0.0000 
     42 N5         14.5190    6.6560   13.1340 N.ar      1 MK1401      0.0000 
     43 C34        14.1940    6.1760   14.4180 C.ar      1 MK1401      0.0000 
     44 C35        13.1230    5.3490   14.6790 C.ar      1 MK1401      0.0000 
     45 C36        12.2840    4.9420   13.6370 C.ar      1 MK1401      0.0000 
     46 H          12.2139    2.3262   10.4296 H         1 MK1401      0.0000 
     47 H          13.6049    3.4074   10.6196 H         1 MK1401      0.0000 
     48 H          14.0322    3.4607    8.2776 H         1 MK1401      0.0000 
     49 H          15.9224    2.4156    8.5598 H         1 MK1401      0.0000 
     50 H          11.6083    1.6160    8.0243 H         1 MK1401      0.0000 
     51 H          10.3613    3.3001    6.9592 H         1 MK1401      0.0000 
     52 H          11.6618    4.5034    6.9873 H         1 MK1401      0.0000 
     53 H          10.1899    5.0761    8.7453 H         1 MK1401      0.0000 
     54 H          10.0228    3.4015    9.3001 H         1 MK1401      0.0000 
     55 H          13.6833    1.5357    6.3910 H         1 MK1401      0.0000 
     56 H          12.8360    2.8659    5.5832 H         1 MK1401      0.0000 
     57 H          10.7027    1.3379    5.9810 H         1 MK1401      0.0000 
     58 H          11.7207   -0.5205    7.1869 H         1 MK1401      0.0000 
     59 H          12.9627   -0.7050    5.9365 H         1 MK1401      0.0000 
     60 H          11.0775   -1.2797    4.3304 H         1 MK1401      0.0000 
     61 H          11.9367   -2.7581    6.7895 H         1 MK1401      0.0000 
     62 H          12.6351   -2.8362    5.1628 H         1 MK1401      0.0000 
     63 H          10.7778   -3.6933    3.3226 H         1 MK1401      0.0000 
     64 H           9.1195   -5.4198    2.9479 H         1 MK1401      0.0000 
     65 H           8.2302   -6.6728    4.8160 H         1 MK1401      0.0000 
     66 H           9.0038   -6.2158    7.0626 H         1 MK1401      0.0000 
     67 H          10.6632   -4.4945    7.4366 H         1 MK1401      0.0000 
     68 H           8.8892   -2.2593    4.0914 H         1 MK1401      0.0000 
     69 H           7.0783   -2.5571    6.3386 H         1 MK1401      0.0000 
     70 H           6.3588   -3.8584    4.8288 H         1 MK1401      0.0000 
     71 H           4.4042   -2.8866    4.9825 H         1 MK1401      0.0000 
     72 H           4.6326   -2.3165    3.3204 H         1 MK1401      0.0000 
     73 H           3.2242    0.0794    4.2744 H         1 MK1401      0.0000 
     74 H           3.8535    2.2413    5.1733 H         1 MK1401      0.0000 
     75 H           5.9755    2.5515    6.2751 H         1 MK1401      0.0000 
     76 H           7.5671    0.7549    6.5096 H         1 MK1401      0.0000 
     77 H          10.6789    4.3369   11.7293 H         1 MK1401      0.0000 
     78 H          10.8654    5.9437   11.0059 H         1 MK1401      0.0000 
     79 H          13.8035    6.5346   11.1224 H         1 MK1401      0.0000 
     80 H          14.8137    6.4738   15.2173 H         1 MK1401      0.0000 
     81 H          12.9331    5.0261   15.6374 H         1 MK1401      0.0000 
     82 H          11.4868    4.3213   13.8370 H         1 MK1401      0.0000 
     83 H          18.5534    0.1267    9.2081 H         1 MK1401      0.0000 
     84 H          18.1200    1.2225    8.1138 H         1 MK1401      0.0000 
     85 H          18.0938    1.5943    9.6782 H         1 MK1401      0.0000 
     86 H          16.7834   -0.2365    7.0946 H         1 MK1401      0.0000 
     87 H          17.1397   -1.3983    8.1479 H         1 MK1401      0.0000 
     88 H          15.6047   -1.0852    7.7848 H         1 MK1401      0.0000 
     89 H          16.7571   -1.0581   10.7499 H         1 MK1401      0.0000 
     90 H          16.1916    0.3437   11.2989 H         1 MK1401      0.0000 
     91 H          15.1981   -0.6998   10.5846 H         1 MK1401      0.0000 
     92 H          12.7101    0.6605    4.0666 H         1 MK1401      0.0000 
     93 H           7.3073   -3.9301    2.9890 H         1 MK1401      0.0000 
@<TRIPOS>BOND
     1    2    1 1    
     2   13    1 1    
     3   39    1 1    
     4    3    2 1    
     5   46    2 1    
     6   47    2 1    
     7    4    3 1    
     8   11    3 1    
     9   48    3 1    
    10    5    4 2    
    11    6    4 am   
    12    7    6 1    
    13   49    6 1    
    14    8    7 1    
    15    9    7 1    
    16   10    7 1    
    17   83    8 1    
    18   84    8 1    
    19   85    8 1    
    20   86    9 1    
    21   87    9 1    
    22   88    9 1    
    23   89   10 1    
    24   90   10 1    
    25   91   10 1    
    26   12   11 1    
    27   14   11 1    
    28   50   11 1    
    29   13   12 1    
    30   51   12 1    
    31   52   12 1    
    32   53   13 1    
    33   54   13 1    
    34   15   14 1    
    35   55   14 1    
    36   56   14 1    
    37   16   15 1    
    38   17   15 1    
    39   57   15 1    
    40   92   16 1    
    41   18   17 1    
    42   58   17 1    
    43   59   17 1    
    44   19   18 1    
    45   26   18 1    
    46   60   18 1    
    47   20   19 1    
    48   61   19 1    
    49   62   19 1    
    50   21   20 ar   
    51   25   20 ar   
    52   22   21 ar   
    53   63   21 1    
    54   23   22 ar   
    55   64   22 1    
    56   24   23 ar   
    57   65   23 1    
    58   25   24 ar   
    59   66   24 1    
    60   67   25 1    
    61   27   26 2    
    62   28   26 am   
    63   29   28 1    
    64   68   28 1    
    65   30   29 1    
    66   38   29 1    
    67   69   29 1    
    68   31   30 1    
    69   32   30 1    
    70   70   30 1    
    71   93   31 1    
    72   33   32 1    
    73   71   32 1    
    74   72   32 1    
    75   34   33 ar   
    76   38   33 ar   
    77   35   34 ar   
    78   73   34 1    
    79   36   35 ar   
    80   74   35 1    
    81   37   36 ar   
    82   75   36 1    
    83   38   37 ar   
    84   76   37 1    
    85   40   39 1    
    86   77   39 1    
    87   78   39 1    
    88   41   40 ar   
    89   45   40 ar   
    90   42   41 ar   
    91   79   41 1    
    92   43   42 ar   
    93   44   43 ar   
    94   80   43 1    
    95   45   44 ar   
    96   81   44 1    
    97   82   45 1    
@<TRIPOS>SUBSTRUCTURE
     1 MK1401      1 GROUP   
@<TRIPOS>SET

