#    Name: 2bhh_RYU_1_INTS_M
#    Modification time : Mon Mar 24 20:58:41 2014

@<TRIPOS>MOLECULE
2bhh_RYU_1_INTS_M
   74     0     9     0     0
SMALL
NO_CHARGES


@<TRIPOS>ATOM
      1 CA          5.9680   27.5280    4.6420 C.3       3 GLC5        0.0000 
      2 CA          4.7580   25.8170    5.2500 C.3       9 GLL5        0.0000 
      3 CA          7.1780   29.2390    4.0340 C.3       6 GLP5        0.0000 
      4 CA          3.7265   25.9620    9.9835 C.3       3 GLC5        0.0000 
      5 CA          1.7690   26.2310    8.9740 C.3       9 GLL5        0.0000 
      6 CA          5.6840   25.6930   10.9930 C.3       6 GLP5        0.0000 
      7 O           3.6805   28.4985    5.3835 O.2       1 ALC1        0.0000 
      8 O           2.7760   27.3830    5.7610 O.2       7 ALL1        0.0000 
      9 O           4.5850   29.6140    5.0060 O.2       4 ALP1        0.0000 
     10 N           2.6315   30.9985    5.1710 N.am      2 SEC2        0.0000 
     11 N           1.7760   30.0130    5.5890 N.am      8 SEL2        0.0000 
     12 N           3.4870   31.9840    4.7530 N.am      5 SEP2        0.0000 
     13 O          -0.1565   31.8400    5.9910 O.2       1 ALC1        0.0000 
     14 O          -0.0180   30.5780    6.7730 O.2       7 ALL1        0.0000 
     15 O          -0.2950   33.1020    5.2090 O.2       4 ALP1        0.0000 
     16 CA         -3.2360   29.0860   11.4800 C.3       3 GLC5        0.0000 
     17 CA         -2.4550   29.2590    9.4040 C.3       9 GLL5        0.0000 
     18 CA         -4.0170   28.9130   13.5560 C.3       6 GLP5        0.0000 
     19 CA         -1.2055   32.1715    8.6875 C.3       3 GLC5        0.0000 
     20 CA         -1.8780   30.2340    8.4900 C.3       9 GLL5        0.0000 
     21 CA         -0.5330   34.1090    8.8850 C.3       6 GLP5        0.0000 
     22 N          -5.3930   26.5420   10.9025 N.am      2 SEC2        0.0000 
     23 N          -4.1580   27.6580   10.8240 N.am      8 SEL2        0.0000 
     24 N          -6.6280   25.4260   10.9810 N.am      5 SEP2        0.0000 
     25 CA         -3.5685   22.8290   12.1875 C.3       3 GLC5        0.0000 
     26 CA         -2.3020   24.6180   12.4790 C.3       9 GLL5        0.0000 
     27 CA         -4.8350   21.0400   11.8960 C.3       6 GLP5        0.0000 
     28 CA          0.7530   23.6545   13.4125 C.3       3 GLC5        0.0000 
     29 CA         -1.0040   23.8190   12.5320 C.3       9 GLL5        0.0000 
     30 CA          2.5100   23.4900   14.2930 C.3       6 GLP5        0.0000 
     31 CA         -2.8355   21.9540   11.6200 C.3       3 GLC5        0.0000 
     32 CA         -0.8360   22.8680   11.3440 C.3       9 GLL5        0.0000 
     33 O          -0.8455   21.1410   11.0955 O.2       1 ALC1        0.0000 
     34 O           0.3490   22.0640   11.3740 O.2       7 ALL1        0.0000 
     35 O          -2.0400   20.2180   10.8170 O.2       4 ALP1        0.0000 
     36 CA         -4.4715   24.9360    9.7425 C.3       3 GLC5        0.0000 
     37 CA         -2.3850   24.3500    9.9920 C.3       9 GLL5        0.0000 
     38 CA         -6.5580   25.5220    9.4930 C.3       6 GLP5        0.0000 
     39 CA          5.0723   24.9705    9.1873 C.3       3 GLC5        0.0000 
     40 CA          3.8250   24.4060    7.6960 C.3       9 GLL5        0.0000 
     41 CA          6.6390   26.3897    6.3957 C.3       3 GLC5        0.0000 
     42 CA          5.4960   24.6940    5.8070 C.3       9 GLL5        0.0000 
     43 CA          8.1510   27.5240    7.2630 C.3       6 GLP5        0.0000 
     44 CA          2.4735   25.9462    4.5230 C.3       3 GLC5        0.0000 
     45 CA          0.7740   25.8590    3.4260 C.3       6 GLP5        0.0000 
     46 CA          1.5958   25.7995    5.3610 C.3       3 GLC5        0.0000 
     47 CA          3.0690   25.4890    7.1030 C.3       9 GLL5        0.0000 
     48 CA          0.9968   26.7913    5.0812 C.3       3 GLC5        0.0000 
     49 CA          1.7140   27.1980    6.6760 C.3       9 GLL5        0.0000 
     50 CA          2.8058   27.6274    8.5972 C.3       3 GLC5        0.0000 
     51 CA          3.7080   28.6630    9.7890 C.3       6 GLP5        0.0000 
     52 CA         -1.2530   27.1612    6.2058 C.3       3 GLC5        0.0000 
     53 CA          0.7250   28.2490    6.7970 C.3       9 GLL5        0.0000 
     54 CA         -2.6530   26.0120    5.1840 C.3       6 GLP5        0.0000 
     55 CA         -0.7690   29.0682    5.6887 C.3       3 GLC5        0.0000 
     56 CA         -0.4310   28.3720    7.6580 C.3       9 GLL5        0.0000 
     57 CA         -1.6850   29.8260    4.1500 C.3       6 GLP5        0.0000 
     58 CA          1.1530   29.4217    8.1737 C.3       3 GLC5        0.0000 
     59 CA          2.1590   30.5330    9.1200 C.3       6 GLP5        0.0000 
     60 CA         -1.5137   29.9150    6.1045 C.3       3 GLC5        0.0000 
     61 CA         -0.8070   29.7740    7.6280 C.3       9 GLL5        0.0000 
     62 CA         -2.5383   31.2860    7.1720 C.3       3 GLC5        0.0000 
     63 CA         -3.7340   32.5680    6.2850 C.3       6 GLP5        0.0000 
     64 CA          0.4082   30.2685    8.5895 C.3       3 GLC5        0.0000 
     65 CA         -2.7510   26.4138    8.0425 C.3       3 GLC5        0.0000 
     66 CA         -1.0550   27.3510    8.4850 C.3       9 GLL5        0.0000 
     67 CA         -3.9870   25.2090    7.1080 C.3       6 GLP5        0.0000 
     68 CA         -1.0788   30.0926   10.5956 C.3       3 GLC5        0.0000 
     69 CA         -1.9750   27.8860    9.4690 C.3       9 GLL5        0.0000 
     70 CA         -0.1110   30.7820   12.2280 C.3       6 GLP5        0.0000 
     71 CA         -2.8575   24.5900    8.5570 C.3       3 GLC5        0.0000 
     72 CA         -1.0710   23.5920   10.0200 C.3       9 GLL5        0.0000 
     73 CA         -2.5666   22.0285    9.6165 C.3       3 GLC5        0.0000 
     74 CA         -3.4640   20.2670    8.8960 C.3       6 GLP5        0.0000 
@<TRIPOS>BOND
@<TRIPOS>SUBSTRUCTURE
     1 ALC1        7 GROUP        1 X    ALC  0     ROOT ALC X 1
     2 SEC2       10 GROUP        1 X    SEC  0     **** SEC X 2
     3 GLC5        1 GROUP        1 X    GLC  0     **** GLC X 6
     4 ALP1        9 GROUP        1 Y    ALP  0     ROOT ALP Y 8
     5 SEP2       12 GROUP        1 Y    SEP  0     **** SEP Y 9
     6 GLP5        3 GROUP        1 Y    GLP  0     **** GLP Y 13
     7 ALL1        8 GROUP        1 Z    ALL  0     ROOT ALL Z 15
     8 SEL2       11 GROUP        1 Z    SEL  0     **** SEL Z 16
     9 GLL5        2 GROUP        1 Z    GLL  0     **** GLL Z 20
@<TRIPOS>SET

