#    Name: 2bhh_RYU_1_ligand
#    Modification time : Mon Mar 24 20:58:41 2014

@<TRIPOS>MOLECULE
2bhh_RYU_1_ligand
   54    58     1     0     0
SMALL
NO_CHARGES


@<TRIPOS>ATOM
      1 C1          3.8250   24.4060    7.6960 C.ar      1 RYU1299     0.0000 
      2 C2          5.0960   24.0900    7.0670 C.ar      1 RYU1299     0.0000 
      3 C3          5.4960   24.6940    5.8070 C.ar      1 RYU1299     0.0000 
      4 C4          4.7580   25.8170    5.2500 C.ar      1 RYU1299     0.0000 
      5 C5          3.5880   26.2500    5.9900 C.ar      1 RYU1299     0.0000 
      6 C6          3.0690   25.4890    7.1030 C.ar      1 RYU1299     0.0000 
      7 C7          1.7660   25.9910    7.4890 C.3       1 RYU1299     0.0000 
      8 C71         1.7690   26.2310    8.9740 C.3       1 RYU1299     0.0000 
      9 O71         0.8090   25.1030    7.2070 O.3       1 RYU1299     0.0000 
     10 C8          1.7140   27.1980    6.6760 C.2       1 RYU1299     0.0000 
     11 N9          2.7760   27.3830    5.7610 N.pl3     1 RYU1299     0.0000 
     12 C10         0.7250   28.2490    6.7970 C.2       1 RYU1299     0.0000 
     13 C11         0.8550   29.6810    6.3290 C.2       1 RYU1299     0.0000 
     14 O11         1.7760   30.0130    5.5890 O.2       1 RYU1299     0.0000 
     15 N12        -0.0180   30.5780    6.7730 N.am      1 RYU1299     0.0000 
     16 C13        -0.8070   29.7740    7.6280 C.ar      1 RYU1299     0.0000 
     17 C14        -0.4310   28.3720    7.6580 C.ar      1 RYU1299     0.0000 
     18 C15        -1.0550   27.3510    8.4850 C.ar      1 RYU1299     0.0000 
     19 C16        -1.9750   27.8860    9.4690 C.ar      1 RYU1299     0.0000 
     20 C17        -2.4550   29.2590    9.4040 C.ar      1 RYU1299     0.0000 
     21 C18        -1.8780   30.2340    8.4900 C.ar      1 RYU1299     0.0000 
     22 S19        -2.5620   27.0040   10.9270 S.o2      1 RYU1299     0.0000 
     23 O19        -1.5140   27.5570   12.2120 O.2       1 RYU1299     0.0000 
     24 O1         -4.1580   27.6580   10.8240 O.2       1 RYU1299     0.0000 
     25 N20        -2.5120   25.2420   11.1530 N.pl3     1 RYU1299     0.0000 
     26 C21        -2.3020   24.6180   12.4790 C.3       1 RYU1299     0.0000 
     27 C22        -1.0040   23.8190   12.5320 C.3       1 RYU1299     0.0000 
     28 C23        -0.8360   22.8680   11.3440 C.3       1 RYU1299     0.0000 
     29 O23         0.3490   22.0640   11.3740 O.3       1 RYU1299     0.0000 
     30 C24        -1.0710   23.5920   10.0200 C.3       1 RYU1299     0.0000 
     31 C25        -2.3850   24.3500    9.9920 C.3       1 RYU1299     0.0000 
     32 H           3.4995   23.9118    8.4786 H         1 RYU1299     0.0000 
     33 H           5.7241   23.4270    7.5213 H         1 RYU1299     0.0000 
     34 H           6.2997   24.3283    5.3094 H         1 RYU1299     0.0000 
     35 H           5.0381   26.2565    4.4185 H         1 RYU1299     0.0000 
     36 H           2.9032   28.0595    5.1748 H         1 RYU1299     0.0000 
     37 H          -0.1265   31.4659    6.6100 H         1 RYU1299     0.0000 
     38 H          -0.8730   26.4123    8.3864 H         1 RYU1299     0.0000 
     39 H          -3.2187   29.5463   10.0175 H         1 RYU1299     0.0000 
     40 H          -2.2027   31.1641    8.4607 H         1 RYU1299     0.0000 
     41 H          -3.1358   23.9432   12.7178 H         1 RYU1299     0.0000 
     42 H          -2.2677   25.3894   13.2609 H         1 RYU1299     0.0000 
     43 H          -0.9784   23.2349   13.4618 H         1 RYU1299     0.0000 
     44 H          -0.1539   24.5142   12.5543 H         1 RYU1299     0.0000 
     45 H          -1.7399   22.1529   11.4315 H         1 RYU1299     0.0000 
     46 H          -1.0590   22.8561    9.2051 H         1 RYU1299     0.0000 
     47 H          -0.2438   24.2930    9.8461 H         1 RYU1299     0.0000 
     48 H          -2.4356   24.9265    9.0581 H         1 RYU1299     0.0000 
     49 H          -3.2076   23.6220    9.9759 H         1 RYU1299     0.0000 
     50 H           1.9542   25.3919    9.4855 H         1 RYU1299     0.0000 
     51 H           2.4656   26.8969    9.2412 H         1 RYU1299     0.0000 
     52 H           0.8895   26.5820    9.2953 H         1 RYU1299     0.0000 
     53 H           1.2877   24.3306    6.7895 H         1 RYU1299     0.0000 
     54 H           0.0376   21.1366   11.1668 H         1 RYU1299     0.0000 
@<TRIPOS>BOND
     1    2    1 ar   
     2    6    1 ar   
     3   32    1 1    
     4    3    2 ar   
     5   33    2 1    
     6    4    3 ar   
     7   34    3 1    
     8    5    4 ar   
     9   35    4 1    
    10    6    5 ar   
    11   11    5 1    
    12    7    6 1    
    13    8    7 1    
    14    9    7 1    
    15   10    7 1    
    16   50    8 1    
    17   51    8 1    
    18   52    8 1    
    19   53    9 1    
    20   11   10 1    
    21   12   10 2    
    22   36   11 1    
    23   13   12 1    
    24   17   12 1    
    25   14   13 2    
    26   15   13 am   
    27   16   15 1    
    28   37   15 1    
    29   17   16 ar   
    30   21   16 ar   
    31   18   17 ar   
    32   19   18 ar   
    33   38   18 1    
    34   20   19 ar   
    35   22   19 1    
    36   21   20 ar   
    37   39   20 1    
    38   40   21 1    
    39   23   22 2    
    40   24   22 2    
    41   25   22 1    
    42   26   25 1    
    43   31   25 1    
    44   27   26 1    
    45   41   26 1    
    46   42   26 1    
    47   28   27 1    
    48   43   27 1    
    49   44   27 1    
    50   29   28 1    
    51   30   28 1    
    52   45   28 1    
    53   54   29 1    
    54   31   30 1    
    55   46   30 1    
    56   47   30 1    
    57   48   31 1    
    58   49   31 1    
@<TRIPOS>SUBSTRUCTURE
     1 RYU1299     1 GROUP   
@<TRIPOS>SET

