#    Name: 2i80_G1L_1_INTS_M
#    Modification time : Tue Mar 25 17:32:29 2014

@<TRIPOS>MOLECULE
2i80_G1L_1_INTS_M
   61     0     6     0     0
SMALL
NO_CHARGES


@<TRIPOS>ATOM
      1 CA         14.2395    3.6920   -0.4235 C.3       2 GLC5        0.0000 
      2 CA         15.3360    2.0630   -0.1630 C.3       6 GLL5        0.0000 
      3 CA         13.1430    5.3210   -0.6840 C.3       4 GLP5        0.0000 
      4 CA         17.7260    2.3150   -2.5430 C.3       2 GLC5        0.0000 
      5 CA         17.2760    1.7380   -0.9760 C.3       6 GLL5        0.0000 
      6 CA         18.1760    2.8920   -4.1100 C.3       4 GLP5        0.0000 
      7 CA         19.1720    1.7975   -0.3380 C.3       2 GLC5        0.0000 
      8 CA         21.0680    1.8570    0.3000 C.3       4 GLP5        0.0000 
      9 CA         17.7940    0.1800   -2.1855 C.3       2 GLC5        0.0000 
     10 CA         18.3120   -1.3780   -3.3950 C.3       4 GLP5        0.0000 
     11 CA         19.0225    1.6160    0.7375 C.3       2 GLC5        0.0000 
     12 CA         16.9770    1.3750    1.1750 C.3       6 GLL5        0.0000 
     13 CA         17.3900   -0.0040    2.6605 C.3       2 GLC5        0.0000 
     14 CA         17.8030   -1.3830    4.1460 C.3       4 GLP5        0.0000 
     15 CA         17.5330   -1.1560    1.9790 C.3       2 GLC5        0.0000 
     16 CA         17.2630   -0.9290   -0.1880 C.3       6 GLL5        0.0000 
     17 CA         16.5900   -3.3070    1.4360 C.3       2 GLC5        0.0000 
     18 CA         17.1530   -2.2800   -0.3650 C.3       6 GLL5        0.0000 
     19 CA         16.0270   -4.3340    3.2370 C.3       4 GLP5        0.0000 
     20 O          14.4125   -4.4230   -0.8695 O.2       1 ALC1        0.0000 
     21 O          15.8780   -4.2370   -0.8630 O.2       5 ALL1        0.0000 
     22 O          12.9470   -4.6090   -0.8760 O.2       3 ALP1        0.0000 
     23 CA         15.7315   -8.5945   -2.7085 C.3       2 GLC5        0.0000 
     24 CA         15.2320   -6.7900   -1.5260 C.3       6 GLL5        0.0000 
     25 CA         16.2310  -10.3990   -3.8910 C.3       4 GLP5        0.0000 
     26 CA         13.4690   -6.7940   -1.8240 C.3       2 GLC5        0.0000 
     27 CA         11.7060   -6.7980   -2.1220 C.3       4 GLP5        0.0000 
     28 CA         16.9205   -8.7960   -2.9620 C.3       2 GLC5        0.0000 
     29 CA         17.6100   -7.1930   -2.0330 C.3       6 GLL5        0.0000 
     30 CA         18.9585   -7.8700   -3.3240 C.3       2 GLC5        0.0000 
     31 CA         20.3070   -8.5470   -4.6150 C.3       4 GLP5        0.0000 
     32 CA         17.4000   -6.6035   -4.1510 C.3       2 GLC5        0.0000 
     33 CA         17.1900   -6.0140   -6.2690 C.3       4 GLP5        0.0000 
     34 CA         20.0175   -6.2240    0.8410 C.3       2 GLC5        0.0000 
     35 CA         18.3260   -6.7770    1.2240 C.3       6 GLL5        0.0000 
     36 CA         21.7090   -5.6710    0.4580 C.3       4 GLP5        0.0000 
     37 CA         16.9079    3.1903   -0.2551 C.3       2 GLC5        0.0000 
     38 CA         16.4260    1.3260   -0.0430 C.3       6 GLL5        0.0000 
     39 CA         17.0380    4.8350   -0.8280 C.3       4 GLP5        0.0000 
     40 CA         16.4770    2.8814    1.8065 C.3       2 GLC5        0.0000 
     41 CA         16.5250    4.2280    3.0770 C.3       4 GLP5        0.0000 
     42 CA         14.9475    1.8904    1.5015 C.3       2 GLC5        0.0000 
     43 CA         13.4660    2.2460    2.4670 C.3       4 GLP5        0.0000 
     44 CA         17.5093   -0.9517   -1.8130 C.3       2 GLC5        0.0000 
     45 CA         16.1500   -0.1220   -0.2740 C.3       6 GLL5        0.0000 
     46 CA         17.4285   -1.9812   -1.9500 C.3       2 GLC5        0.0000 
     47 CA         15.9370   -2.8890   -0.6450 C.3       6 GLL5        0.0000 
     48 CA         16.5828   -1.3810   -2.0175 C.3       2 GLC5        0.0000 
     49 CA         14.8020   -2.0760   -0.7380 C.3       6 GLL5        0.0000 
     50 CA         13.5347   -2.0520    0.6330 C.3       2 GLC5        0.0000 
     51 CA         12.2160   -2.7200    1.9060 C.3       4 GLP5        0.0000 
     52 CA         13.5524   -0.0623    0.0240 C.3       2 GLC5        0.0000 
     53 CA         11.9400    1.1170    0.6210 C.3       4 GLP5        0.0000 
     54 CA         15.0542   -3.0613    1.1358 C.3       2 GLC5        0.0000 
     55 CA         14.7390   -3.6400    2.9630 C.3       4 GLP5        0.0000 
     56 CA         14.3957   -2.8638   -2.3902 C.3       2 GLC5        0.0000 
     57 CA         13.4220   -3.2450   -4.0890 C.3       4 GLP5        0.0000 
     58 CA         18.1683   -7.9393    2.1227 C.3       2 GLC5        0.0000 
     59 CA         16.8890   -7.2260    0.2990 C.3       6 GLL5        0.0000 
     60 CA         18.7290   -8.8770    3.4840 C.3       4 GLP5        0.0000 
     61 CA         16.8173   -5.6677    1.9992 C.3       2 GLC5        0.0000 
@<TRIPOS>BOND
@<TRIPOS>SUBSTRUCTURE
     1 ALC1       20 GROUP        1 X    ALC  0     ROOT ALC X 1
     2 GLC5        1 GROUP        1 X    GLC  0     **** GLC X 6
     3 ALP1       22 GROUP        1 Y    ALP  0     ROOT ALP Y 8
     4 GLP5        3 GROUP        1 Y    GLP  0     **** GLP Y 13
     5 ALL1       21 GROUP        1 Z    ALL  0     ROOT ALL Z 15
     6 GLL5        2 GROUP        1 Z    GLL  0     **** GLL Z 20
@<TRIPOS>SET

