#    Name: 2i80_G1L_1_ligand
#    Modification time : Tue Mar 25 17:32:29 2014

@<TRIPOS>MOLECULE
2i80_G1L_1_ligand
   31    31     1     0     0
SMALL
NO_CHARGES


@<TRIPOS>ATOM
      1 F23        15.3360    2.0630   -0.1630 F         1 G1L400      0.0000 
      2 C20        16.4260    1.3260   -0.0430 C.3       1 G1L400      0.0000 
      3 F21        17.2760    1.7380   -0.9760 F         1 G1L400      0.0000 
      4 F22        16.9770    1.3750    1.1750 F         1 G1L400      0.0000 
      5 C3         16.1500   -0.1220   -0.2740 C.ar      1 G1L400      0.0000 
      6 C2         17.2630   -0.9290   -0.1880 C.ar      1 G1L400      0.0000 
      7 C1         17.1530   -2.2800   -0.3650 C.ar      1 G1L400      0.0000 
      8 C4         14.9050   -0.6920   -0.5420 C.ar      1 G1L400      0.0000 
      9 C5         14.8020   -2.0760   -0.7380 C.ar      1 G1L400      0.0000 
     10 C6         15.9370   -2.8890   -0.6450 C.ar      1 G1L400      0.0000 
     11 N11        15.8780   -4.2370   -0.8630 N.am      1 G1L400      0.0000 
     12 C12        16.9310   -5.0830   -0.8170 C.2       1 G1L400      0.0000 
     13 O18        18.0900   -4.7490   -0.5930 O.2       1 G1L400      0.0000 
     14 C13        16.6490   -6.5530   -1.0350 C.3       1 G1L400      0.0000 
     15 C14        15.2320   -6.7900   -1.5260 C.3       1 G1L400      0.0000 
     16 C15        17.6100   -7.1930   -2.0330 C.3       1 G1L400      0.0000 
     17 C16        16.8890   -7.2260    0.2990 C.3       1 G1L400      0.0000 
     18 CL17       18.3260   -6.7770    1.2240 Cl        1 G1L400      0.0000 
     19 H          18.1878   -0.5046    0.0124 H         1 G1L400      0.0000 
     20 H          18.0060   -2.8817   -0.2890 H         1 G1L400      0.0000 
     21 H          14.0685   -0.1043   -0.5958 H         1 G1L400      0.0000 
     22 H          13.8883   -2.4945   -0.9509 H         1 G1L400      0.0000 
     23 H          14.9120   -4.6527   -1.0892 H         1 G1L400      0.0000 
     24 H          16.9909   -8.3221    0.2066 H         1 G1L400      0.0000 
     25 H          16.0697   -7.0437    1.0172 H         1 G1L400      0.0000 
     26 H          15.0568   -6.3245   -2.3935 H         1 G1L400      0.0000 
     27 H          15.0473   -7.7618   -1.6724 H         1 G1L400      0.0000 
     28 H          14.5520   -6.4576   -0.8724 H         1 G1L400      0.0000 
     29 H          18.5600   -7.1283   -1.7276 H         1 G1L400      0.0000 
     30 H          17.4115   -8.1635   -2.1697 H         1 G1L400      0.0000 
     31 H          17.5601   -6.7544   -2.9303 H         1 G1L400      0.0000 
@<TRIPOS>BOND
     1    2    1 1    
     2    3    2 1    
     3    4    2 1    
     4    5    2 1    
     5    6    5 ar   
     6    8    5 ar   
     7    7    6 ar   
     8   19    6 1    
     9   10    7 ar   
    10   20    7 1    
    11    9    8 ar   
    12   21    8 1    
    13   10    9 ar   
    14   22    9 1    
    15   11   10 1    
    16   12   11 am   
    17   23   11 1    
    18   13   12 2    
    19   14   12 1    
    20   15   14 1    
    21   16   14 1    
    22   17   14 1    
    23   26   15 1    
    24   27   15 1    
    25   28   15 1    
    26   29   16 1    
    27   30   16 1    
    28   31   16 1    
    29   18   17 1    
    30   24   17 1    
    31   25   17 1    
@<TRIPOS>SUBSTRUCTURE
     1 G1L400      1 GROUP   
@<TRIPOS>SET

