#    Name: 3o7w_SAM_1_INTS_M
#    Modification time : Tue Mar 25 03:19:48 2014

@<TRIPOS>MOLECULE
3o7w_SAM_1_INTS_M
   77     0    12     0     0
SMALL
NO_CHARGES


@<TRIPOS>ATOM
      1 O          26.8420   -4.9085   -2.0325 O.2       1 ALC1        0.0000 
      2 O          26.2390   -4.0220   -1.0480 O.2       9 ALL1        0.0000 
      3 O          27.4450   -5.7950   -3.0170 O.2       5 ALP1        0.0000 
      4 O          27.2715   -2.9610   -0.7750 O.2       1 ALC1        0.0000 
      5 O          28.3040   -1.9000   -0.5020 O.2       5 ALP1        0.0000 
      6 O          25.0560   -3.4625   -1.1215 O.2       1 ALC1        0.0000 
      7 O          23.8730   -2.9030   -1.1950 O.2       5 ALP1        0.0000 
      8 CA         25.4420   -5.8455   -1.8640 C.3       4 GLC5        0.0000 
      9 CA         26.1280   -5.0860    0.0340 C.3      12 GLL5        0.0000 
     10 CA         24.7560   -6.6050   -3.7620 C.3       8 GLP5        0.0000 
     11 NZ         24.8680   -3.2725    2.5010 N.4       3 LYC4        0.0000 
     12 NZ         26.1480   -3.2560    1.5930 N.4      11 LYL4        0.0000 
     13 NZ         23.5880   -3.2890    3.4090 N.4       7 LYP4        0.0000 
     14 NZ         26.8730   -2.7160    2.6265 N.4       3 LYC4        0.0000 
     15 NZ         27.4090   -1.2760    4.5990 N.4       7 LYP4        0.0000 
     16 N          24.8680   -3.2725    2.5010 N.am      2 SEC2        0.0000 
     17 N          26.1480   -3.2560    1.5930 N.am     10 SEL2        0.0000 
     18 N          23.5880   -3.2890    3.4090 N.am      6 SEP2        0.0000 
     19 N          26.8730   -2.7160    2.6265 N.am      2 SEC2        0.0000 
     20 N          27.5980   -2.1760    3.6600 N.am      6 SEP2        0.0000 
     21 NZ         24.3870   -4.1875    2.8395 N.4       3 LYC4        0.0000 
     22 NZ         25.1860   -5.0860    2.2700 N.4      11 LYL4        0.0000 
     23 N          24.3870   -4.1875    2.8395 N.am      2 SEC2        0.0000 
     24 N          25.1860   -5.0860    2.2700 N.am     10 SEL2        0.0000 
     25 CA         26.5740   -7.7300   -0.6375 C.3       4 GLC5        0.0000 
     26 CA         27.3990   -5.9400    0.2110 C.3      12 GLL5        0.0000 
     27 CA         25.7490   -9.5200   -1.4860 C.3       8 GLP5        0.0000 
     28 CA         29.6095   -3.2875    1.0285 C.3       4 GLC5        0.0000 
     29 CA         28.6740   -5.1370    0.5520 C.3      12 GLL5        0.0000 
     30 CA         30.5450   -1.4380    1.5050 C.3       8 GLP5        0.0000 
     31 CA         30.9325   -3.2965    1.5210 C.3       4 GLC5        0.0000 
     32 CA         31.3200   -5.1550    1.5370 C.3      12 GLL5        0.0000 
     33 CA         32.5430   -5.4445   -0.5410 C.3       4 GLC5        0.0000 
     34 CA         30.8530   -6.0300   -0.9610 C.3      12 GLL5        0.0000 
     35 CA         34.2330   -4.8590   -0.1210 C.3       8 GLP5        0.0000 
     36 CA         29.2635   -6.5220   -3.6395 C.3       4 GLC5        0.0000 
     37 CA         30.3160   -7.0220   -1.9620 C.3      12 GLL5        0.0000 
     38 CA         28.2110   -6.0220   -5.3170 C.3       8 GLP5        0.0000 
     39 O          28.8225   -9.3635   -2.8515 O.2       1 ALC1        0.0000 
     40 O          29.4830   -9.2930   -1.7860 O.2       9 ALL1        0.0000 
     41 O          28.1620   -9.4340   -3.9170 O.2       5 ALP1        0.0000 
     42 O          30.7345  -10.3330   -4.0210 O.2       1 ALC1        0.0000 
     43 O          31.6540  -10.1200   -3.2510 O.2       9 ALL1        0.0000 
     44 O          29.8150  -10.5460   -4.7910 O.2       5 ALP1        0.0000 
     45 CA         29.7490   -6.9065   -4.5910 C.3       4 GLC5        0.0000 
     46 CA         31.2870   -7.7910   -3.8650 C.3      12 GLL5        0.0000 
     47 CA         33.6335   -8.7240   -9.9570 C.3       4 GLC5        0.0000 
     48 CA         33.8840   -7.7140   -7.9640 C.3      12 GLL5        0.0000 
     49 CA         33.3830   -9.7340  -11.9500 C.3       8 GLP5        0.0000 
     50 CA         33.2590   -6.4670   -9.2135 C.3       4 GLC5        0.0000 
     51 CA         32.6340   -5.2200  -10.4630 C.3       8 GLP5        0.0000 
     52 O          35.4620   -7.9780   -9.8355 O.2       1 ALC1        0.0000 
     53 O          35.0400   -7.3230   -8.5090 O.2       9 ALL1        0.0000 
     54 O          35.8840   -8.6330  -11.1620 O.2       5 ALP1        0.0000 
     55 N          32.9825   -7.8485  -10.1060 N.am      2 SEC2        0.0000 
     56 N          32.9120   -8.2900   -8.7400 N.am     10 SEL2        0.0000 
     57 N          33.0530   -7.4070  -11.4720 N.am      6 SEP2        0.0000 
     58 CA         29.9730   -9.3950   -7.7635 C.3       4 GLC5        0.0000 
     59 CA         31.7170   -8.6810   -8.2020 C.3      12 GLL5        0.0000 
     60 CA         28.2290  -10.1090   -7.3250 C.3       8 GLP5        0.0000 
     61 CA         31.3540  -10.6550   -7.8995 C.3       4 GLC5        0.0000 
     62 CA         30.9910  -12.6290   -7.5970 C.3       8 GLP5        0.0000 
     63 CA         32.5500   -9.2075  -10.0760 C.3       4 GLC5        0.0000 
     64 CA         31.4780   -7.1045   -9.0385 C.3       4 GLC5        0.0000 
     65 CA         31.2390   -5.5280   -9.8750 C.3       8 GLP5        0.0000 
     66 N          30.8315   -9.9405   -7.0440 N.am      2 SEC2        0.0000 
     67 N          31.4470   -8.4120   -6.8750 N.am     10 SEL2        0.0000 
     68 N          30.2160  -11.4690   -7.2130 N.am      6 SEP2        0.0000 
     69 CA         32.4797   -5.2785    0.4948 C.3       4 GLC5        0.0000 
     70 CA         30.1330   -6.2410    0.6840 C.3      12 GLL5        0.0000 
     71 CA         30.1853   -4.8335   -2.5513 C.3       4 GLC5        0.0000 
     72 CA         29.7860   -3.1410   -3.6410 C.3       8 GLP5        0.0000 
     73 CA         32.5640   -9.7035   -4.5270 C.3       4 GLC5        0.0000 
     74 CA         33.6410  -11.1190   -5.7280 C.3       8 GLP5        0.0000 
     75 CA         32.0920   -6.2330   -7.4497 C.3       4 GLC5        0.0000 
     76 CA         32.3800   -7.8250   -6.1020 C.3      12 GLL5        0.0000 
     77 CA         31.1930   -4.8380   -8.5340 C.3       8 GLP5        0.0000 
@<TRIPOS>BOND
@<TRIPOS>SUBSTRUCTURE
     1 ALC1        1 GROUP        1 X    ALC  0     ROOT ALC X 1
     2 SEC2       16 GROUP        1 X    SEC  0     **** SEC X 2
     3 LYC4       11 GROUP        1 X    LYC  0     **** LYC X 4
     4 GLC5        8 GROUP        1 X    GLC  0     **** GLC X 6
     5 ALP1        3 GROUP        1 Y    ALP  0     ROOT ALP Y 8
     6 SEP2       18 GROUP        1 Y    SEP  0     **** SEP Y 9
     7 LYP4       13 GROUP        1 Y    LYP  0     **** LYP Y 11
     8 GLP5       10 GROUP        1 Y    GLP  0     **** GLP Y 13
     9 ALL1        2 GROUP        1 Z    ALL  0     ROOT ALL Z 15
    10 SEL2       17 GROUP        1 Z    SEL  0     **** SEL Z 16
    11 LYL4       12 GROUP        1 Z    LYL  0     **** LYL Z 18
    12 GLL5        9 GROUP        1 Z    GLL  0     **** GLL Z 20
@<TRIPOS>SET

