#    Name: 3o7w_SAM_1_ligand
#    Modification time : Tue Mar 25 03:19:48 2014

@<TRIPOS>MOLECULE
3o7w_SAM_1_ligand
   50    52     1     0     0
SMALL
NO_CHARGES


@<TRIPOS>ATOM
      1 N          26.2390   -4.0220   -1.0480 N.4       1 SAM801      0.0000 
      2 CA         26.1280   -5.0860    0.0340 C.3       1 SAM801      0.0000 
      3 C          25.7930   -4.4350    1.3760 C.2       1 SAM801      0.0000 
      4 O          26.1480   -3.2560    1.5930 O.co2     1 SAM801      0.0000 
      5 OXT        25.1860   -5.0860    2.2700 O.co2     1 SAM801      0.0000 
      6 CB         27.3990   -5.9400    0.2110 C.3       1 SAM801      0.0000 
      7 CG         28.6740   -5.1370    0.5520 C.3       1 SAM801      0.0000 
      8 SD         30.1330   -6.2410    0.6840 S.3       1 SAM801      0.0000 
      9 CE         31.3200   -5.1550    1.5370 C.3       1 SAM801      0.0000 
     10 C5'        30.8530   -6.0300   -0.9610 C.3       1 SAM801      0.0000 
     11 C4'        30.3160   -7.0220   -1.9620 C.3       1 SAM801      0.0000 
     12 O4'        30.9640   -6.6370   -3.1450 O.3       1 SAM801      0.0000 
     13 C3'        30.6600   -8.4900   -1.6950 C.3       1 SAM801      0.0000 
     14 O3'        29.4830   -9.2930   -1.7860 O.3       1 SAM801      0.0000 
     15 C2'        31.6870   -8.7850   -2.7870 C.3       1 SAM801      0.0000 
     16 O2'        31.6540  -10.1200   -3.2510 O.3       1 SAM801      0.0000 
     17 C1'        31.2870   -7.7910   -3.8650 C.3       1 SAM801      0.0000 
     18 N9         32.3970   -7.5120   -4.7710 N.pl3     1 SAM801      0.0000 
     19 C8         33.6130   -6.9240   -4.4730 C.2       1 SAM801      0.0000 
     20 N7         34.3190   -6.8470   -5.6420 N.2       1 SAM801      0.0000 
     21 C5         33.6020   -7.4310   -6.6290 C.ar      1 SAM801      0.0000 
     22 C6         33.8840   -7.7140   -7.9640 C.ar      1 SAM801      0.0000 
     23 N6         35.0400   -7.3230   -8.5090 N.pl3     1 SAM801      0.0000 
     24 N1         32.9120   -8.2900   -8.7400 N.ar      1 SAM801      0.0000 
     25 C2         31.7170   -8.6810   -8.2020 C.ar      1 SAM801      0.0000 
     26 N3         31.4470   -8.4120   -6.8750 N.ar      1 SAM801      0.0000 
     27 C4         32.3800   -7.8250   -6.1020 C.ar      1 SAM801      0.0000 
     28 H          25.3042   -5.7579   -0.2126 H         1 SAM801      0.0000 
     29 H          27.5775   -6.5077   -0.7169 H         1 SAM801      0.0000 
     30 H          27.2225   -6.6778    1.0108 H         1 SAM801      0.0000 
     31 H          28.6469   -4.6858    1.5130 H         1 SAM801      0.0000 
     32 H          28.9702   -4.4652   -0.2153 H         1 SAM801      0.0000 
     33 H          31.9052   -6.1367   -0.7632 H         1 SAM801      0.0000 
     34 H          30.6072   -5.0071   -1.1864 H         1 SAM801      0.0000 
     35 H          29.2633   -6.9015   -2.0523 H         1 SAM801      0.0000 
     36 H          31.1479   -8.5361   -0.7541 H         1 SAM801      0.0000 
     37 H          32.6455   -8.4750   -2.4127 H         1 SAM801      0.0000 
     38 H          30.4450   -8.1818   -4.3801 H         1 SAM801      0.0000 
     39 H          33.8951   -6.6326   -3.6174 H         1 SAM801      0.0000 
     40 H          35.4588   -6.5056   -8.1134 H         1 SAM801      0.0000 
     41 H          35.3825   -7.8830   -9.2635 H         1 SAM801      0.0000 
     42 H          31.0187   -9.1735   -8.7784 H         1 SAM801      0.0000 
     43 H          26.9556   -3.3558   -0.8416 H         1 SAM801      0.0000 
     44 H          26.4566   -4.4199   -1.9392 H         1 SAM801      0.0000 
     45 H          25.3861   -3.5112   -1.1554 H         1 SAM801      0.0000 
     46 H          32.2424   -5.5413    1.5380 H         1 SAM801      0.0000 
     47 H          31.3792   -4.2560    1.1030 H         1 SAM801      0.0000 
     48 H          31.0647   -5.0032    2.4919 H         1 SAM801      0.0000 
     49 H          28.9146   -8.8419   -2.4741 H         1 SAM801      0.0000 
     50 H          30.6842  -10.3227   -3.3869 H         1 SAM801      0.0000 
@<TRIPOS>BOND
     1    2    1 1    
     2   43    1 1    
     3   44    1 1    
     4   45    1 1    
     5    3    2 1    
     6    6    2 1    
     7   28    2 1    
     8    4    3 ar   
     9    5    3 ar   
    10    7    6 1    
    11   29    6 1    
    12   30    6 1    
    13    8    7 1    
    14   31    7 1    
    15   32    7 1    
    16    9    8 1    
    17   10    8 1    
    18   46    9 1    
    19   47    9 1    
    20   48    9 1    
    21   11   10 1    
    22   33   10 1    
    23   34   10 1    
    24   12   11 1    
    25   13   11 1    
    26   35   11 1    
    27   17   12 1    
    28   14   13 1    
    29   15   13 1    
    30   36   13 1    
    31   49   14 1    
    32   16   15 1    
    33   17   15 1    
    34   37   15 1    
    35   50   16 1    
    36   18   17 1    
    37   38   17 1    
    38   19   18 1    
    39   27   18 1    
    40   20   19 2    
    41   39   19 1    
    42   21   20 1    
    43   22   21 ar   
    44   27   21 ar   
    45   23   22 1    
    46   24   22 ar   
    47   40   23 1    
    48   41   23 1    
    49   25   24 ar   
    50   26   25 ar   
    51   42   25 1    
    52   27   26 ar   
@<TRIPOS>SUBSTRUCTURE
     1 SAM801      1 GROUP   
@<TRIPOS>SET

