#    Name: 2uwd_2GG_1_INTS_M
#    Modification time : Tue Mar 25 00:24:34 2014

@<TRIPOS>MOLECULE
2uwd_2GG_1_INTS_M
   52     0     6     0     0
SMALL
NO_CHARGES


@<TRIPOS>ATOM
      1 CA         33.7415    9.6875   26.9000 C.3       2 GLC5        0.0000 
      2 CA         33.8030    7.9190   25.7240 C.3       6 GLL5        0.0000 
      3 CA         33.6800   11.4560   28.0760 C.3       4 GLP5        0.0000 
      4 CA         32.1330    9.5990   27.8485 C.3       2 GLC5        0.0000 
      5 CA         31.4680    8.5170   26.2370 C.3       6 GLL5        0.0000 
      6 CA         32.7980   10.6810   29.4600 C.3       4 GLP5        0.0000 
      7 O          30.7725    8.0510   30.4500 O.2       1 ALC1        0.0000 
      8 O          31.5370    7.0580   29.6330 O.2       5 ALL1        0.0000 
      9 O          30.0080    9.0440   31.2670 O.2       3 ALP1        0.0000 
     10 CA         31.1160    4.4200   29.3645 C.3       2 GLC5        0.0000 
     11 CA         32.0110    5.9860   30.5390 C.3       6 GLL5        0.0000 
     12 CA         30.2210    2.8540   28.1900 C.3       4 GLP5        0.0000 
     13 CA         30.2040    6.0445   30.1860 C.3       2 GLC5        0.0000 
     14 CA         28.3970    6.1030   29.8330 C.3       4 GLP5        0.0000 
     15 CA         34.3700   13.5130   21.8455 C.3       2 GLC5        0.0000 
     16 CA         33.5480   12.4520   22.7020 C.3       6 GLL5        0.0000 
     17 CA         35.1920   14.5740   20.9890 C.3       4 GLP5        0.0000 
     18 O          27.2850   10.9650   24.1840 O.2       1 ALC1        0.0000 
     19 O          28.3380   10.3530   24.5620 O.2       5 ALL1        0.0000 
     20 O          26.2320   11.5770   23.8060 O.2       3 ALP1        0.0000 
     21 CA         36.5108    7.9057   23.8178 C.3       2 GLC5        0.0000 
     22 CA         34.4180    6.7760   23.6490 C.3       6 GLL5        0.0000 
     23 CA         38.4260    8.7480   23.3660 C.3       4 GLP5        0.0000 
     24 CA         31.9577    8.0938   22.1988 C.3       2 GLC5        0.0000 
     25 CA         33.0590    6.7530   23.2680 C.3       6 GLL5        0.0000 
     26 CA         31.3390    9.1450   20.6990 C.3       4 GLP5        0.0000 
     27 CA         31.2728    5.4392   23.0697 C.3       2 GLC5        0.0000 
     28 CA         29.9690    3.8360   22.4410 C.3       4 GLP5        0.0000 
     29 CA         35.8410    7.9225   26.7355 C.3       2 GLC5        0.0000 
     30 CA         34.7730    7.3510   24.8900 C.3       6 GLL5        0.0000 
     31 CA         37.3940    8.2100   28.1640 C.3       4 GLP5        0.0000 
     32 CA         29.4665    8.2383   26.0053 C.3       2 GLC5        0.0000 
     33 CA         27.8470    7.3830   25.9000 C.3       4 GLP5        0.0000 
     34 CA         31.5960   11.3970   26.5012 C.3       2 GLC5        0.0000 
     35 CA         30.7040    9.6700   25.9840 C.3       6 GLL5        0.0000 
     36 CA         32.4790   12.7130   27.5910 C.3       4 GLP5        0.0000 
     37 CA         28.9903    9.0245   25.2005 C.3       2 GLC5        0.0000 
     38 CA         30.7220   10.4920   24.8390 C.3       6 GLL5        0.0000 
     39 CA         32.2298   12.0600   25.7078 C.3       2 GLC5        0.0000 
     40 CA         31.9450   11.0010   24.3910 C.3       6 GLL5        0.0000 
     41 CA         32.0605   10.6387   21.8395 C.3       2 GLC5        0.0000 
     42 CA         32.0160   11.8130   23.2580 C.3       6 GLL5        0.0000 
     43 CA         30.2107   13.9202   22.5217 C.3       2 GLC5        0.0000 
     44 CA         29.5990   11.6240   23.0020 C.3       6 GLL5        0.0000 
     45 CA         30.2070   15.9630   22.2520 C.3       4 GLP5        0.0000 
     46 CA         28.2520   10.1010   22.6333 C.3       2 GLC5        0.0000 
     47 CA         26.9320    8.9700   21.6840 C.3       4 GLP5        0.0000 
     48 CA         30.8329   10.2402   22.1446 C.3       2 GLC5        0.0000 
     49 CA         29.5450   10.8400   24.1630 C.3       6 GLL5        0.0000 
     50 CA         29.7944   12.7822   24.7696 C.3       2 GLC5        0.0000 
     51 CA         30.8300   12.1310   22.5810 C.3       6 GLL5        0.0000 
     52 CA         29.2620   14.2290   25.9490 C.3       4 GLP5        0.0000 
@<TRIPOS>BOND
@<TRIPOS>SUBSTRUCTURE
     1 ALC1        7 GROUP        1 X    ALC  0     ROOT ALC X 1
     2 GLC5        1 GROUP        1 X    GLC  0     **** GLC X 6
     3 ALP1        9 GROUP        1 Y    ALP  0     ROOT ALP Y 8
     4 GLP5        3 GROUP        1 Y    GLP  0     **** GLP Y 13
     5 ALL1        8 GROUP        1 Z    ALL  0     ROOT ALL Z 15
     6 GLL5        2 GROUP        1 Z    GLL  0     **** GLL Z 20
@<TRIPOS>SET

