#    Name: 2uwd_2GG_1_ligand
#    Modification time : Tue Mar 25 00:24:34 2014

@<TRIPOS>MOLECULE
2uwd_2GG_1_ligand
   44    46     1     0     0
SMALL
NO_CHARGES


@<TRIPOS>ATOM
      1 C22        35.1100    5.6100   21.6240 C.3       1 2GG1228     0.0000 
      2 O21        35.4350    6.2380   22.9030 O.3       1 2GG1228     0.0000 
      3 C18        34.4180    6.7760   23.6490 C.ar      1 2GG1228     0.0000 
      4 C19        33.0590    6.7530   23.2680 C.ar      1 2GG1228     0.0000 
      5 C20        32.0940    7.3320   24.1290 C.ar      1 2GG1228     0.0000 
      6 C17        34.7730    7.3510   24.8900 C.ar      1 2GG1228     0.0000 
      7 C16        33.8030    7.9190   25.7240 C.ar      1 2GG1228     0.0000 
      8 C7         32.4480    7.9140   25.3780 C.ar      1 2GG1228     0.0000 
      9 C3         31.4680    8.5170   26.2370 C.2       1 2GG1228     0.0000 
     10 C2         31.0410    8.0900   27.5120 C.2       1 2GG1228     0.0000 
     11 C8         31.5650    6.9080   28.2960 C.2       1 2GG1228     0.0000 
     12 O9         32.0520    5.9280   27.7380 O.2       1 2GG1228     0.0000 
     13 N10        31.5370    7.0580   29.6330 N.am      1 2GG1228     0.0000 
     14 C26        32.0110    5.9860   30.5390 C.3       1 2GG1228     0.0000 
     15 C27        33.4920    6.2160   30.8900 C.3       1 2GG1228     0.0000 
     16 N1         30.0930    8.8920   28.0040 N.2       1 2GG1228     0.0000 
     17 C4         30.7040    9.6700   25.9840 C.2       1 2GG1228     0.0000 
     18 C6         30.7220   10.4920   24.8390 C.ar      1 2GG1228     0.0000 
     19 C11        31.9450   11.0010   24.3910 C.ar      1 2GG1228     0.0000 
     20 C12        32.0160   11.8130   23.2580 C.ar      1 2GG1228     0.0000 
     21 CL25       33.5480   12.4520   22.7020 Cl        1 2GG1228     0.0000 
     22 C13        30.8300   12.1310   22.5810 C.ar      1 2GG1228     0.0000 
     23 O24        30.8780   12.8740   21.4710 O.3       1 2GG1228     0.0000 
     24 C14        29.5990   11.6240   23.0020 C.ar      1 2GG1228     0.0000 
     25 C15        29.5450   10.8400   24.1630 C.ar      1 2GG1228     0.0000 
     26 O23        28.3380   10.3530   24.5620 O.3       1 2GG1228     0.0000 
     27 O3         29.8850    9.8740   27.0470 O.3       1 2GG1228     0.0000 
     28 H          32.7753    6.3293   22.3923 H         1 2GG1228     0.0000 
     29 H          31.1009    7.3328   23.8428 H         1 2GG1228     0.0000 
     30 H          35.7612    7.3492   25.1798 H         1 2GG1228     0.0000 
     31 H          34.0960    8.3530   26.6180 H         1 2GG1228     0.0000 
     32 H          31.1895    7.9140   30.0930 H         1 2GG1228     0.0000 
     33 H          31.9193    5.0116   30.0622 H         1 2GG1228     0.0000 
     34 H          31.4364    5.9825   31.4637 H         1 2GG1228     0.0000 
     35 H          32.8101   10.7714   24.9083 H         1 2GG1228     0.0000 
     36 H          28.7494   11.8198   22.4740 H         1 2GG1228     0.0000 
     37 H          35.9251    5.2528   21.1679 H         1 2GG1228     0.0000 
     38 H          34.4776    4.8436   21.7366 H         1 2GG1228     0.0000 
     39 H          34.6796    6.2548   20.9924 H         1 2GG1228     0.0000 
     40 H          34.0716    6.2134   30.0751 H         1 2GG1228     0.0000 
     41 H          33.6333    7.0940   31.3473 H         1 2GG1228     0.0000 
     42 H          33.8431    5.5071   31.5016 H         1 2GG1228     0.0000 
     43 H          31.2732   13.7459   21.7603 H         1 2GG1228     0.0000 
     44 H          27.6991   10.6230   23.8417 H         1 2GG1228     0.0000 
@<TRIPOS>BOND
     1    2    1 1    
     2   37    1 1    
     3   38    1 1    
     4   39    1 1    
     5    3    2 1    
     6    4    3 ar   
     7    6    3 ar   
     8    5    4 ar   
     9   28    4 1    
    10    8    5 ar   
    11   29    5 1    
    12    7    6 ar   
    13   30    6 1    
    14    8    7 ar   
    15   31    7 1    
    16    9    8 1    
    17   10    9 1    
    18   17    9 2    
    19   11   10 1    
    20   16   10 2    
    21   12   11 2    
    22   13   11 am   
    23   14   13 1    
    24   32   13 1    
    25   15   14 1    
    26   33   14 1    
    27   34   14 1    
    28   40   15 1    
    29   41   15 1    
    30   42   15 1    
    31   27   16 1    
    32   18   17 1    
    33   27   17 1    
    34   19   18 ar   
    35   25   18 ar   
    36   20   19 ar   
    37   35   19 1    
    38   21   20 1    
    39   22   20 ar   
    40   23   22 1    
    41   24   22 ar   
    42   43   23 1    
    43   25   24 ar   
    44   36   24 1    
    45   26   25 1    
    46   44   26 1    
@<TRIPOS>SUBSTRUCTURE
     1 2GG1228     1 GROUP   
@<TRIPOS>SET

