#    Name: 2z7g_EH9_1_INTS_M
#    Modification time : Mon Apr  7 18:36:41 2014

@<TRIPOS>MOLECULE
2z7g_EH9_1_INTS_M
   54     0     9     0     0
SMALL
NO_CHARGES


@<TRIPOS>ATOM
      1 CA         12.9160   14.5050   22.5700 C.3       3 GLC5        0.0000 
      2 CA         11.3170   14.8440   21.1580 C.3       9 GLL5        0.0000 
      3 CA         14.5150   14.1660   23.9820 C.3       6 GLP5        0.0000 
      4 CA         12.8335   14.8400   18.2560 C.3       3 GLC5        0.0000 
      5 CA         11.0300   14.0770   19.0180 C.3       9 GLL5        0.0000 
      6 CA         14.6370   15.6030   17.4940 C.3       6 GLP5        0.0000 
      7 CA         11.0650   14.6820   16.9855 C.3       3 GLC5        0.0000 
      8 CA         11.1000   15.2870   14.9530 C.3       6 GLP5        0.0000 
      9 N          11.4350   13.1765   24.2410 N.am      2 SEC2        0.0000 
     10 N          11.4290   13.5780   22.9820 N.am      8 SEL2        0.0000 
     11 N          11.4410   12.7750   25.5000 N.am      5 SEP2        0.0000 
     12 O          12.3570   10.4095   20.9820 O.2       1 ALC1        0.0000 
     13 O          11.0920   11.1990   21.2030 O.2       7 ALL1        0.0000 
     14 O          13.6220    9.6200   20.7610 O.2       4 ALP1        0.0000 
     15 CA         10.4680   18.3485   18.9330 C.3       3 GLC5        0.0000 
     16 CA          9.6850   17.7460   20.8140 C.3       9 GLL5        0.0000 
     17 CA         11.2510   18.9510   17.0520 C.3       6 GLP5        0.0000 
     18 CA          7.2140   17.8270   22.2210 C.3       3 GLC5        0.0000 
     19 CA          8.3600   18.4180   20.4980 C.3       9 GLL5        0.0000 
     20 CA          6.0680   17.2360   23.9440 C.3       6 GLP5        0.0000 
     21 CA          9.4990   19.9820   20.4705 C.3       3 GLC5        0.0000 
     22 CA         10.6380   21.5460   20.4430 C.3       6 GLP5        0.0000 
     23 CA          7.1800   19.7680   21.3275 C.3       3 GLC5        0.0000 
     24 CA          6.0000   21.1180   22.1570 C.3       6 GLP5        0.0000 
     25 CA          9.5635   18.3970   18.1020 C.3       3 GLC5        0.0000 
     26 CA          7.8760   17.8430   19.1520 C.3       9 GLL5        0.0000 
     27 CA          6.8145   13.7985   19.6990 C.3       3 GLC5        0.0000 
     28 CA          6.7940   15.5750   18.4960 C.3       9 GLL5        0.0000 
     29 CA          6.8350   12.0220   20.9020 C.3       6 GLP5        0.0000 
     30 CA          4.7400   15.6595   18.7140 C.3       3 GLC5        0.0000 
     31 CA          2.6860   15.7440   18.9320 C.3       6 GLP5        0.0000 
     32 N          14.3310   16.1230   22.7860 N.am      2 SEC2        0.0000 
     33 N          13.9610   17.3190   22.7340 N.am      8 SEL2        0.0000 
     34 N          14.7010   14.9270   22.8380 N.am      5 SEP2        0.0000 
     35 O          13.2705   17.4780   24.0440 O.2       1 ALC1        0.0000 
     36 O          13.9610   17.3190   22.7340 O.2       7 ALL1        0.0000 
     37 O          12.5800   17.6370   25.3540 O.2       4 ALP1        0.0000 
     38 CA         13.6565   19.9790   20.4130 C.3       3 GLC5        0.0000 
     39 CA         13.1900   17.8300   20.4080 C.3       9 GLL5        0.0000 
     40 CA         14.1230   22.1280   20.4180 C.3       6 GLP5        0.0000 
     41 CA         15.1285   18.4385   19.7400 C.3       3 GLC5        0.0000 
     42 CA         17.0670   19.0470   19.0720 C.3       6 GLP5        0.0000 
     43 CA         12.9845   18.8260   18.8800 C.3       3 GLC5        0.0000 
     44 CA         12.7790   19.8220   17.3520 C.3       6 GLP5        0.0000 
     45 CA         13.9135   16.7165   18.9510 C.3       3 GLC5        0.0000 
     46 CA         12.8912   12.9470   22.3957 C.3       3 GLC5        0.0000 
     47 CA         11.2890   13.5410   21.6690 C.3       9 GLL5        0.0000 
     48 CA         14.5740   12.8770   23.5540 C.3       6 GLP5        0.0000 
     49 CA         13.3865   15.8035   23.0700 C.3       3 GLC5        0.0000 
     50 CA         11.6060   17.1340   22.4080 C.3       9 GLL5        0.0000 
     51 CA         10.3165   19.6923   20.9725 C.3       3 GLC5        0.0000 
     52 CA         10.3050   17.9310   22.1900 C.3       9 GLL5        0.0000 
     53 CA          9.2601   16.9581   23.0712 C.3       3 GLC5        0.0000 
     54 CA          8.2000   16.2770   24.5860 C.3       6 GLP5        0.0000 
@<TRIPOS>BOND
@<TRIPOS>SUBSTRUCTURE
     1 ALC1       12 GROUP        1 X    ALC  0     ROOT ALC X 1
     2 SEC2        9 GROUP        1 X    SEC  0     **** SEC X 2
     3 GLC5        1 GROUP        1 X    GLC  0     **** GLC X 6
     4 ALP1       14 GROUP        1 Y    ALP  0     ROOT ALP Y 8
     5 SEP2       11 GROUP        1 Y    SEP  0     **** SEP Y 9
     6 GLP5        3 GROUP        1 Y    GLP  0     **** GLP Y 13
     7 ALL1       13 GROUP        1 Z    ALL  0     ROOT ALL Z 15
     8 SEL2       10 GROUP        1 Z    SEL  0     **** SEL Z 16
     9 GLL5        2 GROUP        1 Z    GLL  0     **** GLL Z 20
@<TRIPOS>SET

