#    Name: 2z7g_EH9_1_ligand
#    Modification time : Mon Apr  7 18:36:41 2014

@<TRIPOS>MOLECULE
2z7g_EH9_1_ligand
   43    44     1     0     0
SMALL
NO_CHARGES


@<TRIPOS>ATOM
      1 C1         11.1280   12.4930   20.8060 C.ar      1 EH9356      0.0000 
      2 C2         11.2890   13.5410   21.6690 C.ar      1 EH9356      0.0000 
      3 C3         11.3170   14.8440   21.1580 C.ar      1 EH9356      0.0000 
      4 C5         11.0300   14.0770   19.0180 C.ar      1 EH9356      0.0000 
      5 C14        11.5140   14.8780   23.3390 C.2       1 EH9356      0.0000 
      6 N4         11.1890   15.1420   19.8320 N.ar      1 EH9356      0.0000 
      7 N6         10.9990   12.8050   19.4730 N.ar      1 EH9356      0.0000 
      8 N13        11.4920   15.6660   22.2350 N.pl3     1 EH9356      0.0000 
      9 N15        11.4290   13.5780   22.9820 N.2       1 EH9356      0.0000 
     10 C20        11.6060   17.1340   22.4080 C.3       1 EH9356      0.0000 
     11 C21        10.3050   17.9310   22.1900 C.3       1 EH9356      0.0000 
     12 N24        11.0920   11.1990   21.2030 N.pl3     1 EH9356      0.0000 
     13 C26         9.6850   17.7460   20.8140 C.3       1 EH9356      0.0000 
     14 C28         8.3600   18.4180   20.4980 C.3       1 EH9356      0.0000 
     15 C30         7.8760   17.8430   19.1520 C.3       1 EH9356      0.0000 
     16 C31         8.0060   16.2970   19.0820 C.3       1 EH9356      0.0000 
     17 C34         6.7940   15.5750   18.4960 C.3       1 EH9356      0.0000 
     18 C36        12.9100   17.7480   21.9080 C.3       1 EH9356      0.0000 
     19 O38        13.9610   17.3190   22.7340 O.3       1 EH9356      0.0000 
     20 C40        13.1900   17.8300   20.4080 C.3       1 EH9356      0.0000 
     21 H          10.9247   14.2453   17.9756 H         1 EH9356      0.0000 
     22 H          11.5814   15.2051   24.2545 H         1 EH9356      0.0000 
     23 H          11.7418   17.2330   23.6179 H         1 EH9356      0.0000 
     24 H          10.5192   19.0004   22.3520 H         1 EH9356      0.0000 
     25 H           9.5770   17.6288   22.9610 H         1 EH9356      0.0000 
     26 H          10.3740   10.9590   21.8564 H         1 EH9356      0.0000 
     27 H          11.7866   10.5980   20.8076 H         1 EH9356      0.0000 
     28 H           9.5746   16.6390   20.6230 H         1 EH9356      0.0000 
     29 H          10.4399   18.0714   20.0405 H         1 EH9356      0.0000 
     30 H           8.4993   19.4762   20.3981 H         1 EH9356      0.0000 
     31 H           7.6402   18.1866   21.2579 H         1 EH9356      0.0000 
     32 H           8.4645   18.2809   18.3428 H         1 EH9356      0.0000 
     33 H           6.8284   18.1135   19.0027 H         1 EH9356      0.0000 
     34 H           8.1952   15.9200   20.1022 H         1 EH9356      0.0000 
     35 H           8.8997   16.0526   18.4817 H         1 EH9356      0.0000 
     36 H          12.7618   18.9012   22.2200 H         1 EH9356      0.0000 
     37 H           6.6061   15.8660   17.5579 H         1 EH9356      0.0000 
     38 H           6.9266   14.5841   18.4745 H         1 EH9356      0.0000 
     39 H           5.9653   15.7483   19.0282 H         1 EH9356      0.0000 
     40 H          14.0756   18.2539   20.2181 H         1 EH9356      0.0000 
     41 H          13.2008   16.9252   19.9822 H         1 EH9356      0.0000 
     42 H          12.4978   18.3707   19.9300 H         1 EH9356      0.0000 
     43 H          13.5965   17.3697   23.6638 H         1 EH9356      0.0000 
@<TRIPOS>BOND
     1    2    1 ar   
     2    7    1 ar   
     3   12    1 1    
     4    3    2 ar   
     5    9    2 1    
     6    6    3 ar   
     7    8    3 1    
     8    6    4 ar   
     9    7    4 ar   
    10   21    4 1    
    11    8    5 1    
    12    9    5 2    
    13   22    5 1    
    14   10    8 1    
    15   11   10 1    
    16   18   10 1    
    17   23   10 1    
    18   13   11 1    
    19   24   11 1    
    20   25   11 1    
    21   26   12 1    
    22   27   12 1    
    23   14   13 1    
    24   28   13 1    
    25   29   13 1    
    26   15   14 1    
    27   30   14 1    
    28   31   14 1    
    29   16   15 1    
    30   32   15 1    
    31   33   15 1    
    32   17   16 1    
    33   34   16 1    
    34   35   16 1    
    35   37   17 1    
    36   38   17 1    
    37   39   17 1    
    38   19   18 1    
    39   20   18 1    
    40   36   18 1    
    41   43   19 1    
    42   40   20 1    
    43   41   20 1    
    44   42   20 1    
@<TRIPOS>SUBSTRUCTURE
     1 EH9356      1 GROUP   
@<TRIPOS>SET

