#    Name: 2r59_PH0_1_INTS_M
#    Modification time : Mon Mar 24 23:10:07 2014

@<TRIPOS>MOLECULE
2r59_PH0_1_INTS_M
   87     0    18     0     0
SMALL
NO_CHARGES


@<TRIPOS>ATOM
      1 Zn         34.5340    3.9185    4.2860 Zn        5 ZIC7        0.0000 
      2 Zn         34.1440    4.2310    3.4590 Zn       17 ZIL7        0.0000 
      3 Zn         34.9240    3.6060    5.1130 Zn       11 ZIP7        0.0000 
      4 N          32.8385    4.5730    3.3200 N.am      2 SEC2        0.0000 
      5 N          34.1440    4.2310    3.4590 N.am     14 SEL2        0.0000 
      6 N          31.5330    4.9150    3.1810 N.am      8 SEP2        0.0000 
      7 CA         31.0135    2.2065    2.4270 C.3       6 GLC5        0.0000 
      8 CA         32.6740    2.7490    1.1120 C.3      18 GLL5        0.0000 
      9 CA         29.3530    1.6640    3.7420 C.3      12 GLP5        0.0000 
     10 CA         30.8740    3.6760    1.0445 C.3       6 GLC5        0.0000 
     11 CA         29.0740    4.6030    0.9770 C.3      12 GLP5        0.0000 
     12 CA         34.2505    0.8320   -1.2080 C.3       6 GLC5        0.0000 
     13 CA         32.3780    1.8490   -1.2850 C.3      18 GLL5        0.0000 
     14 CA         36.1230   -0.1850   -1.1310 C.3      12 GLP5        0.0000 
     15 CA         29.7170   -1.5700   -1.8485 C.3       6 GLC5        0.0000 
     16 CA         30.3210    0.5870   -1.7880 C.3      18 GLL5        0.0000 
     17 CA         29.1130   -3.7270   -1.9090 C.3      12 GLP5        0.0000 
     18 CA         35.1410    1.1275    0.0745 C.3       6 GLC5        0.0000 
     19 CA         34.1590    2.4400    1.2800 C.3      18 GLL5        0.0000 
     20 CA         33.7890    5.3220   -0.9835 C.3       6 GLC5        0.0000 
     21 CA         34.7870    5.2380    0.9710 C.3      18 GLL5        0.0000 
     22 CA         32.7910    5.4060   -2.9380 C.3      12 GLP5        0.0000 
     23 CA         33.4150    6.3920    3.4385 C.3       6 GLC5        0.0000 
     24 CA         34.7330    6.6000    1.6800 C.3      18 GLL5        0.0000 
     25 CA         32.0970    6.1840    5.1970 C.3      12 GLP5        0.0000 
     26 CA         32.7900   11.3005   -1.5165 C.3       6 GLC5        0.0000 
     27 CA         33.2120    9.5880   -0.1850 C.3      18 GLL5        0.0000 
     28 CA         32.3680   13.0130   -2.8480 C.3      12 GLP5        0.0000 
     29 CA         33.0345   12.3730   -0.3160 C.3       6 GLC5        0.0000 
     30 CA         32.3020   10.6700    0.3840 C.3      18 GLL5        0.0000 
     31 CA         33.7670   14.0760   -1.0160 C.3      12 GLP5        0.0000 
     32 OD1        35.5695    0.8575    2.2310 O.co2     3 ASC3        0.0000 
     33 OD1        34.3010    1.2490    2.1560 O.co2    15 ASL3        0.0000 
     34 OD1        36.8380    0.4660    2.3060 O.co2     9 ASP3        0.0000 
     35 OD1        35.0220    0.1020    2.8615 O.co2     3 ASC3        0.0000 
     36 OD1        35.7430   -1.0450    3.5670 O.co2     9 ASP3        0.0000 
     37 OD1        33.5155    1.5605    3.5150 O.co2     3 ASC3        0.0000 
     38 OD1        32.7300    1.8720    4.8740 O.co2     9 ASP3        0.0000 
     39 O          33.9020    0.0645    1.4140 O.2       1 ALC1        0.0000 
     40 O          34.3010    1.2490    2.1560 O.2      13 ALL1        0.0000 
     41 O          33.5030   -1.1200    0.6720 O.2       7 ALP1        0.0000 
     42 O          35.5695    0.8575    2.2310 O.2       1 ALC1        0.0000 
     43 O          36.8380    0.4660    2.3060 O.2       7 ALP1        0.0000 
     44 O          33.5155    1.5605    3.5150 O.2       1 ALC1        0.0000 
     45 O          32.7300    1.8720    4.8740 O.2       7 ALP1        0.0000 
     46 CA         39.1495    9.2760    3.6120 C.3       6 GLC5        0.0000 
     47 CA         37.1910    8.7810    3.5430 C.3      18 GLL5        0.0000 
     48 CA         41.1080    9.7710    3.6810 C.3      12 GLP5        0.0000 
     49 CA         37.4610    7.5825    4.9060 C.3       6 GLC5        0.0000 
     50 CA         37.7310    6.3840    6.2690 C.3      12 GLP5        0.0000 
     51 CA         38.5990   10.5740    3.2395 C.3       6 GLC5        0.0000 
     52 CA         37.2030    9.8470    4.4590 C.3      18 GLL5        0.0000 
     53 CA         39.9950   11.3010    2.0200 C.3      12 GLP5        0.0000 
     54 CA         38.1370    8.4620    5.3875 C.3       6 GLC5        0.0000 
     55 CA         39.0710    7.0770    6.3160 C.3      12 GLP5        0.0000 
     56 N          35.8560    8.0130   -1.4600 N.am      2 SEC2        0.0000 
     57 N          35.1500    7.6490   -0.3360 N.am     14 SEL2        0.0000 
     58 N          36.5620    8.3770   -2.5840 N.am      8 SEP2        0.0000 
     59 NZ         35.8675   11.4165   -1.3525 N.4       4 LYC4        0.0000 
     60 NZ         35.4190   10.5980    0.1270 N.4      16 LYL4        0.0000 
     61 NZ         37.2970   12.6720   -2.0930 N.4      10 LYP4        0.0000 
     62 N          36.3160   11.4940   -0.3405 N.am      2 SEC2        0.0000 
     63 N          35.4190   10.5980    0.1270 N.am     14 SEL2        0.0000 
     64 N          37.2130   12.3900   -0.8080 N.am      8 SEP2        0.0000 
     65 NZ         34.5220   10.4430   -1.8970 N.4      16 LYL4        0.0000 
     66 N          35.4765   11.2610   -2.4095 N.am      2 SEC2        0.0000 
     67 N          34.5220   10.4430   -1.8970 N.am     14 SEL2        0.0000 
     68 N          36.4310   12.0790   -2.9220 N.am      8 SEP2        0.0000 
     69 N          35.8675   11.4165   -1.3525 N.am      2 SEC2        0.0000 
     70 CA         31.5465   -0.3517   -0.0113 C.3       6 GLC5        0.0000 
     71 CA         31.9250    1.9930    0.0510 C.3      18 GLL5        0.0000 
     72 CA         31.7780   -2.4090   -0.2530 C.3      12 GLP5        0.0000 
     73 CA         32.3103   -0.4763   -1.6255 C.3       6 GLC5        0.0000 
     74 CA         31.5450    1.1220   -2.1550 C.3      18 GLL5        0.0000 
     75 CA         32.6590   -2.4380   -1.5310 C.3      12 GLP5        0.0000 
     76 CA         30.9475   -0.8820   -0.6945 C.3       6 GLC5        0.0000 
     77 CA         27.0655    8.5162    2.0918 C.3       6 GLC5        0.0000 
     78 CA         29.2220    8.8370    2.7010 C.3      18 GLL5        0.0000 
     79 CA         25.0120    8.0600    2.1520 C.3      12 GLP5        0.0000 
     80 CA         28.1127    9.4514    3.6276 C.3       6 GLC5        0.0000 
     81 CA         29.0160    9.1080    1.3620 C.3      18 GLL5        0.0000 
     82 CA         26.8070    9.8450    5.0700 C.3      12 GLP5        0.0000 
     83 CA         36.6043    8.0493    5.6807 C.3       6 GLC5        0.0000 
     84 CA         34.9070    9.3190    5.0060 C.3      18 GLL5        0.0000 
     85 CA         36.3900    6.6074    4.4703 C.3       6 GLC5        0.0000 
     86 CA         34.9040    8.2690    4.0700 C.3      18 GLL5        0.0000 
     87 CA         37.2860    5.3570    5.5080 C.3      12 GLP5        0.0000 
@<TRIPOS>BOND
@<TRIPOS>SUBSTRUCTURE
     1 ALC1       39 GROUP        1 X    ALC  0     ROOT ALC X 1
     2 SEC2        4 GROUP        1 X    SEC  0     **** SEC X 2
     3 ASC3       32 GROUP        1 X    ASC  0     **** ASC X 3
     4 LYC4       59 GROUP        1 X    LYC  0     **** LYC X 4
     5 ZIC7        1 GROUP        1 X    ZIC  0     **** ZIC X 5
     6 GLC5        7 GROUP        1 X    GLC  0     **** GLC X 6
     7 ALP1       41 GROUP        1 Y    ALP  0     ROOT ALP Y 8
     8 SEP2        6 GROUP        1 Y    SEP  0     **** SEP Y 9
     9 ASP3       34 GROUP        1 Y    ASP  0     **** ASP Y 10
    10 LYP4       61 GROUP        1 Y    LYP  0     **** LYP Y 11
    11 ZIP7        3 GROUP        1 Y    ZIP  0     **** ZIP Y 12
    12 GLP5        9 GROUP        1 Y    GLP  0     **** GLP Y 13
    13 ALL1       40 GROUP        1 Z    ALL  0     ROOT ALL Z 15
    14 SEL2        5 GROUP        1 Z    SEL  0     **** SEL Z 16
    15 ASL3       33 GROUP        1 Z    ASL  0     **** ASL Z 17
    16 LYL4       60 GROUP        1 Z    LYL  0     **** LYL Z 18
    17 ZIL7        2 GROUP        1 Z    ZIL  0     **** ZIL Z 19
    18 GLL5        8 GROUP        1 Z    GLL  0     **** GLL Z 20
@<TRIPOS>SET

