#    Name: 2r59_PH0_1_ligand
#    Modification time : Mon Mar 24 23:10:08 2014

@<TRIPOS>MOLECULE
2r59_PH0_1_ligand
   65    67     1     0     0
SMALL
NO_CHARGES


@<TRIPOS>ATOM
      1 O1         34.1440    4.2310    3.4590 O.co2     1 PH0706      0.0000 
      2 C1         32.6740    2.7490    1.1120 C.3       1 PH0706      0.0000 
      3 C2         31.9250    1.9930    0.0510 C.ar      1 PH0706      0.0000 
      4 C3         32.3780    1.8490   -1.2850 C.ar      1 PH0706      0.0000 
      5 C4         31.5450    1.1220   -2.1550 C.ar      1 PH0706      0.0000 
      6 C5         30.3210    0.5870   -1.7880 C.ar      1 PH0706      0.0000 
      7 C6         29.9130    0.7030   -0.4840 C.ar      1 PH0706      0.0000 
      8 C7         30.7050    1.4180    0.4100 C.ar      1 PH0706      0.0000 
      9 C8         34.1590    2.4400    1.2800 C.3       1 PH0706      0.0000 
     10 C9         34.7870    5.2380    0.9710 C.3       1 PH0706      0.0000 
     11 C10        34.7330    6.6000    1.6800 C.3       1 PH0706      0.0000 
     12 C11        34.4690    7.6510    0.6400 C.2       1 PH0706      0.0000 
     13 C12        33.2120    9.5880   -0.1850 C.3       1 PH0706      0.0000 
     14 C13        32.3020   10.6700    0.3840 C.3       1 PH0706      0.0000 
     15 C14        31.2240   10.0200    1.2170 C.ar      1 PH0706      0.0000 
     16 C15        31.4400    9.7600    2.5910 C.ar      1 PH0706      0.0000 
     17 C16        30.4200    9.1780    3.3160 C.ar      1 PH0706      0.0000 
     18 C17        29.2220    8.8370    2.7010 C.ar      1 PH0706      0.0000 
     19 C18        29.0160    9.1080    1.3620 C.ar      1 PH0706      0.0000 
     20 C19        30.0230    9.7010    0.6330 C.ar      1 PH0706      0.0000 
     21 C20        34.4680   10.2700   -0.6650 C.2       1 PH0706      0.0000 
     22 P          34.9270    3.8450    2.1750 P.3       1 PH0706      0.0000 
     23 O5         36.5450    3.4940    2.5240 O.co2     1 PH0706      0.0000 
     24 N2         34.3010    1.2490    2.1560 N.4       1 PH0706      0.0000 
     25 C21        36.1120    6.8800    2.2820 C.3       1 PH0706      0.0000 
     26 C22        36.0560    8.0130    3.3080 C.ar      1 PH0706      0.0000 
     27 C23        37.1910    8.7810    3.5430 C.ar      1 PH0706      0.0000 
     28 C24        37.2030    9.8470    4.4590 C.ar      1 PH0706      0.0000 
     29 C25        36.0480   10.1100    5.1790 C.ar      1 PH0706      0.0000 
     30 C26        34.9070    9.3190    5.0060 C.ar      1 PH0706      0.0000 
     31 C27        34.9040    8.2690    4.0700 C.ar      1 PH0706      0.0000 
     32 O2         35.1500    7.6490   -0.3360 O.2       1 PH0706      0.0000 
     33 N1         33.4920    8.5280    0.7690 N.am      1 PH0706      0.0000 
     34 O3         35.4190   10.5980    0.1270 O.co2     1 PH0706      0.0000 
     35 O4         34.5220   10.4430   -1.8970 O.co2     1 PH0706      0.0000 
     36 H          32.1706    2.5862    2.1003 H         1 PH0706      0.0000 
     37 H          32.5666    3.8485    0.9213 H         1 PH0706      0.0000 
     38 H          33.2415    2.2439   -1.5864 H         1 PH0706      0.0000 
     39 H          31.8805    0.9805   -3.1449 H         1 PH0706      0.0000 
     40 H          29.7358    0.1144   -2.4832 H         1 PH0706      0.0000 
     41 H          29.0401    0.2735   -0.1632 H         1 PH0706      0.0000 
     42 H          30.3716    1.5304    1.3971 H         1 PH0706      0.0000 
     43 H          34.6790    2.4020    0.4068 H         1 PH0706      0.0000 
     44 H          35.6582    5.0968    0.3740 H         1 PH0706      0.0000 
     45 H          33.8913    4.9863    0.4517 H         1 PH0706      0.0000 
     46 H          34.0036    6.5994    2.4170 H         1 PH0706      0.0000 
     47 H          32.7062    9.1815   -1.0706 H         1 PH0706      0.0000 
     48 H          31.8521   11.2236   -0.4320 H         1 PH0706      0.0000 
     49 H          32.8881   11.3414    1.0007 H         1 PH0706      0.0000 
     50 H          32.3282   10.0014    3.0176 H         1 PH0706      0.0000 
     51 H          30.5447    8.9926    4.3257 H         1 PH0706      0.0000 
     52 H          28.4791    8.3759    3.2537 H         1 PH0706      0.0000 
     53 H          28.1220    8.8694    0.9173 H         1 PH0706      0.0000 
     54 H          29.8695    9.9094   -0.3743 H         1 PH0706      0.0000 
     55 H          36.8028    7.1535    1.4829 H         1 PH0706      0.0000 
     56 H          36.4816    5.9750    2.7667 H         1 PH0706      0.0000 
     57 H          38.0688    8.5632    3.0237 H         1 PH0706      0.0000 
     58 H          38.0415   10.4054    4.5838 H         1 PH0706      0.0000 
     59 H          36.0238   10.8937    5.8490 H         1 PH0706      0.0000 
     60 H          34.0649    9.5034    5.5642 H         1 PH0706      0.0000 
     61 H          34.0680    7.6961    3.9457 H         1 PH0706      0.0000 
     62 H          32.8381    8.5033    1.6049 H         1 PH0706      0.0000 
     63 H          33.8993    1.4021    3.0589 H         1 PH0706      0.0000 
     64 H          33.8500    0.4458    1.7669 H         1 PH0706      0.0000 
     65 H          35.2603    1.0057    2.2995 H         1 PH0706      0.0000 
@<TRIPOS>BOND
     1   22    1 ar   
     2    3    2 1    
     3    9    2 1    
     4   36    2 1    
     5   37    2 1    
     6    4    3 ar   
     7    8    3 ar   
     8    5    4 ar   
     9   38    4 1    
    10    6    5 ar   
    11   39    5 1    
    12    7    6 ar   
    13   40    6 1    
    14    8    7 ar   
    15   41    7 1    
    16   42    8 1    
    17   22    9 1    
    18   24    9 1    
    19   43    9 1    
    20   11   10 1    
    21   22   10 1    
    22   44   10 1    
    23   45   10 1    
    24   12   11 1    
    25   25   11 1    
    26   46   11 1    
    27   32   12 2    
    28   33   12 am   
    29   14   13 1    
    30   21   13 1    
    31   33   13 1    
    32   47   13 1    
    33   15   14 1    
    34   48   14 1    
    35   49   14 1    
    36   16   15 ar   
    37   20   15 ar   
    38   17   16 ar   
    39   50   16 1    
    40   18   17 ar   
    41   51   17 1    
    42   19   18 ar   
    43   52   18 1    
    44   20   19 ar   
    45   53   19 1    
    46   54   20 1    
    47   34   21 ar   
    48   35   21 ar   
    49   23   22 ar   
    50   63   24 1    
    51   64   24 1    
    52   65   24 1    
    53   26   25 1    
    54   55   25 1    
    55   56   25 1    
    56   27   26 ar   
    57   31   26 ar   
    58   28   27 ar   
    59   57   27 1    
    60   29   28 ar   
    61   58   28 1    
    62   30   29 ar   
    63   59   29 1    
    64   31   30 ar   
    65   60   30 1    
    66   61   31 1    
    67   62   33 1    
@<TRIPOS>SUBSTRUCTURE
     1 PH0706      1 GROUP   
@<TRIPOS>SET

