#    Name: 3AUO_2_CAVITY_N1_6.mol2
#    Modification time : Tue Mar 11 09:51:44 2014

@<TRIPOS>MOLECULE
3AUO_2_CAVITY_N1_6.mol2
   91     0     7     0     0
SMALL
NO_CHARGES


@<TRIPOS>ATOM
      1 N          -9.2331  -21.3300  -54.5140 N.2       2 ALA2        0.0000 
      2 N         -10.5726  -20.7435  -54.8484 N.2       2 ALA2        0.0000 
      3 CA        -11.9121  -20.1571  -55.1827 C.3       6 GLY6        0.0000 
      4 O         -11.5122  -28.5367  -51.2940 O.2       2 ALA2        0.0000 
      5 O         -12.8517  -27.9503  -51.6284 O.2       2 ALA2        0.0000 
      6 O         -14.1912  -27.3638  -51.9627 O.2       2 ALA2        0.0000 
      7 OD1       -11.7018  -29.5767  -52.3583 O.3       3 ASP3        0.0000 
      8 O         -13.0413  -28.9902  -52.6926 O.2       2 ALA2        0.0000 
      9 O         -14.3809  -28.4038  -53.0269 O.2       2 ALA2        0.0000 
     10 OD1       -10.5520  -31.2030  -53.0882 O.3       3 ASP3        0.0000 
     11 OD1       -11.8915  -30.6166  -53.4225 O.3       3 ASP3        0.0000 
     12 O         -13.2310  -30.0301  -53.7568 O.2       2 ALA2        0.0000 
     13 CA        -10.7416  -32.2430  -54.1524 C.3       6 GLY6        0.0000 
     14 O         -12.0812  -31.6565  -54.4867 O.2       2 ALA2        0.0000 
     15 O         -13.4207  -31.0701  -54.8210 O.2       2 ALA2        0.0000 
     16 O         -12.2708  -32.6964  -55.5509 O.2       2 ALA2        0.0000 
     17 N          -9.8809  -22.2380  -53.5112 N.2       2 ALA2        0.0000 
     18 N         -11.2205  -21.6516  -53.8455 N.2       2 ALA2        0.0000 
     19 CA         -7.3916  -24.4509  -53.9068 C.3       6 GLY6        0.0000 
     20 N          -8.7311  -23.8644  -54.2411 N.2       2 ALA2        0.0000 
     21 DU        -10.0706  -23.2780  -54.5754 H         7 CUB7        0.0000 
     22 CA        -11.4101  -22.6915  -54.9098 C.3       6 GLY6        0.0000 
     23 CA         -7.5812  -25.4908  -54.9710 C.3       6 GLY6        0.0000 
     24 DU         -8.9208  -24.9043  -55.3053 H         7 CUB7        0.0000 
     25 CA        -11.5998  -23.7315  -55.9740 C.3       6 GLY6        0.0000 
     26 N          -9.1893  -23.7326  -52.1741 N.2       2 ALA2        0.0000 
     27 N         -10.5288  -23.1461  -52.5084 N.2       2 ALA2        0.0000 
     28 O         -11.8683  -22.5597  -52.8427 O.2       2 ALA2        0.0000 
     29 N          -8.0394  -25.3590  -52.9040 N.2       2 ALA2        0.0000 
     30 N          -9.3789  -24.7725  -53.2383 N.2       2 ALA2        0.0000 
     31 DU        -10.7185  -24.1861  -53.5726 H         7 CUB7        0.0000 
     32 O         -12.0580  -23.5996  -53.9069 O.2       2 ALA2        0.0000 
     33 NZ         -8.2291  -26.3989  -53.9682 N.2       4 LYS4        0.0000 
     34 DU         -9.5686  -25.8124  -54.3025 H         7 CUB7        0.0000 
     35 DU        -10.9081  -25.2260  -54.6368 H         7 CUB7        0.0000 
     36 CA        -12.2477  -24.6396  -54.9712 C.3       6 GLY6        0.0000 
     37 OD1        -9.7583  -26.8524  -55.3667 O.3       3 ASP3        0.0000 
     38 DU        -11.0978  -26.2659  -55.7011 H         7 CUB7        0.0000 
     39 OD1        -8.9878  -30.5586  -58.2251 O.3       3 ASP3        0.0000 
     40 N          -9.8371  -24.6407  -51.1712 N.2       2 ALA2        0.0000 
     41 CA        -11.1766  -24.0542  -51.5056 C.3       6 GLY6        0.0000 
     42 NZ         -8.6873  -26.2670  -51.9011 N.2       4 LYS4        0.0000 
     43 N         -10.0268  -25.6806  -52.2355 N.2       2 ALA2        0.0000 
     44 O         -11.3663  -25.0942  -52.5698 O.2       2 ALA2        0.0000 
     45 NZ        -10.2165  -26.7205  -53.2997 N.2       4 LYS4        0.0000 
     46 DU        -11.5560  -26.1341  -53.6340 H         7 CUB7        0.0000 
     47 CA        -12.8955  -25.5477  -53.9683 C.3       6 GLY6        0.0000 
     48 OD1        -9.0666  -28.3469  -54.0296 O.3       3 ASP3        0.0000 
     49 OD1       -10.4061  -27.7605  -54.3639 O.3       3 ASP3        0.0000 
     50 DU        -11.7457  -27.1740  -54.6982 H         7 CUB7        0.0000 
     51 DU        -13.0852  -26.5876  -55.0326 H         7 CUB7        0.0000 
     52 OD1       -10.5958  -28.8004  -55.4281 O.3       3 ASP3        0.0000 
     53 DU        -11.9353  -28.2140  -55.7625 H         7 CUB7        0.0000 
     54 OD1       -10.7855  -29.8403  -56.4924 O.3       3 ASP3        0.0000 
     55 OD1        -8.2961  -32.0531  -56.8879 O.3       3 ASP3        0.0000 
     56 OD1        -9.6356  -31.4667  -57.2223 O.3       3 ASP3        0.0000 
     57 CZ         -8.0832  -22.9563  -55.2439 C.ar      5 PHE5        0.0000 
     58 CZ         -9.4228  -22.3699  -55.5783 C.ar      5 PHE5        0.0000 
     59 DU        -10.7623  -21.7834  -55.9126 H         7 CUB7        0.0000 
     60 CA        -12.1018  -21.1970  -56.2469 C.3       6 GLY6        0.0000 
     61 OG         -8.2729  -23.9963  -56.3082 O.2       1 SER1        0.0000 
     62 DU         -9.6124  -23.4098  -56.6425 H         7 CUB7        0.0000 
     63 O         -10.6746  -26.5887  -51.2326 O.2       2 ALA2        0.0000 
     64 O         -12.0142  -26.0023  -51.5670 O.2       2 ALA2        0.0000 
     65 O         -13.3537  -25.4158  -51.9013 O.2       2 ALA2        0.0000 
     66 OD1       -10.8643  -27.6286  -52.2969 O.3       3 ASP3        0.0000 
     67 O         -12.2038  -27.0422  -52.6312 O.2       2 ALA2        0.0000 
     68 O         -13.5434  -26.4557  -52.9655 O.2       2 ALA2        0.0000 
     69 O         -14.8829  -25.8693  -53.2998 O.2       2 ALA2        0.0000 
     70 OD1       -11.0540  -28.6686  -53.3611 O.3       3 ASP3        0.0000 
     71 DU        -12.3935  -28.0821  -53.6954 H         7 CUB7        0.0000 
     72 O         -13.7330  -27.4957  -54.0297 O.2       2 ALA2        0.0000 
     73 NZ        -11.2436  -29.7085  -54.4253 N.2       4 LYS4        0.0000 
     74 DU        -12.5832  -29.1220  -54.7596 H         7 CUB7        0.0000 
     75 O         -13.9227  -28.5356  -55.0940 O.2       2 ALA2        0.0000 
     76 NZ        -10.0938  -31.3349  -55.1552 N.2       4 LYS4        0.0000 
     77 DU        -11.4333  -30.7484  -55.4895 H         7 CUB7        0.0000 
     78 O         -12.7728  -30.1620  -55.8239 O.2       2 ALA2        0.0000 
     79 CA         -8.9439  -32.9612  -55.8851 C.3       6 GLY6        0.0000 
     80 N         -10.2835  -32.3748  -56.2194 N.2       2 ALA2        0.0000 
     81 DU        -11.6230  -31.7883  -56.5538 H         7 CUB7        0.0000 
     82 N          -9.1336  -34.0012  -56.9493 N.2       2 ALA2        0.0000 
     83 N         -10.4731  -33.4147  -57.2837 N.2       2 ALA2        0.0000 
     84 OG        -12.3497  -30.4847  -51.3554 O.2       1 SER1        0.0000 
     85 O         -13.6892  -29.8983  -51.6898 O.2       2 ALA2        0.0000 
     86 O         -15.0287  -29.3119  -52.0241 O.2       2 ALA2        0.0000 
     87 O         -12.5393  -31.5247  -52.4197 O.2       2 ALA2        0.0000 
     88 O         -13.8789  -30.9382  -52.7540 O.2       2 ALA2        0.0000 
     89 CZ         -9.9248  -19.8354  -55.8512 C.ar      5 PHE5        0.0000 
     90 CZ        -10.1144  -20.8753  -56.9154 C.ar      5 PHE5        0.0000 
     91 DU        -11.4540  -20.2889  -57.2497 H         7 CUB7        0.0000 
@<TRIPOS>BOND
@<TRIPOS>SUBSTRUCTURE
     1 SER1       61 GROUP   
     2 ALA2        1 GROUP   
     3 ASP3        7 GROUP   
     4 LYS4       33 GROUP   
     5 PHE5       57 GROUP   
     6 GLY6        3 GROUP   
     7 CUB7       21 GROUP   
@<TRIPOS>SET

