#    Name: 3auo_DG3_2_INTS_M
#    Modification time : Mon Mar 24 18:13:57 2014

@<TRIPOS>MOLECULE
3auo_DG3_2_INTS_M
   54     0    12     0     0
SMALL
NO_CHARGES


@<TRIPOS>ATOM
      1 Zn         -9.6820  -30.7545  -52.1550 Zn        3 ZIC7        0.0000 
      2 Zn        -10.5160  -30.9070  -53.1170 Zn       11 ZIL7        0.0000 
      3 Zn         -8.8480  -30.6020  -51.1930 Zn        7 ZIP7        0.0000 
      4 NZ        -13.6565  -32.5630  -53.5455 N.4       2 LYC4        0.0000 
      5 NZ        -12.9440  -31.3510  -53.6410 N.4      10 LYL4        0.0000 
      6 NZ        -14.7680  -34.3180  -52.3060 N.4       6 LYP4        0.0000 
      7 N         -13.6565  -32.5630  -53.5455 N.am      1 SEC2        0.0000 
      8 N         -12.9440  -31.3510  -53.6410 N.am      9 SEL2        0.0000 
      9 N         -14.3690  -33.7750  -53.4500 N.am      5 SEP2        0.0000 
     10 NZ        -13.3000  -32.6980  -51.2190 N.4       2 LYC4        0.0000 
     11 NZ        -12.0720  -31.7200  -51.2680 N.4      10 LYL4        0.0000 
     12 N         -13.3000  -32.6980  -51.2190 N.am      1 SEC2        0.0000 
     13 N         -12.0720  -31.7200  -51.2680 N.am      9 SEL2        0.0000 
     14 N         -14.5280  -33.6760  -51.1700 N.am      5 SEP2        0.0000 
     15 N         -11.5425  -31.3530  -50.2650 N.am      1 SEC2        0.0000 
     16 N         -11.0130  -30.9860  -49.2620 N.am      5 SEP2        0.0000 
     17 N         -11.7150  -33.0725  -51.6070 N.am      1 SEC2        0.0000 
     18 N         -11.3580  -34.4250  -51.9460 N.am      5 SEP2        0.0000 
     19 NZ        -13.1850  -27.1590  -50.1560 N.4       2 LYC4        0.0000 
     20 NZ        -12.0660  -27.2030  -51.2530 N.4      10 LYL4        0.0000 
     21 NZ        -13.5200  -26.3280  -48.3390 N.4       6 LYP4        0.0000 
     22 N         -12.1735  -26.6440  -50.0060 N.am      1 SEC2        0.0000 
     23 N         -12.0660  -27.2030  -51.2530 N.am      9 SEL2        0.0000 
     24 N         -12.2810  -26.0850  -48.7590 N.am      5 SEP2        0.0000 
     25 N         -13.1850  -27.1590  -50.1560 N.am      1 SEC2        0.0000 
     26 N         -14.3040  -27.1150  -49.0590 N.am      5 SEP2        0.0000 
     27 Zn         -9.4375  -29.6750  -51.3930 Zn        3 ZIC7        0.0000 
     28 Zn        -10.0270  -28.7480  -51.5930 Zn       11 ZIL7        0.0000 
     29 N         -10.0165  -28.6385  -50.0425 N.am      1 SEC2        0.0000 
     30 N         -10.0270  -28.7480  -51.5930 N.am      9 SEL2        0.0000 
     31 N         -10.0060  -28.5290  -48.4920 N.am      5 SEP2        0.0000 
     32 Zn         -8.3490  -29.1115  -55.0920 Zn        3 ZIC7        0.0000 
     33 Zn         -9.0280  -28.8870  -53.9980 Zn       11 ZIL7        0.0000 
     34 Zn         -7.6700  -29.3360  -56.1860 Zn        7 ZIP7        0.0000 
     35 N          -8.4420  -30.1040  -53.6630 N.am      1 SEC2        0.0000 
     36 N          -9.0280  -28.8870  -53.9980 N.am      9 SEL2        0.0000 
     37 N          -7.8560  -31.3210  -53.3280 N.am      5 SEP2        0.0000 
     38 CA         -6.6215  -25.0480  -53.4015 C.3       4 GLC5        0.0000 
     39 CA         -8.6030  -26.0830  -53.5820 C.3      12 GLL5        0.0000 
     40 CA         -4.6400  -24.0130  -53.2210 C.3       8 GLP5        0.0000 
     41 CA         -7.5190  -23.4305  -52.2160 C.3       4 GLC5        0.0000 
     42 CA         -8.8050  -24.6120  -53.2400 C.3      12 GLL5        0.0000 
     43 CA         -6.2330  -22.2490  -51.1920 C.3       8 GLP5        0.0000 
     44 CA        -12.6825  -22.5300  -53.4005 C.3       4 GLC5        0.0000 
     45 CA        -10.6620  -23.0690  -53.1420 C.3      12 GLL5        0.0000 
     46 CA        -14.7030  -21.9910  -53.6590 C.3       8 GLP5        0.0000 
     47 CA         -8.4940  -21.2050  -55.1240 C.3       4 GLC5        0.0000 
     48 CA         -9.7550  -22.7700  -54.3250 C.3      12 GLL5        0.0000 
     49 CA         -7.2330  -19.6400  -55.9230 C.3       8 GLP5        0.0000 
     50 CA        -11.0038  -22.7387  -51.2935 C.3       4 GLC5        0.0000 
     51 CA        -11.5950  -21.7490  -49.7240 C.3       8 GLP5        0.0000 
     52 CA        -13.3262  -22.0763  -56.4600 C.3       4 GLC5        0.0000 
     53 CA        -10.9690  -21.6720  -56.1800 C.3      12 GLL5        0.0000 
     54 CA        -15.3040  -22.2580  -56.1550 C.3       8 GLP5        0.0000 
@<TRIPOS>BOND
@<TRIPOS>SUBSTRUCTURE
     1 SEC2        7 GROUP        1 X    SEC  0     ROOT SEC X 2
     2 LYC4        4 GROUP        1 X    LYC  0     **** LYC X 4
     3 ZIC7        1 GROUP        1 X    ZIC  0     **** ZIC X 5
     4 GLC5       38 GROUP        1 X    GLC  0     **** GLC X 6
     5 SEP2        9 GROUP        1 Y    SEP  0     ROOT SEP Y 9
     6 LYP4        6 GROUP        1 Y    LYP  0     **** LYP Y 11
     7 ZIP7        3 GROUP        1 Y    ZIP  0     **** ZIP Y 12
     8 GLP5       40 GROUP        1 Y    GLP  0     **** GLP Y 13
     9 SEL2        8 GROUP        1 Z    SEL  0     ROOT SEL Z 16
    10 LYL4        5 GROUP        1 Z    LYL  0     **** LYL Z 18
    11 ZIL7        2 GROUP        1 Z    ZIL  0     **** ZIL Z 19
    12 GLL5       39 GROUP        1 Z    GLL  0     **** GLL Z 20
@<TRIPOS>SET

