#    Name: 3auo_DG3_2_ligand
#    Modification time : Mon Mar 24 18:13:57 2014

@<TRIPOS>MOLECULE
3auo_DG3_2_ligand
   42    44     1     0     0
SMALL
NO_CHARGES


@<TRIPOS>ATOM
      1 PG        -11.9300  -30.9810  -52.5800 P.3       1 DG3576      0.0000 
      2 O1G       -10.5160  -30.9070  -53.1170 O.co2     1 DG3576      0.0000 
      3 O2G       -12.9440  -31.3510  -53.6410 O.co2     1 DG3576      0.0000 
      4 O3G       -12.0720  -31.7200  -51.2680 O.co2     1 DG3576      0.0000 
      5 O3B       -12.3850  -29.4870  -52.1980 O.3       1 DG3576      0.0000 
      6 PB        -11.3680  -28.2520  -52.0750 P.3       1 DG3576      0.0000 
      7 O1B       -12.0660  -27.2030  -51.2530 O.co2     1 DG3576      0.0000 
      8 O2B       -10.0270  -28.7480  -51.5930 O.co2     1 DG3576      0.0000 
      9 O3A       -11.3390  -27.8130  -53.6360 O.3       1 DG3576      0.0000 
     10 PA        -10.0730  -27.9860  -54.6340 P.3       1 DG3576      0.0000 
     11 O1A        -9.0280  -28.8870  -53.9980 O.co2     1 DG3576      0.0000 
     12 O2A       -10.6150  -28.2860  -56.0060 O.co2     1 DG3576      0.0000 
     13 O5'        -9.4700  -26.4960  -54.6410 O.3       1 DG3576      0.0000 
     14 C5'        -8.6030  -26.0830  -53.5820 C.3       1 DG3576      0.0000 
     15 C4'        -8.8050  -24.6120  -53.2400 C.3       1 DG3576      0.0000 
     16 O4'        -8.7410  -23.7760  -54.3980 O.3       1 DG3576      0.0000 
     17 C3'       -10.1630  -24.3880  -52.5840 C.3       1 DG3576      0.0000 
     18 C2'       -10.6620  -23.0690  -53.1420 C.3       1 DG3576      0.0000 
     19 C1'        -9.7550  -22.7700  -54.3250 C.3       1 DG3576      0.0000 
     20 N9        -10.5580  -22.7730  -55.5630 N.pl3     1 DG3576      0.0000 
     21 C8        -11.0010  -23.8500  -56.2430 C.2       1 DG3576      0.0000 
     22 N7        -11.7080  -23.4640  -57.3360 N.2       1 DG3576      0.0000 
     23 C5        -11.7280  -22.1170  -57.3500 C.2       1 DG3576      0.0000 
     24 C6        -12.2970  -21.0560  -58.2090 C.2       1 DG3576      0.0000 
     25 O6        -12.9550  -21.3600  -59.2220 O.2       1 DG3576      0.0000 
     26 N1        -12.0800  -19.7740  -57.8770 N.am      1 DG3576      0.0000 
     27 C2        -11.3730  -19.4290  -56.7830 C.2       1 DG3576      0.0000 
     28 N2        -11.1840  -18.1190  -56.4800 N.pl3     1 DG3576      0.0000 
     29 N3        -10.8290  -20.3510  -55.9510 N.2       1 DG3576      0.0000 
     30 C4        -10.9690  -21.6720  -56.1800 C.2       1 DG3576      0.0000 
     31 H          -7.5422  -26.2224  -53.8509 H         1 DG3576      0.0000 
     32 H          -8.7798  -26.6683  -52.6637 H         1 DG3576      0.0000 
     33 H          -8.0464  -24.3202  -52.5171 H         1 DG3576      0.0000 
     34 H         -10.0423  -24.3137  -51.5260 H         1 DG3576      0.0000 
     35 H         -10.8288  -25.1755  -52.8598 H         1 DG3576      0.0000 
     36 H         -10.5605  -22.3017  -52.4067 H         1 DG3576      0.0000 
     37 H         -11.6698  -23.1746  -53.4779 H         1 DG3576      0.0000 
     38 H          -9.3243  -21.7957  -54.1751 H         1 DG3576      0.0000 
     39 H         -10.8387  -24.7799  -55.9890 H         1 DG3576      0.0000 
     40 H         -12.4749  -19.0093  -58.4912 H         1 DG3576      0.0000 
     41 H         -11.6310  -17.4588  -57.0836 H         1 DG3576      0.0000 
     42 H         -10.6145  -17.9301  -55.6800 H         1 DG3576      0.0000 
@<TRIPOS>BOND
     1    2    1 ar   
     2    3    1 ar   
     3    4    1 ar   
     4    5    1 1    
     5    6    5 1    
     6    7    6 ar   
     7    8    6 ar   
     8    9    6 1    
     9   10    9 1    
    10   11   10 ar   
    11   12   10 ar   
    12   13   10 1    
    13   14   13 1    
    14   15   14 1    
    15   31   14 1    
    16   32   14 1    
    17   16   15 1    
    18   17   15 1    
    19   33   15 1    
    20   19   16 1    
    21   18   17 1    
    22   34   17 1    
    23   35   17 1    
    24   19   18 1    
    25   36   18 1    
    26   37   18 1    
    27   20   19 1    
    28   38   19 1    
    29   21   20 1    
    30   30   20 1    
    31   22   21 2    
    32   39   21 1    
    33   23   22 1    
    34   24   23 1    
    35   30   23 2    
    36   25   24 2    
    37   26   24 am   
    38   27   26 1    
    39   40   26 1    
    40   28   27 1    
    41   29   27 2    
    42   41   28 1    
    43   42   28 1    
    44   30   29 1    
@<TRIPOS>SUBSTRUCTURE
     1 DG3576      1 GROUP   
@<TRIPOS>SET

