#    Name: 3hm1_J3Z_2_INTS_M
#    Modification time : Tue Mar 25 14:31:30 2014

@<TRIPOS>MOLECULE
3hm1_J3Z_2_INTS_M
   61     0     9     0     0
SMALL
NO_CHARGES


@<TRIPOS>ATOM
      1 CA         -2.7975   -6.9570   23.0660 C.3       3 GLC5        0.0000 
      2 CA         -3.5330   -5.2470   22.0210 C.3       9 GLL5        0.0000 
      3 CA         -2.0620   -8.6670   24.1110 C.3       6 GLP5        0.0000 
      4 CA         -7.7150   -5.1765   20.0870 C.3       3 GLC5        0.0000 
      5 CA         -5.7870   -4.7330   20.8670 C.3       9 GLL5        0.0000 
      6 CA         -9.6430   -5.6200   19.3070 C.3       6 GLP5        0.0000 
      7 CA         -2.6095   -2.1725   19.7170 C.3       3 GLC5        0.0000 
      8 CA         -4.6050   -2.9270   19.5790 C.3       9 GLL5        0.0000 
      9 CA         -0.6140   -1.4180   19.8550 C.3       6 GLP5        0.0000 
     10 CA         -5.6395   -1.4145   19.0595 C.3       3 GLC5        0.0000 
     11 CA         -6.6740    0.0980   18.5400 C.3       6 GLP5        0.0000 
     12 N          -7.0985   -5.7540   16.7205 N.am      2 SEC2        0.0000 
     13 N          -6.7590   -4.7660   18.0050 N.am      8 SEL2        0.0000 
     14 N          -7.4380   -6.7420   15.4360 N.am      5 SEP2        0.0000 
     15 N           0.3785   -5.3700   27.7090 N.am      2 SEC2        0.0000 
     16 N          -0.4430   -4.4160   26.7000 N.am      8 SEL2        0.0000 
     17 N           1.2000   -6.3240   28.7180 N.am      5 SEP2        0.0000 
     18 O          -0.7285   -3.9575   27.7910 O.2       1 ALC1        0.0000 
     19 O          -0.4430   -4.4160   26.7000 O.2       7 ALL1        0.0000 
     20 O          -1.0140   -3.4990   28.8820 O.2       4 ALP1        0.0000 
     21 CA         -4.9490   -7.2085   17.5515 C.3       3 GLC5        0.0000 
     22 CA         -4.4920   -5.2530   17.3330 C.3       9 GLL5        0.0000 
     23 CA         -5.4060   -9.1640   17.7700 C.3       6 GLP5        0.0000 
     24 CA         -5.2725   -5.4560   15.4770 C.3       3 GLC5        0.0000 
     25 CA         -6.0530   -5.6590   13.6210 C.3       6 GLP5        0.0000 
     26 CA         -1.0460   -5.0760   17.8035 C.3       3 GLC5        0.0000 
     27 CA         -3.2370   -5.3180   18.2120 C.3       9 GLL5        0.0000 
     28 CA          1.1450   -4.8340   17.3950 C.3       6 GLP5        0.0000 
     29 CA         -1.9925   -6.9270   17.4050 C.3       3 GLC5        0.0000 
     30 CA         -0.7480   -8.5360   16.5980 C.3       6 GLP5        0.0000 
     31 CA         -0.1525   -5.1755   19.0205 C.3       3 GLC5        0.0000 
     32 CA         -1.4500   -5.5170   20.6460 C.3       9 GLL5        0.0000 
     33 CA         -0.1235   -7.2505   20.1420 C.3       3 GLC5        0.0000 
     34 CA          1.2030   -8.9840   19.6380 C.3       6 GLP5        0.0000 
     35 CA          1.0130   -4.8950   20.8040 C.3       3 GLC5        0.0000 
     36 CA         -0.5680   -5.3970   21.8890 C.3       9 GLL5        0.0000 
     37 CA          2.5940   -4.3930   19.7190 C.3       6 GLP5        0.0000 
     38 CA         -1.3150   -7.0320   23.0000 C.3       3 GLC5        0.0000 
     39 CA         -3.0855   -5.2875   27.3840 C.3       3 GLC5        0.0000 
     40 CA         -2.5700   -4.5430   25.6060 C.3       9 GLL5        0.0000 
     41 CA         -3.6010   -6.0320   29.1620 C.3       6 GLP5        0.0000 
     42 CA         -4.4040   -6.5910   24.6885 C.3       3 GLC5        0.0000 
     43 CA         -3.3260   -4.7470   24.4560 C.3       9 GLL5        0.0000 
     44 CA         -5.4820   -8.4350   24.9210 C.3       6 GLP5        0.0000 
     45 CA         -6.0764   -5.7981   22.7432 C.3       3 GLC5        0.0000 
     46 CA         -4.9080   -4.5560   22.1110 C.3       9 GLL5        0.0000 
     47 CA         -7.1490   -6.7790   24.0200 C.3       6 GLP5        0.0000 
     48 CA         -5.1143   -6.7035   19.8450 C.3       3 GLC5        0.0000 
     49 CA         -4.8470   -8.8380   19.4440 C.3       6 GLP5        0.0000 
     50 CA         -2.9848   -4.5627   16.3223 C.3       3 GLC5        0.0000 
     51 CA         -2.1050   -3.8400   14.8720 C.3       6 GLP5        0.0000 
     52 CA         -4.1707   -7.0700   19.1863 C.3       3 GLC5        0.0000 
     53 CA         -0.9811   -3.3529   20.5742 C.3       3 GLC5        0.0000 
     54 CA         -2.8070   -4.8400   20.7500 C.3       9 GLL5        0.0000 
     55 CA          0.0850   -2.9617   24.4342 C.3       3 GLC5        0.0000 
     56 CA         -0.5510   -4.8900   24.3420 C.3       9 GLL5        0.0000 
     57 CA          1.0340   -1.1690   23.9200 C.3       6 GLP5        0.0000 
     58 CA          0.3186   -6.7489   23.5299 C.3       3 GLC5        0.0000 
     59 CA          1.3830   -8.4280   23.6220 C.3       6 GLP5        0.0000 
     60 CA         -3.9470   -2.8685   25.0215 C.3       3 GLC5        0.0000 
     61 CA         -4.9460   -1.0920   25.0120 C.3       6 GLP5        0.0000 
@<TRIPOS>BOND
@<TRIPOS>SUBSTRUCTURE
     1 ALC1       18 GROUP        1 X    ALC  0     ROOT ALC X 1
     2 SEC2       12 GROUP        1 X    SEC  0     **** SEC X 2
     3 GLC5        1 GROUP        1 X    GLC  0     **** GLC X 6
     4 ALP1       20 GROUP        1 Y    ALP  0     ROOT ALP Y 8
     5 SEP2       14 GROUP        1 Y    SEP  0     **** SEP Y 9
     6 GLP5        3 GROUP        1 Y    GLP  0     **** GLP Y 13
     7 ALL1       19 GROUP        1 Z    ALL  0     ROOT ALL Z 15
     8 SEL2       13 GROUP        1 Z    SEL  0     **** SEL Z 16
     9 GLL5        2 GROUP        1 Z    GLL  0     **** GLL Z 20
@<TRIPOS>SET

