#    Name: 3hm1_J3Z_2_ligand
#    Modification time : Tue Mar 25 14:31:30 2014

@<TRIPOS>MOLECULE
3hm1_J3Z_2_ligand
   42    45     1     0     0
SMALL
NO_CHARGES


@<TRIPOS>ATOM
      1 C2         -3.5330   -5.2470   22.0210 C.3       1 J3Z1        0.0000 
      2 C4         -5.7870   -4.7330   20.8670 C.3       1 J3Z1        0.0000 
      3 C5         -4.9760   -4.4050   19.6250 C.3       1 J3Z1        0.0000 
      4 C6         -4.6050   -2.9270   19.5790 C.3       1 J3Z1        0.0000 
      5 O1         -6.7590   -4.7660   18.0050 O.2       1 J3Z1        0.0000 
      6 O3         -0.4430   -4.4160   26.7000 O.3       1 J3Z1        0.0000 
      7 C7         -5.5660   -4.8300   18.3050 C.2       1 J3Z1        0.0000 
      8 C8         -4.4920   -5.2530   17.3330 C.3       1 J3Z1        0.0000 
      9 C9         -3.2370   -5.3180   18.2120 C.3       1 J3Z1        0.0000 
     10 C10        -3.7520   -5.2860   19.6450 C.3       1 J3Z1        0.0000 
     11 C12        -2.8070   -4.8400   20.7500 C.3       1 J3Z1        0.0000 
     12 C3         -4.9080   -4.5560   22.1110 C.3       1 J3Z1        0.0000 
     13 C14        -1.4500   -5.5170   20.6460 C.3       1 J3Z1        0.0000 
     14 C15        -0.5680   -5.3970   21.8890 C.3       1 J3Z1        0.0000 
     15 C16        -1.3130   -5.1020   23.1780 C.ar      1 J3Z1        0.0000 
     16 C21        -2.7000   -5.0230   23.2360 C.ar      1 J3Z1        0.0000 
     17 C17        -0.5510   -4.8900   24.3420 C.ar      1 J3Z1        0.0000 
     18 C18        -1.1770   -4.6190   25.5550 C.ar      1 J3Z1        0.0000 
     19 C19        -2.5700   -4.5430   25.6060 C.ar      1 J3Z1        0.0000 
     20 C20        -3.3260   -4.7470   24.4560 C.ar      1 J3Z1        0.0000 
     21 H          -3.7374   -6.3381   21.9384 H         1 J3Z1        0.0000 
     22 H          -6.1305   -5.7591   20.8183 H         1 J3Z1        0.0000 
     23 H          -6.6368   -4.0650   20.9351 H         1 J3Z1        0.0000 
     24 H          -4.3598   -4.5158   16.5846 H         1 J3Z1        0.0000 
     25 H          -4.7016   -6.2164   16.9469 H         1 J3Z1        0.0000 
     26 H          -2.6275   -4.4641   18.0258 H         1 J3Z1        0.0000 
     27 H          -2.7228   -6.2335   18.0311 H         1 J3Z1        0.0000 
     28 H          -4.1220   -6.3040   19.8864 H         1 J3Z1        0.0000 
     29 H          -2.7177   -3.7864   20.7260 H         1 J3Z1        0.0000 
     30 H          -4.7506   -3.4798   22.2881 H         1 J3Z1        0.0000 
     31 H          -5.4448   -4.9523   22.9881 H         1 J3Z1        0.0000 
     32 H          -0.9017   -5.0940   19.7808 H         1 J3Z1        0.0000 
     33 H          -1.5998   -6.5917   20.4207 H         1 J3Z1        0.0000 
     34 H           0.1821   -4.6004   21.7146 H         1 J3Z1        0.0000 
     35 H           0.0034   -6.3386   22.0092 H         1 J3Z1        0.0000 
     36 H           0.4750   -4.9371   24.2887 H         1 J3Z1        0.0000 
     37 H          -3.0376   -4.3351   26.4989 H         1 J3Z1        0.0000 
     38 H          -4.3537   -4.6951   24.4999 H         1 J3Z1        0.0000 
     39 H          -4.0594   -2.6562   20.3721 H         1 J3Z1        0.0000 
     40 H          -4.0693   -2.7037   18.7646 H         1 J3Z1        0.0000 
     41 H          -5.4152   -2.3409   19.5667 H         1 J3Z1        0.0000 
     42 H          -1.0822   -3.9998   27.3467 H         1 J3Z1        0.0000 
@<TRIPOS>BOND
     1   11    1 1    
     2   12    1 1    
     3   16    1 1    
     4   21    1 1    
     5    3    2 1    
     6   12    2 1    
     7   22    2 1    
     8   23    2 1    
     9    4    3 1    
    10    7    3 1    
    11   10    3 1    
    12   39    4 1    
    13   40    4 1    
    14   41    4 1    
    15    7    5 2    
    16   18    6 1    
    17   42    6 1    
    18    8    7 1    
    19    9    8 1    
    20   24    8 1    
    21   25    8 1    
    22   10    9 1    
    23   26    9 1    
    24   27    9 1    
    25   11   10 1    
    26   28   10 1    
    27   13   11 1    
    28   29   11 1    
    29   30   12 1    
    30   31   12 1    
    31   14   13 1    
    32   32   13 1    
    33   33   13 1    
    34   15   14 1    
    35   34   14 1    
    36   35   14 1    
    37   16   15 ar   
    38   17   15 ar   
    39   20   16 ar   
    40   18   17 ar   
    41   36   17 1    
    42   19   18 ar   
    43   20   19 ar   
    44   37   19 1    
    45   38   20 1    
@<TRIPOS>SUBSTRUCTURE
     1 J3Z1        1 GROUP   
@<TRIPOS>SET

