#    Name: 4DE1_2_CAVITY_N1_6.mol2
#    Modification time : Mon Mar 10 13:47:56 2014

@<TRIPOS>MOLECULE
4DE1_2_CAVITY_N1_6.mol2
   83     0     5     0     0
SMALL
NO_CHARGES


@<TRIPOS>ATOM
      1 DU         30.9835   95.7207   -6.5453 H         5 CUB7        0.0000 
      2 OG         30.7421   94.7228   -5.4517 O.2       1 SER1        0.0000 
      3 DU         30.5504   95.8064   -8.6202 H         5 CUB7        0.0000 
      4 DU         30.3090   94.8085   -7.5266 H         5 CUB7        0.0000 
      5 OG         30.0676   93.8106   -6.4331 O.2       1 SER1        0.0000 
      6 OG         29.8759   94.8943   -9.6015 O.2       1 SER1        0.0000 
      7 DU         29.6345   93.8963   -8.5079 H         5 CUB7        0.0000 
      8 OG         29.3931   92.8984   -7.4144 O.2       1 SER1        0.0000 
      9 CZ         29.2014   93.9821  -10.5828 C.ar      3 PHE5        0.0000 
     10 CZ         28.9600   92.9842   -9.4892 C.ar      3 PHE5        0.0000 
     11 OG         28.7186   91.9862   -8.3957 O.2       1 SER1        0.0000 
     12 OG         28.4771   90.9883   -7.3021 O.2       1 SER1        0.0000 
     13 CZ         28.2855   92.0720  -10.4706 C.ar      3 PHE5        0.0000 
     14 DU         28.0441   91.0741   -9.3770 H         5 CUB7        0.0000 
     15 OG         27.8026   90.0762   -8.2834 O.2       1 SER1        0.0000 
     16 N          27.5612   89.0782   -7.1899 N.2       2 ALA2        0.0000 
     17 N          27.3695   90.1619  -10.3583 N.2       2 ALA2        0.0000 
     18 O          27.1281   89.1640   -9.2648 O.2       2 ALA2        0.0000 
     19 O          26.8867   88.1661   -8.1712 O.2       2 ALA2        0.0000 
     20 O          32.9759   95.9832   -5.8659 O.2       2 ALA2        0.0000 
     21 CA         32.7345   94.9853   -4.7724 C.3       4 GLY6        0.0000 
     22 OG         32.4930   93.9873   -3.6788 O.2       1 SER1        0.0000 
     23 O          32.5428   96.0689   -7.9408 O.2       2 ALA2        0.0000 
     24 O          32.3014   95.0710   -6.8472 O.2       2 ALA2        0.0000 
     25 OG         32.0599   94.0731   -5.7537 O.2       1 SER1        0.0000 
     26 CA         32.1097   96.1547  -10.0156 C.3       4 GLY6        0.0000 
     27 DU         31.8683   95.1568   -8.9221 H         5 CUB7        0.0000 
     28 DU         31.6269   94.1588   -7.8285 H         5 CUB7        0.0000 
     29 OG         31.3854   93.1609   -6.7350 O.2       1 SER1        0.0000 
     30 OG         31.4352   95.2425  -10.9970 O.2       1 SER1        0.0000 
     31 DU         31.1938   94.2446   -9.9034 H         5 CUB7        0.0000 
     32 DU         30.9524   93.2467   -8.8098 H         5 CUB7        0.0000 
     33 OG         30.7109   92.2487   -7.7163 O.2       1 SER1        0.0000 
     34 CA         30.5193   93.3324  -10.8847 C.3       4 GLY6        0.0000 
     35 OG         30.2778   92.3345   -9.7912 O.2       1 SER1        0.0000 
     36 OG         30.0364   91.3366   -8.6976 O.2       1 SER1        0.0000 
     37 O          29.7950   90.3386   -7.6040 O.2       2 ALA2        0.0000 
     38 OG         29.6033   91.4223  -10.7725 O.2       1 SER1        0.0000 
     39 OG         29.3619   90.4244   -9.6789 O.2       1 SER1        0.0000 
     40 OG         29.1205   89.4265   -8.5854 O.2       1 SER1        0.0000 
     41 O          34.2937   95.3335   -6.1678 O.2       2 ALA2        0.0000 
     42 CA         34.0523   94.3356   -5.0743 C.3       4 GLY6        0.0000 
     43 CA         33.8109   93.3377   -3.9807 C.3       4 GLY6        0.0000 
     44 N          33.8607   95.4192   -8.2427 N.2       2 ALA2        0.0000 
     45 O          33.6192   94.4213   -7.1491 O.2       2 ALA2        0.0000 
     46 CA         33.3778   93.4234   -6.0556 C.3       4 GLY6        0.0000 
     47 N          33.1364   92.4255   -4.9620 N.2       2 ALA2        0.0000 
     48 DU         26.0828   93.2856   -7.7918 H         5 CUB7        0.0000 
     49 DU         25.6000   91.2898   -5.6047 H         5 CUB7        0.0000 
     50 CA         25.3586   90.2918   -4.5112 C.3       4 GLY6        0.0000 
     51 CZ         25.6498   93.3714   -9.8667 C.ar      3 PHE5        0.0000 
     52 CA         25.4083   92.3734   -8.7731 C.3       4 GLY6        0.0000 
     53 O          25.1669   91.3755   -7.6796 O.2       2 ALA2        0.0000 
     54 O          24.9255   90.3776   -6.5860 O.2       2 ALA2        0.0000 
     55 CA         24.6841   89.3797   -5.4925 C.3       4 GLY6        0.0000 
     56 CA         24.7338   91.4613   -9.7545 C.3       4 GLY6        0.0000 
     57 O          24.2510   89.4654   -7.5673 O.2       2 ALA2        0.0000 
     58 O          24.0096   88.4675   -6.4738 O.2       2 ALA2        0.0000 
     59 DU         28.3166   94.5460   -8.2060 H         5 CUB7        0.0000 
     60 OG         28.0752   93.5481   -7.1124 O.2       1 SER1        0.0000 
     61 CZ         27.8835   94.6318  -10.2809 C.ar      3 PHE5        0.0000 
     62 CZ         27.6421   93.6339   -9.1873 C.ar      3 PHE5        0.0000 
     63 DU         27.4007   92.6359   -8.0938 H         5 CUB7        0.0000 
     64 OG         27.1593   91.6380   -7.0002 O.2       1 SER1        0.0000 
     65 N          26.9179   90.6401   -5.9066 N.2       2 ALA2        0.0000 
     66 CZ         26.9676   92.7217  -10.1686 C.ar      3 PHE5        0.0000 
     67 CA         26.7262   91.7238   -9.0751 C.3       4 GLY6        0.0000 
     68 DU         26.4848   90.7258   -7.9815 H         5 CUB7        0.0000 
     69 N          26.2433   89.7279   -6.8880 N.2       2 ALA2        0.0000 
     70 N          26.0019   88.7300   -5.7944 N.2       2 ALA2        0.0000 
     71 O          26.0517   90.8116  -10.0564 O.2       2 ALA2        0.0000 
     72 O          25.8103   89.8137   -8.9628 O.2       2 ALA2        0.0000 
     73 O          25.5688   88.8157   -7.8693 O.2       2 ALA2        0.0000 
     74 CA         33.1861   94.5071   -9.2240 C.3       4 GLY6        0.0000 
     75 OG         32.9447   93.5092   -8.1305 O.2       1 SER1        0.0000 
     76 OG         32.7033   92.5112   -7.0369 O.2       1 SER1        0.0000 
     77 CA         32.5116   93.5949  -10.2053 C.3       4 GLY6        0.0000 
     78 OG         32.2702   92.5970   -9.1118 O.2       1 SER1        0.0000 
     79 OG         32.0288   91.5991   -8.0182 O.2       1 SER1        0.0000 
     80 OG         31.3543   90.6869   -8.9995 O.2       1 SER1        0.0000 
     81 CA         35.3702   93.6859   -5.3762 C.3       4 GLY6        0.0000 
     82 CA         34.9371   93.7716   -7.4511 C.3       4 GLY6        0.0000 
     83 CA         34.6957   92.7737   -6.3575 C.3       4 GLY6        0.0000 
@<TRIPOS>BOND
@<TRIPOS>SUBSTRUCTURE
     1 SER1        2 GROUP   
     2 ALA2       16 GROUP   
     3 PHE5        9 GROUP   
     4 GLY6       21 GROUP   
     5 CUB7        1 GROUP   
@<TRIPOS>SET

