#    Name: 4de1_0J6_2_INTS_M
#    Modification time : Tue Mar 25 09:38:10 2014

@<TRIPOS>MOLECULE
4de1_0J6_2_INTS_M
   37     0     9     0     0
SMALL
NO_CHARGES


@<TRIPOS>ATOM
      1 N          23.3345   89.5850   -8.6800 N.am      2 SEC2        0.0000 
      2 N          24.5430   88.9180   -8.2920 N.am      8 SEL2        0.0000 
      3 N          22.1260   90.2520   -9.0680 N.am      5 SEP2        0.0000 
      4 N          24.6555   88.6615   -9.7220 N.am      2 SEC2        0.0000 
      5 N          24.7680   88.4050  -11.1520 N.am      5 SEP2        0.0000 
      6 CA         21.2050   84.8165   -5.7875 C.3       3 GLC5        0.0000 
      7 CA         21.1820   86.8620   -4.8650 C.3       9 GLL5        0.0000 
      8 CA         21.2280   82.7710   -6.7100 C.3       6 GLP5        0.0000 
      9 CA         21.1550   85.0550   -3.5670 C.3       3 GLC5        0.0000 
     10 CA         21.1280   83.2480   -2.2690 C.3       6 GLP5        0.0000 
     11 CA         30.1235   91.0925  -11.3900 C.3       3 GLC5        0.0000 
     12 CA         28.6820   91.0750  -10.0820 C.3       9 GLL5        0.0000 
     13 CA         31.5650   91.1100  -12.6980 C.3       6 GLP5        0.0000 
     14 N          30.4120   91.6545   -6.0255 N.am      2 SEC2        0.0000 
     15 N          30.9900   91.5570   -7.2530 N.am      8 SEL2        0.0000 
     16 N          29.8340   91.7520   -4.7980 N.am      5 SEP2        0.0000 
     17 N          33.8285   91.6495   -8.2925 N.am      2 SEC2        0.0000 
     18 N          32.3630   91.6900   -7.3460 N.am      8 SEL2        0.0000 
     19 N          35.2940   91.6090   -9.2390 N.am      5 SEP2        0.0000 
     20 N          33.9925   91.4700   -8.9305 N.am      2 SEC2        0.0000 
     21 N          32.6910   91.3310   -8.6220 N.am      8 SEL2        0.0000 
     22 O          31.5470   90.4770  -10.5770 O.2       1 ALC1        0.0000 
     23 O          31.5370   91.0050   -9.2980 O.2       7 ALL1        0.0000 
     24 O          31.5570   89.9490  -11.8560 O.2       4 ALP1        0.0000 
     25 CA         24.3317   87.0565   -5.3594 C.3       3 GLC5        0.0000 
     26 CA         22.2860   87.7740   -4.9880 C.3       9 GLL5        0.0000 
     27 CA         25.7560   85.9210   -5.1970 C.3       6 GLP5        0.0000 
     28 CA         21.4832   87.0302   -7.1686 C.3       3 GLC5        0.0000 
     29 CA         23.0200   88.1440   -6.1190 C.3       9 GLL5        0.0000 
     30 CA         21.0490   86.6500   -9.1280 C.3       6 GLP5        0.0000 
     31 CA         24.8693   87.6790   -4.6810 C.3       3 GLC5        0.0000 
     32 CA         24.3510   89.6150   -4.7350 C.3       9 GLL5        0.0000 
     33 CA         25.6788   89.0095   -3.3330 C.3       3 GLC5        0.0000 
     34 CA         27.3750   88.5820   -2.5010 C.3       6 GLP5        0.0000 
     35 CA         25.7770   91.7235  -11.1250 C.3       3 GLC5        0.0000 
     36 CA         26.4030   90.6560   -9.3870 C.3       9 GLL5        0.0000 
     37 CA         24.6900   92.6470  -12.3550 C.3       6 GLP5        0.0000 
@<TRIPOS>BOND
@<TRIPOS>SUBSTRUCTURE
     1 ALC1       22 GROUP        1 X    ALC  0     ROOT ALC X 1
     2 SEC2        1 GROUP        1 X    SEC  0     **** SEC X 2
     3 GLC5        6 GROUP        1 X    GLC  0     **** GLC X 6
     4 ALP1       24 GROUP        1 Y    ALP  0     ROOT ALP Y 8
     5 SEP2        3 GROUP        1 Y    SEP  0     **** SEP Y 9
     6 GLP5        8 GROUP        1 Y    GLP  0     **** GLP Y 13
     7 ALL1       23 GROUP        1 Z    ALL  0     ROOT ALL Z 15
     8 SEL2        2 GROUP        1 Z    SEL  0     **** SEL Z 16
     9 GLL5        7 GROUP        1 Z    GLL  0     **** GLL Z 20
@<TRIPOS>SET

