#    Name: 4de1_0J6_2_ligand
#    Modification time : Tue Mar 25 09:38:10 2014

@<TRIPOS>MOLECULE
4de1_0J6_2_ligand
   34    37     1     0     0
SMALL
NO_CHARGES


@<TRIPOS>ATOM
      1 O14        24.5430   88.9180   -8.2920 O.2       1 0J6301      0.0000 
      2 C13        24.8600   89.4030   -7.2000 C.2       1 0J6301      0.0000 
      3 C15        24.0380   89.0760   -5.9920 C.ar      1 0J6301      0.0000 
      4 C20        23.0200   88.1440   -6.1190 C.ar      1 0J6301      0.0000 
      5 C19        22.2860   87.7740   -4.9880 C.ar      1 0J6301      0.0000 
      6 C23        21.1820   86.8620   -4.8650 C.2       1 0J6301      0.0000 
      7 N22        20.8390   86.8820   -3.5680 N.pl3     1 0J6301      0.0000 
      8 N21        21.7000   87.7680   -2.8900 N.2       1 0J6301      0.0000 
      9 C18        22.5820   88.3300   -3.7560 C.ar      1 0J6301      0.0000 
     10 C17        23.6140   89.2590   -3.5950 C.ar      1 0J6301      0.0000 
     11 C16        24.3510   89.6150   -4.7350 C.ar      1 0J6301      0.0000 
     12 N12        25.9520   90.1910   -7.0150 N.am      1 0J6301      0.0000 
     13 C8         26.8480   90.5320   -8.0620 C.ar      1 0J6301      0.0000 
     14 C7         28.1910   90.6720   -7.7390 C.ar      1 0J6301      0.0000 
     15 C9         26.4030   90.6560   -9.3870 C.ar      1 0J6301      0.0000 
     16 C10        27.3250   90.9440  -10.4030 C.ar      1 0J6301      0.0000 
     17 C11        28.6820   91.0750  -10.0820 C.ar      1 0J6301      0.0000 
     18 C6         29.0910   90.9290   -8.7660 C.ar      1 0J6301      0.0000 
     19 C2         30.5090   91.1290   -8.4500 C.2       1 0J6301      0.0000 
     20 N3         30.9900   91.5570   -7.2530 N.2       1 0J6301      0.0000 
     21 N4         32.3630   91.6900   -7.3460 N.2       1 0J6301      0.0000 
     22 N5         32.6910   91.3310   -8.6220 N.2       1 0J6301      0.0000 
     23 N1         31.5370   91.0050   -9.2980 N.pl3     1 0J6301      0.0000 
     24 H          22.8037   87.7281   -7.0281 H         1 0J6301      0.0000 
     25 H          20.8194   86.3810   -5.5777 H         1 0J6301      0.0000 
     26 H          20.1370   86.3933   -3.1389 H         1 0J6301      0.0000 
     27 H          23.8232   89.6600   -2.6943 H         1 0J6301      0.0000 
     28 H          25.1322   90.2810   -4.6475 H         1 0J6301      0.0000 
     29 H          26.1646   90.5783   -6.0616 H         1 0J6301      0.0000 
     30 H          28.5081   90.5888   -6.7767 H         1 0J6301      0.0000 
     31 H          25.4132   90.5370   -9.6093 H         1 0J6301      0.0000 
     32 H          27.0100   91.0570  -11.3668 H         1 0J6301      0.0000 
     33 H          29.3628   91.2775  -10.8203 H         1 0J6301      0.0000 
     34 H          31.4995   90.7372  -10.2199 H         1 0J6301      0.0000 
@<TRIPOS>BOND
     1    2    1 2    
     2    3    2 1    
     3   12    2 am   
     4    4    3 ar   
     5   11    3 ar   
     6    5    4 ar   
     7   24    4 1    
     8    6    5 2    
     9    9    5 ar   
    10    7    6 1    
    11   25    6 1    
    12    8    7 1    
    13   26    7 1    
    14    9    8 2    
    15   10    9 ar   
    16   11   10 ar   
    17   27   10 1    
    18   28   11 1    
    19   13   12 1    
    20   29   12 1    
    21   14   13 ar   
    22   15   13 ar   
    23   18   14 ar   
    24   30   14 1    
    25   16   15 ar   
    26   31   15 1    
    27   17   16 ar   
    28   32   16 1    
    29   18   17 ar   
    30   33   17 1    
    31   19   18 1    
    32   20   19 2    
    33   23   19 1    
    34   21   20 1    
    35   22   21 2    
    36   23   22 1    
    37   34   23 1    
@<TRIPOS>SUBSTRUCTURE
     1 0J6301      1 GROUP   
@<TRIPOS>SET

