#    Name: 4ej7_ATP_1_INTS_M
#    Modification time : Mon Mar 24 18:05:12 2014

@<TRIPOS>MOLECULE
4ej7_ATP_1_INTS_M
   56     0    12     0     0
SMALL
NO_CHARGES


@<TRIPOS>ATOM
      1 N          69.1300   33.4080   54.6585 N.am      2 SEC2        0.0000 
      2 N          69.7860   34.4960   54.5930 N.am     10 SEL2        0.0000 
      3 N          68.4740   32.3200   54.7240 N.am      6 SEP2        0.0000 
      4 N          70.2000   32.3360   52.5425 N.am      2 SEC2        0.0000 
      5 N          71.7290   31.8880   53.0360 N.am     10 SEL2        0.0000 
      6 N          68.6710   32.7840   52.0490 N.am      6 SEP2        0.0000 
      7 N          71.5185   32.1620   51.8410 N.am      2 SEC2        0.0000 
      8 N          71.3080   32.4360   50.6460 N.am      6 SEP2        0.0000 
      9 NZ         74.7885   33.1045   52.3860 N.4       3 LYC4        0.0000 
     10 NZ         73.5160   33.7840   52.9550 N.4      11 LYL4        0.0000 
     11 NZ         76.0610   32.4250   51.8170 N.4       7 LYP4        0.0000 
     12 N          74.7885   33.1045   52.3860 N.am      2 SEC2        0.0000 
     13 N          73.5160   33.7840   52.9550 N.am     10 SEL2        0.0000 
     14 N          76.0610   32.4250   51.8170 N.am      6 SEP2        0.0000 
     15 NZ         76.1405   32.2790   53.1580 N.4       3 LYC4        0.0000 
     16 NZ         76.2200   32.1330   54.4990 N.4      11 LYL4        0.0000 
     17 N          76.1405   32.2790   53.1580 N.am      2 SEC2        0.0000 
     18 N          76.2200   32.1330   54.4990 N.am     10 SEL2        0.0000 
     19 CA         71.9355   30.9670   56.6650 C.3       4 GLC5        0.0000 
     20 CA         73.8380   30.8160   57.1990 C.3      12 GLL5        0.0000 
     21 CA         70.0330   31.1180   56.1310 C.3       8 GLP5        0.0000 
     22 CA         73.9460   29.8225   55.6275 C.3       4 GLC5        0.0000 
     23 CA         74.0540   28.8290   54.0560 C.3       8 GLP5        0.0000 
     24 CA         72.3510   30.3950   59.5250 C.3       4 GLC5        0.0000 
     25 CA         74.1600   30.3820   58.6170 C.3      12 GLL5        0.0000 
     26 CA         70.5420   30.4080   60.4330 C.3       8 GLP5        0.0000 
     27 CA         72.7825   31.6975   59.9705 C.3       4 GLC5        0.0000 
     28 CA         74.9100   31.4750   59.3590 C.3      12 GLL5        0.0000 
     29 CA         70.6550   31.9200   60.5820 C.3       8 GLP5        0.0000 
     30 CA         76.6745   27.6745   59.2070 C.3       4 GLC5        0.0000 
     31 CA         76.0610   29.3750   59.5720 C.3      12 GLL5        0.0000 
     32 CA         77.2880   25.9740   58.8420 C.3       8 GLP5        0.0000 
     33 CA         82.3110   27.9710   59.4195 C.3       4 GLC5        0.0000 
     34 CA         80.9770   29.3400   58.6580 C.3      12 GLL5        0.0000 
     35 CA         83.6450   26.6020   60.1810 C.3       8 GLP5        0.0000 
     36 CA         81.1325   31.2755   58.5090 C.3       4 GLC5        0.0000 
     37 CA         81.2880   33.2110   58.3600 C.3       8 GLP5        0.0000 
     38 O          83.3305   28.6445   57.8540 O.2       1 ALC1        0.0000 
     39 O          81.9210   29.3500   57.6850 O.2       9 ALL1        0.0000 
     40 O          84.7400   27.9390   58.0230 O.2       5 ALP1        0.0000 
     41 N          82.5175   29.0050   60.6765 N.am      2 SEC2        0.0000 
     42 N          81.3080   29.3080   59.9670 N.am     10 SEL2        0.0000 
     43 N          83.7270   28.7020   61.3860 N.am      6 SEP2        0.0000 
     44 CA         82.0065   27.9500   60.5575 C.3       4 GLC5        0.0000 
     45 CA         80.3680   29.2980   60.9340 C.3      12 GLL5        0.0000 
     46 CA         82.2720   29.4475   61.6870 C.3       4 GLC5        0.0000 
     47 CA         84.1760   29.5970   62.4400 C.3       8 GLP5        0.0000 
     48 CA         80.3755   30.8495   61.7360 C.3       4 GLC5        0.0000 
     49 CA         80.3830   32.4010   62.5380 C.3       8 GLP5        0.0000 
     50 CA         77.0118   31.6474   59.1722 C.3       4 GLC5        0.0000 
     51 CA         75.8860   30.7260   60.2350 C.3      12 GLL5        0.0000 
     52 CA         78.2940   33.0570   58.6600 C.3       8 GLP5        0.0000 
     53 CA         80.2060   27.5968   57.4338 C.3       4 GLC5        0.0000 
     54 CA         79.5370   29.3630   58.3150 C.3      12 GLL5        0.0000 
     55 CA         80.1550   25.8420   56.3810 C.3       8 GLP5        0.0000 
     56 CA         78.6743   31.2070   58.7650 C.3       4 GLC5        0.0000 
@<TRIPOS>BOND
@<TRIPOS>SUBSTRUCTURE
     1 ALC1       38 GROUP        1 X    ALC  0     ROOT ALC X 1
     2 SEC2        1 GROUP        1 X    SEC  0     **** SEC X 2
     3 LYC4        9 GROUP        1 X    LYC  0     **** LYC X 4
     4 GLC5       19 GROUP        1 X    GLC  0     **** GLC X 6
     5 ALP1       40 GROUP        1 Y    ALP  0     ROOT ALP Y 8
     6 SEP2        3 GROUP        1 Y    SEP  0     **** SEP Y 9
     7 LYP4       11 GROUP        1 Y    LYP  0     **** LYP Y 11
     8 GLP5       21 GROUP        1 Y    GLP  0     **** GLP Y 13
     9 ALL1       39 GROUP        1 Z    ALL  0     ROOT ALL Z 15
    10 SEL2        2 GROUP        1 Z    SEL  0     **** SEL Z 16
    11 LYL4       10 GROUP        1 Z    LYL  0     **** LYL Z 18
    12 GLL5       20 GROUP        1 Z    GLL  0     **** GLL Z 20
@<TRIPOS>SET

