#    Name: 4ej7_ATP_1_ligand
#    Modification time : Mon Mar 24 18:05:12 2014

@<TRIPOS>MOLECULE
4ej7_ATP_1_ligand
   43    45     1     0     0
SMALL
NO_CHARGES


@<TRIPOS>ATOM
      1 PG         71.2190   34.8930   54.8590 P.3       1 ATP401      0.0000 
      2 O1G        71.4370   35.5210   56.2130 O.co2     1 ATP401      0.0000 
      3 O2G        71.9040   35.6010   53.7130 O.co2     1 ATP401      0.0000 
      4 O3G        69.7860   34.4960   54.5930 O.co2     1 ATP401      0.0000 
      5 PB         72.7240   32.7740   53.7450 P.3       1 ATP401      0.0000 
      6 O1B        71.7290   31.8880   53.0360 O.co2     1 ATP401      0.0000 
      7 O2B        73.5160   33.7840   52.9550 O.co2     1 ATP401      0.0000 
      8 O3B        71.9970   33.4930   54.9880 O.3       1 ATP401      0.0000 
      9 PA         74.9970   32.2800   55.3740 P.3       1 ATP401      0.0000 
     10 O1A        74.6850   33.6070   56.0220 O.co2     1 ATP401      0.0000 
     11 O2A        76.2200   32.1330   54.4990 O.co2     1 ATP401      0.0000 
     12 O3A        73.6980   31.7910   54.5610 O.3       1 ATP401      0.0000 
     13 O5'        75.0480   31.1710   56.5330 O.3       1 ATP401      0.0000 
     14 C5'        73.8380   30.8160   57.1990 C.3       1 ATP401      0.0000 
     15 C4'        74.1600   30.3820   58.6170 C.3       1 ATP401      0.0000 
     16 O4'        75.0170   29.2370   58.6050 O.3       1 ATP401      0.0000 
     17 C3'        74.9100   31.4750   59.3590 C.3       1 ATP401      0.0000 
     18 O3'        74.0220   32.2740   60.1450 O.3       1 ATP401      0.0000 
     19 C2'        75.8860   30.7260   60.2350 C.3       1 ATP401      0.0000 
     20 O2'        75.3030   30.5310   61.5230 O.3       1 ATP401      0.0000 
     21 C1'        76.0610   29.3750   59.5720 C.3       1 ATP401      0.0000 
     22 N9         77.3620   29.3760   58.8630 N.pl3     1 ATP401      0.0000 
     23 C8         77.5100   29.4020   57.5260 C.2       1 ATP401      0.0000 
     24 N7         78.8210   29.3950   57.1780 N.2       1 ATP401      0.0000 
     25 C5         79.5370   29.3630   58.3150 C.ar      1 ATP401      0.0000 
     26 C6         80.9770   29.3400   58.6580 C.ar      1 ATP401      0.0000 
     27 N6         81.9210   29.3500   57.6850 N.pl3     1 ATP401      0.0000 
     28 N1         81.3080   29.3080   59.9670 N.ar      1 ATP401      0.0000 
     29 C2         80.3680   29.2980   60.9340 C.ar      1 ATP401      0.0000 
     30 N3         79.0440   29.3190   60.6940 N.ar      1 ATP401      0.0000 
     31 C4         78.5720   29.3510   59.4250 C.ar      1 ATP401      0.0000 
     32 H          73.3279   29.9867   56.6983 H         1 ATP401      0.0000 
     33 H          73.1421   31.6595   57.2525 H         1 ATP401      0.0000 
     34 H          73.2505   30.1786   59.1436 H         1 ATP401      0.0000 
     35 H          75.4643   32.0414   58.6457 H         1 ATP401      0.0000 
     36 H          76.8023   31.2279   60.2569 H         1 ATP401      0.0000 
     37 H          76.0336   28.6203   60.3036 H         1 ATP401      0.0000 
     38 H          76.7690   29.4233   56.8807 H         1 ATP401      0.0000 
     39 H          81.6817   29.8366   56.8447 H         1 ATP401      0.0000 
     40 H          82.7731   28.8699   57.8937 H         1 ATP401      0.0000 
     41 H          80.6954   29.2718   61.9518 H         1 ATP401      0.0000 
     42 H          74.5149   33.1297   60.3027 H         1 ATP401      0.0000 
     43 H          74.5795   31.2184   61.5862 H         1 ATP401      0.0000 
@<TRIPOS>BOND
     1    2    1 ar   
     2    3    1 ar   
     3    4    1 ar   
     4    8    1 1    
     5    6    5 ar   
     6    7    5 ar   
     7    8    5 1    
     8   12    5 1    
     9   10    9 ar   
    10   11    9 ar   
    11   12    9 1    
    12   13    9 1    
    13   14   13 1    
    14   15   14 1    
    15   32   14 1    
    16   33   14 1    
    17   16   15 1    
    18   17   15 1    
    19   34   15 1    
    20   21   16 1    
    21   18   17 1    
    22   19   17 1    
    23   35   17 1    
    24   42   18 1    
    25   20   19 1    
    26   21   19 1    
    27   36   19 1    
    28   43   20 1    
    29   22   21 1    
    30   37   21 1    
    31   23   22 1    
    32   31   22 1    
    33   24   23 2    
    34   38   23 1    
    35   25   24 1    
    36   26   25 ar   
    37   31   25 ar   
    38   27   26 1    
    39   28   26 ar   
    40   39   27 1    
    41   40   27 1    
    42   29   28 ar   
    43   30   29 ar   
    44   41   29 1    
    45   31   30 ar   
@<TRIPOS>SUBSTRUCTURE
     1 ATP401      1 GROUP   
@<TRIPOS>SET

