#    Name: 2O1O_1_CAVITY_N1_6.mol2
#    Modification time : Tue Mar 11 01:23:59 2014

@<TRIPOS>MOLECULE
2O1O_1_CAVITY_N1_6.mol2
   71     0     7     0     0
SMALL
NO_CHARGES


@<TRIPOS>ATOM
      1 DU        -10.2982    2.7609   12.9076 H         7 CUB7        0.0000 
      2 CZ        -10.7673    2.4077   14.2879 C.ar      5 PHE5        0.0000 
      3 O         -10.7443    3.9236    9.7933 O.2       2 ALA2        0.0000 
      4 O         -11.2135    3.5704   11.1736 O.2       2 ALA2        0.0000 
      5 DU        -11.6826    3.2173   12.5539 H         7 CUB7        0.0000 
      6 CZ        -12.1517    2.8641   13.9341 C.ar      5 PHE5        0.0000 
      7 CZ        -12.6208    2.5109   15.3144 C.ar      5 PHE5        0.0000 
      8 O         -12.5979    4.0268   10.8198 O.2       2 ALA2        0.0000 
      9 O         -13.0670    3.6736   12.2001 O.2       2 ALA2        0.0000 
     10 O         -13.5361    3.3205   13.5804 O.2       2 ALA2        0.0000 
     11 CZ        -14.0052    2.9673   14.9607 C.ar      5 PHE5        0.0000 
     12 O         -14.4514    4.1300   11.8463 O.2       2 ALA2        0.0000 
     13 DU        -14.9205    3.7768   13.2266 H         7 CUB7        0.0000 
     14 N         -15.3896    3.4237   14.6069 N.2       2 ALA2        0.0000 
     15 CA        -15.8358    4.5864   11.4926 C.3       6 GLY6        0.0000 
     16 DU        -16.3049    4.2332   12.8729 H         7 CUB7        0.0000 
     17 N         -16.7740    3.8801   14.2532 N.2       2 ALA2        0.0000 
     18 OG        -17.6893    4.6896   12.5191 O.2       1 SER1        0.0000 
     19 N         -18.1585    4.3364   13.8994 N.2       2 ALA2        0.0000 
     20 OG        -19.0737    5.1460   12.1654 O.2       1 SER1        0.0000 
     21 OG        -19.5429    4.7928   13.5457 O.2       1 SER1        0.0000 
     22 OG        -20.4581    5.6023   11.8116 O.2       1 SER1        0.0000 
     23 N         -20.9273    5.2492   13.1919 N.2       2 ALA2        0.0000 
     24 DU        -11.5501    2.1859   10.7049 H         7 CUB7        0.0000 
     25 CZ        -12.0192    1.8327   12.0852 C.ar      5 PHE5        0.0000 
     26 CZ        -12.4884    1.4795   13.4655 C.ar      5 PHE5        0.0000 
     27 CA        -12.4654    2.9954    8.9708 C.3       6 GLY6        0.0000 
     28 O         -12.9345    2.6422   10.3511 O.2       2 ALA2        0.0000 
     29 O         -13.4036    2.2891   11.7314 O.2       2 ALA2        0.0000 
     30 CZ        -13.8728    1.9359   13.1117 C.ar      5 PHE5        0.0000 
     31 CA        -14.3189    3.0986    9.9974 C.3       6 GLY6        0.0000 
     32 O         -14.7881    2.7454   11.3777 O.2       2 ALA2        0.0000 
     33 O         -15.2572    2.3923   12.7580 O.2       2 ALA2        0.0000 
     34 CZ        -15.7263    2.0391   14.1382 C.ar      5 PHE5        0.0000 
     35 CA        -16.1725    3.2018   11.0239 C.3       6 GLY6        0.0000 
     36 OG        -16.6416    2.8487   12.4042 O.2       1 SER1        0.0000 
     37 OG        -17.1107    2.4955   13.7845 O.2       1 SER1        0.0000 
     38 O         -13.4414    8.2837   13.2524 O.2       2 ALA2        0.0000 
     39 OD1       -14.8258    8.7401   12.8986 O.3       3 ASP3        0.0000 
     40 OD1       -15.2949    8.3869   14.2789 O.3       3 ASP3        0.0000 
     41 O         -10.0940    5.1768   15.2252 O.2       2 ALA2        0.0000 
     42 O         -11.0093    5.9864   13.4912 O.2       2 ALA2        0.0000 
     43 O         -13.7781    6.8991   12.7837 O.2       2 ALA2        0.0000 
     44 O         -15.1625    7.3555   12.4299 O.2       2 ALA2        0.0000 
     45 N         -15.6316    7.0023   13.8102 N.2       2 ALA2        0.0000 
     46 NZ        -16.5469    7.8119   12.0762 N.2       4 LYS4        0.0000 
     47 NZ        -17.0160    7.4587   13.4565 N.2       4 LYS4        0.0000 
     48 N         -17.4851    7.1055   14.8368 N.2       2 ALA2        0.0000 
     49 NZ        -18.4004    7.9151   13.1027 N.2       4 LYS4        0.0000 
     50 CA        -18.8695    7.5619   14.4830 C.3       6 GLY6        0.0000 
     51 DU         -9.4924    4.4986   11.9960 H         7 CUB7        0.0000 
     52 DU         -9.9615    4.1454   13.3763 H         7 CUB7        0.0000 
     53 O         -10.4306    3.7923   14.7566 O.2       2 ALA2        0.0000 
     54 CA        -10.8998    3.4391   16.1369 C.3       6 GLY6        0.0000 
     55 O         -10.8768    4.9550   11.6422 O.2       2 ALA2        0.0000 
     56 O         -11.3459    4.6018   13.0225 O.2       2 ALA2        0.0000 
     57 O         -11.8150    4.2487   14.4028 O.2       2 ALA2        0.0000 
     58 O         -12.7303    5.0582   12.6688 O.2       2 ALA2        0.0000 
     59 O         -14.1147    5.5146   12.3150 O.2       2 ALA2        0.0000 
     60 O         -14.5839    5.1614   13.6953 O.2       2 ALA2        0.0000 
     61 CA        -15.0530    4.8082   15.0756 C.3       6 GLY6        0.0000 
     62 O         -15.4991    5.9709   11.9613 O.2       2 ALA2        0.0000 
     63 N         -15.9683    5.6178   13.3416 N.2       2 ALA2        0.0000 
     64 CA        -16.8835    6.4273   11.6075 C.3       6 GLY6        0.0000 
     65 N         -17.3527    6.0741   12.9878 N.2       2 ALA2        0.0000 
     66 CA        -18.2679    6.8837   11.2538 C.3       6 GLY6        0.0000 
     67 DU        -18.7371    6.5305   12.6340 H         7 CUB7        0.0000 
     68 N         -19.2062    6.1774   14.0143 N.2       2 ALA2        0.0000 
     69 CA        -19.6524    7.3401   10.9000 C.3       6 GLY6        0.0000 
     70 N         -20.1215    6.9869   12.2803 N.2       2 ALA2        0.0000 
     71 N         -20.5906    6.6337   13.6606 N.2       2 ALA2        0.0000 
@<TRIPOS>BOND
@<TRIPOS>SUBSTRUCTURE
     1 SER1       18 GROUP   
     2 ALA2        3 GROUP   
     3 ASP3       39 GROUP   
     4 LYS4       46 GROUP   
     5 PHE5        2 GROUP   
     6 GLY6       15 GROUP   
     7 CUB7        1 GROUP   
@<TRIPOS>SET

