#    Name: 2o1o_RIS_1_INTS_M
#    Modification time : Tue Mar 25 21:47:58 2014

@<TRIPOS>MOLECULE
2o1o_RIS_1_INTS_M
   54     0    12     0     0
SMALL
NO_CHARGES


@<TRIPOS>ATOM
      1 NZ        -14.5595    8.9375   10.8240 N.4       2 LYC4        0.0000 
      2 NZ        -14.6710    9.3980   12.2020 N.4      10 LYL4        0.0000 
      3 NZ        -13.6420    7.5740    8.9840 N.4       6 LYP4        0.0000 
      4 Zn        -15.3440   10.1425   12.2790 Zn        3 ZIC7        0.0000 
      5 Zn        -14.6710    9.3980   12.2020 Zn       11 ZIL7        0.0000 
      6 Zn        -16.0170   10.8870   12.3560 Zn        7 ZIP7        0.0000 
      7 N         -14.5595    8.9375   10.8240 N.am      1 SEC2        0.0000 
      8 N         -14.6710    9.3980   12.2020 N.am      9 SEL2        0.0000 
      9 N         -14.4480    8.4770    9.4460 N.am      5 SEP2        0.0000 
     10 Zn        -13.6620    9.0120   15.2825 Zn        3 ZIC7        0.0000 
     11 Zn        -13.6220    8.5190   14.3970 Zn       11 ZIL7        0.0000 
     12 Zn        -13.7020    9.5050   16.1680 Zn        7 ZIP7        0.0000 
     13 N         -13.0055    7.4965   14.9825 N.am      1 SEC2        0.0000 
     14 N         -13.6220    8.5190   14.3970 N.am      9 SEL2        0.0000 
     15 N         -12.3890    6.4740   15.5680 N.am      5 SEP2        0.0000 
     16 NZ        -14.0890    7.7475   10.9775 N.4       2 LYC4        0.0000 
     17 NZ        -13.7300    7.0180   12.5090 N.4      10 LYL4        0.0000 
     18 N         -14.0890    7.7475   10.9775 N.am      1 SEC2        0.0000 
     19 N         -13.7300    7.0180   12.5090 N.am      9 SEL2        0.0000 
     20 N         -13.5020    6.8080   11.1345 N.am      1 SEC2        0.0000 
     21 N         -13.2740    6.5980    9.7600 N.am      5 SEP2        0.0000 
     22 N         -13.0595    6.7460   14.0385 N.am      1 SEC2        0.0000 
     23 N         -16.7480    5.7630   15.5870 N.am      1 SEC2        0.0000 
     24 N         -15.8040    6.5060   14.5370 N.am      9 SEL2        0.0000 
     25 N         -17.6920    5.0200   16.6370 N.am      5 SEP2        0.0000 
     26 Zn        -14.8565    9.4310   15.9400 Zn        3 ZIC7        0.0000 
     27 Zn        -16.0110    9.3570   15.7120 Zn       11 ZIL7        0.0000 
     28 Zn        -18.2575   10.6895   13.4180 Zn        3 ZIC7        0.0000 
     29 Zn        -17.1780    9.9400   13.6250 Zn       11 ZIL7        0.0000 
     30 Zn        -19.3370   11.4390   13.2110 Zn        7 ZIP7        0.0000 
     31 Zn        -16.5975   10.4135   12.9905 Zn        3 ZIC7        0.0000 
     32 NZ        -18.8755    8.2495   16.1000 N.4       2 LYC4        0.0000 
     33 NZ        -17.9890    8.0120   15.0230 N.4      10 LYL4        0.0000 
     34 NZ        -19.7620    8.4870   17.1770 N.4       6 LYP4        0.0000 
     35 N         -18.8755    8.2495   16.1000 N.am      1 SEC2        0.0000 
     36 N         -17.9890    8.0120   15.0230 N.am      9 SEL2        0.0000 
     37 N         -19.7620    8.4870   17.1770 N.am      5 SEP2        0.0000 
     38 CA        -19.0595    8.4100   10.5210 C.3       4 GLC5        0.0000 
     39 CA        -19.1770    7.0790   11.9230 C.3      12 GLL5        0.0000 
     40 CA        -18.9420    9.7410    9.1190 C.3       8 GLP5        0.0000 
     41 CA        -20.9100    5.7640   10.1545 C.3       4 GLC5        0.0000 
     42 CA        -20.4240    6.4770   12.0280 C.3      12 GLL5        0.0000 
     43 CA        -21.3960    5.0510    8.2810 C.3       8 GLP5        0.0000 
     44 CA        -22.3130    7.6310   12.0190 C.3       4 GLC5        0.0000 
     45 CA        -24.2020    8.7850   12.0100 C.3       8 GLP5        0.0000 
     46 CA        -21.2415    6.4155   14.6660 C.3       4 GLC5        0.0000 
     47 CA        -20.5950    5.4360   12.9030 C.3      12 GLL5        0.0000 
     48 CA        -21.8880    7.3950   16.4290 C.3       8 GLP5        0.0000 
     49 CA        -19.4095    6.3565   15.2725 C.3       4 GLC5        0.0000 
     50 CA        -18.3750    5.5580   13.6100 C.3      12 GLL5        0.0000 
     51 CA        -20.4440    7.1550   16.9350 C.3       8 GLP5        0.0000 
     52 CA        -17.6175    6.2644   10.6199 C.3       4 GLC5        0.0000 
     53 CA        -18.1340    6.6110   12.7310 C.3      12 GLL5        0.0000 
     54 CA        -16.9310    5.5550    8.9870 C.3       8 GLP5        0.0000 
@<TRIPOS>BOND
@<TRIPOS>SUBSTRUCTURE
     1 SEC2        7 GROUP        1 X    SEC  0     ROOT SEC X 2
     2 LYC4        1 GROUP        1 X    LYC  0     **** LYC X 4
     3 ZIC7        4 GROUP        1 X    ZIC  0     **** ZIC X 5
     4 GLC5       38 GROUP        1 X    GLC  0     **** GLC X 6
     5 SEP2        9 GROUP        1 Y    SEP  0     ROOT SEP Y 9
     6 LYP4        3 GROUP        1 Y    LYP  0     **** LYP Y 11
     7 ZIP7        6 GROUP        1 Y    ZIP  0     **** ZIP Y 12
     8 GLP5       40 GROUP        1 Y    GLP  0     **** GLP Y 13
     9 SEL2        8 GROUP        1 Z    SEL  0     ROOT SEL Z 16
    10 LYL4        2 GROUP        1 Z    LYL  0     **** LYL Z 18
    11 ZIL7        5 GROUP        1 Z    ZIL  0     **** ZIL Z 19
    12 GLL5       39 GROUP        1 Z    GLL  0     **** GLL Z 20
@<TRIPOS>SET

