#    Name: 2o1o_RIS_1_ligand
#    Modification time : Tue Mar 25 21:47:58 2014

@<TRIPOS>MOLECULE
2o1o_RIS_1_ligand
   24    24     1     0     0
SMALL
NO_CHARGES


@<TRIPOS>ATOM
      1 O12       -14.6710    9.3980   12.2020 O.co2     1 RIS400      0.0000 
      2 P9        -14.3820    8.2380   13.1220 P.3       1 RIS400      0.0000 
      3 O11       -13.6220    8.5190   14.3970 O.co2     1 RIS400      0.0000 
      4 O10       -13.7300    7.0180   12.5090 O.co2     1 RIS400      0.0000 
      5 C8        -15.9900    7.6320   13.7040 C.3       1 RIS400      0.0000 
      6 O13       -15.8040    6.5060   14.5370 O.3       1 RIS400      0.0000 
      7 P14       -16.8700    8.8880   14.6130 P.3       1 RIS400      0.0000 
      8 O16       -16.0110    9.3570   15.7120 O.co2     1 RIS400      0.0000 
      9 O15       -17.1780    9.9400   13.6250 O.co2     1 RIS400      0.0000 
     10 O17       -17.9890    8.0120   15.0230 O.co2     1 RIS400      0.0000 
     11 C7        -16.7280    7.1260   12.4340 C.3       1 RIS400      0.0000 
     12 C2        -18.1340    6.6110   12.7310 C.ar      1 RIS400      0.0000 
     13 C1        -19.1770    7.0790   11.9230 C.ar      1 RIS400      0.0000 
     14 C6        -20.4240    6.4770   12.0280 C.ar      1 RIS400      0.0000 
     15 C5        -20.5950    5.4360   12.9030 C.ar      1 RIS400      0.0000 
     16 N4        -19.5920    5.0030   13.6870 N.ar      1 RIS400      0.0000 
     17 C3        -18.3750    5.5580   13.6100 C.ar      1 RIS400      0.0000 
     18 H         -16.1328    6.3246   11.9842 H         1 RIS400      0.0000 
     19 H         -16.7850    7.9502   11.7155 H         1 RIS400      0.0000 
     20 H         -19.0192    7.8461   11.2726 H         1 RIS400      0.0000 
     21 H         -21.2049    6.8144   11.4523 H         1 RIS400      0.0000 
     22 H         -21.5362    4.9728   12.9540 H         1 RIS400      0.0000 
     23 H         -17.5899    5.2172   14.2003 H         1 RIS400      0.0000 
     24 H         -15.0028    6.0380   14.1642 H         1 RIS400      0.0000 
@<TRIPOS>BOND
     1    2    1 ar   
     2    3    2 ar   
     3    4    2 ar   
     4    5    2 1    
     5    6    5 1    
     6    7    5 1    
     7   11    5 1    
     8   24    6 1    
     9    8    7 ar   
    10    9    7 ar   
    11   10    7 ar   
    12   12   11 1    
    13   18   11 1    
    14   19   11 1    
    15   13   12 ar   
    16   17   12 ar   
    17   14   13 ar   
    18   20   13 1    
    19   15   14 ar   
    20   21   14 1    
    21   16   15 ar   
    22   22   15 1    
    23   17   16 ar   
    24   23   17 1    
@<TRIPOS>SUBSTRUCTURE
     1 RIS400      1 GROUP   
@<TRIPOS>SET

