#    Name: 1xp9_AIJ_1_INTS_M
#    Modification time : Tue Mar 25 10:28:44 2014

@<TRIPOS>MOLECULE
1xp9_AIJ_1_INTS_M
  100     0    12     0     0
SMALL
NO_CHARGES


@<TRIPOS>ATOM
      1 N          24.0185   -1.4440   27.6610 N.am      2 SEC2        0.0000 
      2 N          25.1290   -1.0050   26.5700 N.am     10 SEL2        0.0000 
      3 N          22.9080   -1.8830   28.7520 N.am      6 SEP2        0.0000 
      4 O          24.6530   -2.1640   26.0560 O.2       1 ALC1        0.0000 
      5 O          25.1290   -1.0050   26.5700 O.2       9 ALL1        0.0000 
      6 O          24.1770   -3.3230   25.5420 O.2       5 ALP1        0.0000 
      7 CA         29.0660   -0.4305   29.7435 C.3       4 GLC5        0.0000 
      8 CA         29.6230    0.4540   28.0710 C.3      12 GLL5        0.0000 
      9 CA         28.5090   -1.3150   31.4160 C.3       8 GLP5        0.0000 
     10 CA         31.6375    1.9120   25.5830 C.3       4 GLC5        0.0000 
     11 CA         32.6620    1.2840   27.3150 C.3      12 GLL5        0.0000 
     12 CA         30.6130    2.5400   23.8510 C.3       8 GLP5        0.0000 
     13 CA         33.7015    3.2525   28.8210 C.3       4 GLC5        0.0000 
     14 CA         33.9100    1.8730   27.1470 C.3      12 GLL5        0.0000 
     15 CA         33.4930    4.6320   30.4950 C.3       8 GLP5        0.0000 
     16 N          37.3115    1.7450   28.5585 N.am      2 SEC2        0.0000 
     17 N          36.1450    2.2380   27.9740 N.am     10 SEL2        0.0000 
     18 N          38.4780    1.2520   29.1430 N.am      6 SEP2        0.0000 
     19 O          36.4905    2.8145   26.4685 O.2       1 ALC1        0.0000 
     20 O          36.1450    2.2380   27.9740 O.2       9 ALL1        0.0000 
     21 O          36.8360    3.3910   24.9630 O.2       5 ALP1        0.0000 
     22 CA         35.2235    0.3670   31.0875 C.3       4 GLC5        0.0000 
     23 CA         34.7100    0.8310   29.2040 C.3      12 GLL5        0.0000 
     24 CA         35.7370   -0.0970   32.9710 C.3       8 GLP5        0.0000 
     25 CA         34.3955   -0.7540   30.8545 C.3       4 GLC5        0.0000 
     26 CA         33.4530    0.2370   29.3560 C.3      12 GLL5        0.0000 
     27 CA         35.3380   -1.7450   32.3530 C.3       8 GLP5        0.0000 
     28 CA         34.3455   -3.6475   27.2945 C.3       4 GLC5        0.0000 
     29 CA         32.4950   -2.9860   26.3360 C.3      12 GLL5        0.0000 
     30 CA         36.1960   -4.3090   28.2530 C.3       8 GLP5        0.0000 
     31 CA         29.6275   -0.9905   23.5550 C.3       4 GLC5        0.0000 
     32 CA         31.5630   -1.3830   24.3090 C.3      12 GLL5        0.0000 
     33 CA         27.6920   -0.5980   22.8010 C.3       8 GLP5        0.0000 
     34 CA         33.2655   -1.2370   20.5205 C.3       4 GLC5        0.0000 
     35 CA         34.6270   -2.8600   20.5950 C.3      12 GLL5        0.0000 
     36 CA         31.9040    0.3860   20.4460 C.3       8 GLP5        0.0000 
     37 CA         34.8065   -1.2425   22.0245 C.3       4 GLC5        0.0000 
     38 CA         34.9860    0.3750   23.4540 C.3       8 GLP5        0.0000 
     39 OD1        31.9390   -5.2225   19.9895 O.co2     3 ASC3        0.0000 
     40 OD1        32.7160   -4.2020   19.7730 O.co2    11 ASL3        0.0000 
     41 OD1        31.1620   -6.2430   20.2060 O.co2     7 ASP3        0.0000 
     42 O          31.9390   -5.2225   19.9895 O.2       1 ALC1        0.0000 
     43 O          32.7160   -4.2020   19.7730 O.2       9 ALL1        0.0000 
     44 O          31.1620   -6.2430   20.2060 O.2       5 ALP1        0.0000 
     45 CA         34.1050   -5.3200   17.6505 C.3       4 GLC5        0.0000 
     46 CA         33.0520   -3.9170   18.3300 C.3      12 GLL5        0.0000 
     47 CA         35.1580   -6.7230   16.9710 C.3       8 GLP5        0.0000 
     48 CA         31.9495   -2.5785   16.0610 C.3       4 GLC5        0.0000 
     49 CA         31.7550   -3.3470   17.6770 C.3      12 GLL5        0.0000 
     50 CA         32.1440   -1.8100   14.4450 C.3       8 GLP5        0.0000 
     51 CA         29.8622   -1.1585   29.9198 C.3       4 GLC5        0.0000 
     52 CA         31.2950   -1.7190   28.1530 C.3      12 GLL5        0.0000 
     53 CA         29.1292   -3.6940   29.5005 C.3       4 GLC5        0.0000 
     54 CA         28.8690   -1.9850   27.9520 C.3      12 GLL5        0.0000 
     55 CA         29.8520   -4.9000   31.1950 C.3       8 GLP5        0.0000 
     56 CA         26.2643   -4.3400   27.9782 C.3       4 GLC5        0.0000 
     57 CA         27.9440   -2.9910   27.6600 C.3      12 GLL5        0.0000 
     58 CA         25.2100   -5.8570   28.5450 C.3       8 GLP5        0.0000 
     59 CA         28.1628   -3.3845   25.6468 C.3       4 GLC5        0.0000 
     60 CA         26.6930   -2.6550   27.1630 C.3      12 GLL5        0.0000 
     61 CA         29.0070   -3.9460   23.8820 C.3       8 GLP5        0.0000 
     62 CA         26.5505    0.2285   25.4760 C.3       4 GLC5        0.0000 
     63 CA         26.3510   -1.3020   27.0590 C.3      12 GLL5        0.0000 
     64 CA         26.2800    1.2640   23.7470 C.3       8 GLP5        0.0000 
     65 CA         27.7258    0.7612   29.3329 C.3       4 GLC5        0.0000 
     66 CA         27.2910   -0.3120   27.3510 C.3      12 GLL5        0.0000 
     67 CA         26.6690    1.5300   30.8590 C.3       8 GLP5        0.0000 
     68 CA         32.2680    3.2628   27.1835 C.3       4 GLC5        0.0000 
     69 CA         31.2500    4.9470   27.1360 C.3       8 GLP5        0.0000 
     70 CA         34.6745    0.4617   26.3505 C.3       4 GLC5        0.0000 
     71 CA         36.0630   -0.6550   25.4700 C.3       8 GLP5        0.0000 
     72 CA         35.0160    3.4197   26.8760 C.3       4 GLC5        0.0000 
     73 CA         35.6060    5.0790   26.1350 C.3       8 GLP5        0.0000 
     74 CA         35.3800    2.8217   29.7742 C.3       4 GLC5        0.0000 
     75 CA         34.9420    1.6480   28.0870 C.3      12 GLL5        0.0000 
     76 CA         35.9340    4.4040   30.9030 C.3       8 GLP5        0.0000 
     77 CA         35.4445    0.2922   27.0577 C.3       4 GLC5        0.0000 
     78 CA         30.5403   -3.2005   25.1960 C.3       4 GLC5        0.0000 
     79 CA         31.6520   -1.9240   26.6840 C.3      12 GLL5        0.0000 
     80 CA         31.7691   -3.8884   28.1511 C.3       4 GLC5        0.0000 
     81 CA         31.5540   -5.3730   29.4250 C.3       8 GLP5        0.0000 
     82 CA         32.4458   -5.0258   25.4522 C.3       4 GLC5        0.0000 
     83 CA         32.2080   -6.9260   25.2360 C.3       8 GLP5        0.0000 
     84 CA         34.3732   -1.8902   25.5693 C.3       4 GLC5        0.0000 
     85 CA         32.8720   -3.2650   25.0010 C.3      12 GLL5        0.0000 
     86 CA         30.8243   -3.4022   24.1782 C.3       4 GLC5        0.0000 
     87 CA         33.4865   -0.7712   23.7913 C.3       4 GLC5        0.0000 
     88 CA         32.4110   -2.4520   23.9480 C.3      12 GLL5        0.0000 
     89 CA         30.1902   -2.6002   24.4258 C.3       4 GLC5        0.0000 
     90 CA         30.9932    0.6428   24.4102 C.3       4 GLC5        0.0000 
     91 CA         33.7325   -5.6495   22.4502 C.3       4 GLC5        0.0000 
     92 CA         33.3630   -3.9180   22.2850 C.3      12 GLL5        0.0000 
     93 CA         33.8750   -7.2790   23.3630 C.3       8 GLP5        0.0000 
     94 CA         35.1550   -4.7320   22.6887 C.3       4 GLC5        0.0000 
     95 CA         36.7200   -5.4440   23.8400 C.3       8 GLP5        0.0000 
     96 CA         29.7647   -3.3643   17.2860 C.3       4 GLC5        0.0000 
     97 CA         30.7560   -3.3120   18.8490 C.3      12 GLL5        0.0000 
     98 CA         28.2740   -3.3990   16.3090 C.3       8 GLP5        0.0000 
     99 CA         30.8732   -1.5573   20.0537 C.3       4 GLC5        0.0000 
    100 CA         30.5340    0.1590   20.6410 C.3       8 GLP5        0.0000 
@<TRIPOS>BOND
@<TRIPOS>SUBSTRUCTURE
     1 ALC1        4 GROUP        1 X    ALC  0     ROOT ALC X 1
     2 SEC2        1 GROUP        1 X    SEC  0     **** SEC X 2
     3 ASC3       39 GROUP        1 X    ASC  0     **** ASC X 3
     4 GLC5        7 GROUP        1 X    GLC  0     **** GLC X 6
     5 ALP1        6 GROUP        1 Y    ALP  0     ROOT ALP Y 8
     6 SEP2        3 GROUP        1 Y    SEP  0     **** SEP Y 9
     7 ASP3       41 GROUP        1 Y    ASP  0     **** ASP Y 10
     8 GLP5        9 GROUP        1 Y    GLP  0     **** GLP Y 13
     9 ALL1        5 GROUP        1 Z    ALL  0     ROOT ALL Z 15
    10 SEL2        2 GROUP        1 Z    SEL  0     **** SEL Z 16
    11 ASL3       40 GROUP        1 Z    ASL  0     **** ASL Z 17
    12 GLL5        8 GROUP        1 Z    GLL  0     **** GLL Z 20
@<TRIPOS>SET

