#    Name: 1xp9_AIJ_1_ligand
#    Modification time : Tue Mar 25 10:28:44 2014

@<TRIPOS>MOLECULE
1xp9_AIJ_1_ligand
   63    67     1     0     0
SMALL
NO_CHARGES


@<TRIPOS>ATOM
      1 C1         31.1360   -0.2850   28.6940 C.3       1 AIJ600      0.0000 
      2 C2         31.2950   -1.7190   28.1530 C.3       1 AIJ600      0.0000 
      3 O3         30.0630   -2.4370   28.4040 O.3       1 AIJ600      0.0000 
      4 C4         28.8690   -1.9850   27.9520 C.ar      1 AIJ600      0.0000 
      5 C5         27.9440   -2.9910   27.6600 C.ar      1 AIJ600      0.0000 
      6 C6         26.6930   -2.6550   27.1630 C.ar      1 AIJ600      0.0000 
      7 C7         26.3510   -1.3020   27.0590 C.ar      1 AIJ600      0.0000 
      8 O8         25.1290   -1.0050   26.5700 O.3       1 AIJ600      0.0000 
      9 C9         27.2910   -0.3120   27.3510 C.ar      1 AIJ600      0.0000 
     10 C10        28.5930   -0.6260   27.7340 C.ar      1 AIJ600      0.0000 
     11 S11        29.6230    0.4540   28.0710 S.3       1 AIJ600      0.0000 
     12 C12        32.4330    0.4380   28.4150 C.ar      1 AIJ600      0.0000 
     13 C13        32.6620    1.2840   27.3150 C.ar      1 AIJ600      0.0000 
     14 C14        33.9100    1.8730   27.1470 C.ar      1 AIJ600      0.0000 
     15 C15        34.9420    1.6480   28.0870 C.ar      1 AIJ600      0.0000 
     16 O16        36.1450    2.2380   27.9740 O.3       1 AIJ600      0.0000 
     17 C17        34.7100    0.8310   29.2040 C.ar      1 AIJ600      0.0000 
     18 C18        33.4530    0.2370   29.3560 C.ar      1 AIJ600      0.0000 
     19 C19        31.6520   -1.9240   26.6840 C.ar      1 AIJ600      0.0000 
     20 C20        32.4950   -2.9860   26.3360 C.ar      1 AIJ600      0.0000 
     21 C21        32.8720   -3.2650   25.0010 C.ar      1 AIJ600      0.0000 
     22 C22        32.4110   -2.4520   23.9480 C.ar      1 AIJ600      0.0000 
     23 C23        31.5630   -1.3830   24.3090 C.ar      1 AIJ600      0.0000 
     24 C24        31.1840   -1.1260   25.6300 C.ar      1 AIJ600      0.0000 
     25 O25        32.7620   -2.6460   22.6350 O.3       1 AIJ600      0.0000 
     26 C26        33.3630   -3.9180   22.2850 C.3       1 AIJ600      0.0000 
     27 C27        33.8170   -4.1220   20.7900 C.3       1 AIJ600      0.0000 
     28 C28        34.6270   -2.8600   20.5950 C.3       1 AIJ600      0.0000 
     29 N29        32.7160   -4.2020   19.7730 N.4       1 AIJ600      0.0000 
     30 C30        33.0520   -3.9170   18.3300 C.3       1 AIJ600      0.0000 
     31 C31        31.7550   -3.3470   17.6770 C.3       1 AIJ600      0.0000 
     32 C32        30.7560   -3.3120   18.8490 C.3       1 AIJ600      0.0000 
     33 C33        31.6690   -3.2350   20.0840 C.3       1 AIJ600      0.0000 
     34 H          30.9562   -0.3561   29.7680 H         1 AIJ600      0.0000 
     35 H          32.0857   -2.2139   28.7606 H         1 AIJ600      0.0000 
     36 H          28.1938   -3.9745   27.8144 H         1 AIJ600      0.0000 
     37 H          26.0319   -3.3755   26.8777 H         1 AIJ600      0.0000 
     38 H          27.0104    0.6866   27.2803 H         1 AIJ600      0.0000 
     39 H          31.9084    1.4606   26.6452 H         1 AIJ600      0.0000 
     40 H          34.0943    2.4783   26.3368 H         1 AIJ600      0.0000 
     41 H          35.4443    0.6749   29.8897 H         1 AIJ600      0.0000 
     42 H          33.2705   -0.3630   30.1786 H         1 AIJ600      0.0000 
     43 H          32.8658   -3.6040   27.0914 H         1 AIJ600      0.0000 
     44 H          33.4827   -4.0621   24.8031 H         1 AIJ600      0.0000 
     45 H          31.2055   -0.7591   23.5514 H         1 AIJ600      0.0000 
     46 H          30.5502   -0.3374   25.8345 H         1 AIJ600      0.0000 
     47 H          32.6682   -4.7687   22.5182 H         1 AIJ600      0.0000 
     48 H          34.2691   -4.1218   22.9161 H         1 AIJ600      0.0000 
     49 H          34.4765   -4.9448   20.7634 H         1 AIJ600      0.0000 
     50 H          32.2515   -5.2000   19.8131 H         1 AIJ600      0.0000 
     51 H          33.3211   -4.8184   17.8209 H         1 AIJ600      0.0000 
     52 H          33.8209   -3.1765   18.2615 H         1 AIJ600      0.0000 
     53 H          31.4178   -4.0150   16.9359 H         1 AIJ600      0.0000 
     54 H          31.9412   -2.3692   17.3329 H         1 AIJ600      0.0000 
     55 H          30.2015   -4.2095   18.8702 H         1 AIJ600      0.0000 
     56 H          30.1654   -2.4398   18.7865 H         1 AIJ600      0.0000 
     57 H          32.0542   -2.2462   20.1588 H         1 AIJ600      0.0000 
     58 H          31.1061   -3.5237   20.9393 H         1 AIJ600      0.0000 
     59 H          35.2815   -2.7202   21.3380 H         1 AIJ600      0.0000 
     60 H          35.1508   -2.8827   19.7435 H         1 AIJ600      0.0000 
     61 H          34.0455   -2.0472   20.5598 H         1 AIJ600      0.0000 
     62 H          25.0021   -1.6258   25.7963 H         1 AIJ600      0.0000 
     63 H          36.1855    2.5642   27.0296 H         1 AIJ600      0.0000 
@<TRIPOS>BOND
     1    2    1 1    
     2   11    1 1    
     3   12    1 1    
     4   34    1 1    
     5    3    2 1    
     6   19    2 1    
     7   35    2 1    
     8    4    3 1    
     9    5    4 ar   
    10   10    4 ar   
    11    6    5 ar   
    12   36    5 1    
    13    7    6 ar   
    14   37    6 1    
    15    8    7 1    
    16    9    7 ar   
    17   62    8 1    
    18   10    9 ar   
    19   38    9 1    
    20   11   10 1    
    21   13   12 ar   
    22   18   12 ar   
    23   14   13 ar   
    24   39   13 1    
    25   15   14 ar   
    26   40   14 1    
    27   16   15 1    
    28   17   15 ar   
    29   63   16 1    
    30   18   17 ar   
    31   41   17 1    
    32   42   18 1    
    33   20   19 ar   
    34   24   19 ar   
    35   21   20 ar   
    36   43   20 1    
    37   22   21 ar   
    38   44   21 1    
    39   23   22 ar   
    40   25   22 1    
    41   24   23 ar   
    42   45   23 1    
    43   46   24 1    
    44   26   25 1    
    45   27   26 1    
    46   47   26 1    
    47   48   26 1    
    48   28   27 1    
    49   29   27 1    
    50   49   27 1    
    51   59   28 1    
    52   60   28 1    
    53   61   28 1    
    54   30   29 1    
    55   33   29 1    
    56   50   29 1    
    57   31   30 1    
    58   51   30 1    
    59   52   30 1    
    60   32   31 1    
    61   53   31 1    
    62   54   31 1    
    63   33   32 1    
    64   55   32 1    
    65   56   32 1    
    66   57   33 1    
    67   58   33 1    
@<TRIPOS>SUBSTRUCTURE
     1 AIJ600      1 GROUP   
@<TRIPOS>SET

