#    Name: 2z4y_252_1_INTS_M
#    Modification time : Tue Mar 25 10:00:32 2014

@<TRIPOS>MOLECULE
2z4y_252_1_INTS_M
   59     0     9     0     0
SMALL
NO_CHARGES


@<TRIPOS>ATOM
      1 CA         26.5845   46.7400   15.6110 C.3       3 GLC5        0.0000 
      2 CA         26.0890   44.9480   15.5900 C.3       9 GLL5        0.0000 
      3 CA         27.0800   48.5320   15.6320 C.3       6 GLP5        0.0000 
      4 CA         25.2145   45.3555   17.3695 C.3       3 GLC5        0.0000 
      5 CA         24.3400   45.7630   19.1490 C.3       6 GLP5        0.0000 
      6 CA         24.4150   45.3635   14.5745 C.3       3 GLC5        0.0000 
      7 CA         22.7410   45.7790   13.5590 C.3       6 GLP5        0.0000 
      8 CA         29.0035   44.5990   13.9285 C.3       3 GLC5        0.0000 
      9 CA         26.8190   44.4810   14.3290 C.3       9 GLL5        0.0000 
     10 CA         31.1880   44.7170   13.5280 C.3       6 GLP5        0.0000 
     11 CA         27.6340   46.2200   15.1610 C.3       3 GLC5        0.0000 
     12 CA         28.4490   47.9590   15.9930 C.3       6 GLP5        0.0000 
     13 CA         26.9060   47.0460   14.4395 C.3       3 GLC5        0.0000 
     14 CA         26.7320   45.5600   13.2470 C.3       9 GLL5        0.0000 
     15 CA         29.3495   44.9350   12.7625 C.3       3 GLC5        0.0000 
     16 CA         27.5110   45.1530   11.9970 C.3       9 GLL5        0.0000 
     17 CA         27.7375   43.4790   10.8655 C.3       3 GLC5        0.0000 
     18 CA         27.9640   41.8050    9.7340 C.3       6 GLP5        0.0000 
     19 CA         25.8645   47.8570   10.9500 C.3       3 GLC5        0.0000 
     20 CA         27.4020   46.2360   10.9250 C.3       9 GLL5        0.0000 
     21 CA         24.3270   49.4780   10.9750 C.3       6 GLP5        0.0000 
     22 CA         30.2080   45.0855    9.2250 C.3       3 GLC5        0.0000 
     23 CA         28.2610   45.8480    9.7230 C.3       9 GLL5        0.0000 
     24 CA         32.1550   44.3230    8.7270 C.3       6 GLP5        0.0000 
     25 CA         28.1125   43.8265    9.7285 C.3       3 GLC5        0.0000 
     26 CA         30.4120   45.2025    8.0175 C.3       3 GLC5        0.0000 
     27 CA         28.6690   46.0820    7.3080 C.3       9 GLL5        0.0000 
     28 NZ         30.4340   43.4295    5.6060 N.4       2 LYC4        0.0000 
     29 NZ         30.2090   44.8190    5.1400 N.4       8 LYL4        0.0000 
     30 NZ         31.9310   42.1230    5.6840 N.4       5 LYP4        0.0000 
     31 N          31.2940   44.0475    5.1530 N.am      1 SEC2        0.0000 
     32 N          30.2090   44.8190    5.1400 N.am      7 SEL2        0.0000 
     33 N          32.3790   43.2760    5.1660 N.am      4 SEP2        0.0000 
     34 N          30.4340   43.4295    5.6060 N.am      1 SEC2        0.0000 
     35 N          30.6590   42.0400    6.0720 N.am      4 SEP2        0.0000 
     36 N          27.6925   43.2500    6.3495 N.am      1 SEC2        0.0000 
     37 N          27.7060   44.0880    5.2620 N.am      7 SEL2        0.0000 
     38 N          27.6790   42.4120    7.4370 N.am      4 SEP2        0.0000 
     39 NZ         24.7515   48.7360    6.8680 N.4       2 LYC4        0.0000 
     40 NZ         26.2410   48.4200    6.6070 N.4       8 LYL4        0.0000 
     41 NZ         23.2620   49.0520    7.1290 N.4       5 LYP4        0.0000 
     42 NZ         25.0630   47.6855    5.2005 N.4       2 LYC4        0.0000 
     43 NZ         23.8850   46.9510    3.7940 N.4       5 LYP4        0.0000 
     44 N          24.7515   48.7360    6.8680 N.am      1 SEC2        0.0000 
     45 N          26.2410   48.4200    6.6070 N.am      7 SEL2        0.0000 
     46 N          23.2620   49.0520    7.1290 N.am      4 SEP2        0.0000 
     47 NZ         25.1640   47.2890    3.9840 N.4       2 LYC4        0.0000 
     48 NZ         26.4430   47.6270    4.1740 N.4       8 LYL4        0.0000 
     49 N          25.9065   48.8675    4.0495 N.am      1 SEC2        0.0000 
     50 N          26.4430   47.6270    4.1740 N.am      7 SEL2        0.0000 
     51 N          25.3700   50.1080    3.9250 N.am      4 SEP2        0.0000 
     52 NZ         24.4130   47.5420    6.5575 N.4       2 LYC4        0.0000 
     53 NZ         25.5640   46.0320    5.9860 N.4       8 LYL4        0.0000 
     54 NZ         24.7245   46.4915    4.8900 N.4       2 LYC4        0.0000 
     55 N          24.7245   46.4915    4.8900 N.am      1 SEC2        0.0000 
     56 N          25.5640   46.0320    5.9860 N.am      7 SEL2        0.0000 
     57 N          23.8850   46.9510    3.7940 N.am      4 SEP2        0.0000 
     58 CA         24.8532   44.6942   13.4175 C.3       3 GLC5        0.0000 
     59 CA         22.9310   44.3680   13.0470 C.3       6 GLP5        0.0000 
@<TRIPOS>BOND
@<TRIPOS>SUBSTRUCTURE
     1 SEC2       31 GROUP        1 X    SEC  0     ROOT SEC X 2
     2 LYC4       28 GROUP        1 X    LYC  0     **** LYC X 4
     3 GLC5        1 GROUP        1 X    GLC  0     **** GLC X 6
     4 SEP2       33 GROUP        1 Y    SEP  0     ROOT SEP Y 9
     5 LYP4       30 GROUP        1 Y    LYP  0     **** LYP Y 11
     6 GLP5        3 GROUP        1 Y    GLP  0     **** GLP Y 13
     7 SEL2       32 GROUP        1 Z    SEL  0     ROOT SEL Z 16
     8 LYL4       29 GROUP        1 Z    LYL  0     **** LYL Z 18
     9 GLL5        2 GROUP        1 Z    GLL  0     **** GLL Z 20
@<TRIPOS>SET

