#    Name: 2z4y_252_1_ligand
#    Modification time : Tue Mar 25 10:00:32 2014

@<TRIPOS>MOLECULE
2z4y_252_1_ligand
   36    35     1     0     0
SMALL
NO_CHARGES


@<TRIPOS>ATOM
      1 CAA        26.0890   44.9480   15.5900 C.3       1 2521201     0.0000 
      2 CAI        26.8190   44.4810   14.3290 C.3       1 2521201     0.0000 
      3 CAJ        26.7320   45.5600   13.2470 C.3       1 2521201     0.0000 
      4 CAK        27.5110   45.1530   11.9970 C.3       1 2521201     0.0000 
      5 CAL        27.4020   46.2360   10.9250 C.3       1 2521201     0.0000 
      6 CAM        28.2610   45.8480    9.7230 C.3       1 2521201     0.0000 
      7 CAN        28.0000   46.7440    8.5080 C.3       1 2521201     0.0000 
      8 CAO        28.6690   46.0820    7.3080 C.3       1 2521201     0.0000 
      9 CAP        28.3200   46.6540    5.9290 C.3       1 2521201     0.0000 
     10 P1P        28.7030   45.2520    4.7680 P.3       1 2521201     0.0000 
     11 OAE        30.2090   44.8190    5.1400 O.co2     1 2521201     0.0000 
     12 OAF        27.7060   44.0880    5.2620 O.co2     1 2521201     0.0000 
     13 OAB        28.5090   45.6350    3.3510 O.co2     1 2521201     0.0000 
     14 P1R        26.5280   47.1190    5.7010 P.3       1 2521201     0.0000 
     15 OAG        26.2410   48.4200    6.6070 O.co2     1 2521201     0.0000 
     16 OAH        26.4430   47.6270    4.1740 O.co2     1 2521201     0.0000 
     17 OAC        25.5640   46.0320    5.9860 O.co2     1 2521201     0.0000 
     18 OAD        29.1270   47.7980    5.6290 O.3       1 2521201     0.0000 
     19 H          26.3588   43.5694   13.9644 H         1 2521201     0.0000 
     20 H          27.8604   44.2933   14.5656 H         1 2521201     0.0000 
     21 H          27.1403   46.4921   13.6375 H         1 2521201     0.0000 
     22 H          25.6864   45.7188   12.9832 H         1 2521201     0.0000 
     23 H          27.1067   44.2215   11.6092 H         1 2521201     0.0000 
     24 H          28.5565   45.0082   12.2566 H         1 2521201     0.0000 
     25 H          27.7521   47.1778   11.3284 H         1 2521201     0.0000 
     26 H          26.3694   46.3310   10.6135 H         1 2521201     0.0000 
     27 H          28.0507   44.8086    9.4511 H         1 2521201     0.0000 
     28 H          29.3181   45.9197    9.9982 H         1 2521201     0.0000 
     29 H          28.4346   47.7109    8.6772 H         1 2521201     0.0000 
     30 H          26.9425   46.8170    8.3385 H         1 2521201     0.0000 
     31 H          28.4192   44.9969    7.3125 H         1 2521201     0.0000 
     32 H          29.7733   46.1327    7.4409 H         1 2521201     0.0000 
     33 H          26.1295   44.2632   16.3177 H         1 2521201     0.0000 
     34 H          26.4840   45.7899   15.9575 H         1 2521201     0.0000 
     35 H          25.1219   45.1309   15.4131 H         1 2521201     0.0000 
     36 H          28.5617   48.3629    5.0279 H         1 2521201     0.0000 
@<TRIPOS>BOND
     1    2    1 1    
     2   33    1 1    
     3   34    1 1    
     4   35    1 1    
     5    3    2 1    
     6   19    2 1    
     7   20    2 1    
     8    4    3 1    
     9   21    3 1    
    10   22    3 1    
    11    5    4 1    
    12   23    4 1    
    13   24    4 1    
    14    6    5 1    
    15   25    5 1    
    16   26    5 1    
    17    7    6 1    
    18   27    6 1    
    19   28    6 1    
    20    8    7 1    
    21   29    7 1    
    22   30    7 1    
    23    9    8 1    
    24   31    8 1    
    25   32    8 1    
    26   10    9 1    
    27   14    9 1    
    28   18    9 1    
    29   11   10 ar   
    30   12   10 ar   
    31   13   10 ar   
    32   15   14 ar   
    33   16   14 ar   
    34   17   14 ar   
    35   36   18 1    
@<TRIPOS>SUBSTRUCTURE
     1 2521201     1 GROUP   
@<TRIPOS>SET

