#    Name: 1ung_ALH_2_INTS_M
#    Modification time : Tue Mar 25 06:45:59 2014

@<TRIPOS>MOLECULE
1ung_ALH_2_INTS_M
   41     0     9     0     0
SMALL
NO_CHARGES


@<TRIPOS>ATOM
      1 O          59.7745   26.3845   31.3380 O.2       1 ALC1        0.0000 
      2 O          60.6240   26.0510   32.3860 O.2       7 ALL1        0.0000 
      3 O          58.9250   26.7180   30.2900 O.2       4 ALP1        0.0000 
      4 CA         63.3455   25.2620   31.0195 C.3       3 GLC5        0.0000 
      5 CA         61.6140   25.1420   32.2690 C.3       9 GLL5        0.0000 
      6 CA         65.0770   25.3820   29.7700 C.3       6 GLP5        0.0000 
      7 CA         59.9780   24.3665   31.2660 C.3       3 GLC5        0.0000 
      8 CA         58.3420   23.5910   30.2630 C.3       6 GLP5        0.0000 
      9 N          60.9465   24.4565   29.9630 N.am      2 SEC2        0.0000 
     10 N          61.9110   24.3100   31.1400 N.am      8 SEL2        0.0000 
     11 N          59.9820   24.6030   28.7860 N.am      5 SEP2        0.0000 
     12 CA         62.4000   24.0570   29.2960 C.3       3 GLC5        0.0000 
     13 CA         62.9210   23.4390   31.2800 C.3       9 GLL5        0.0000 
     14 CA         61.8790   24.6750   27.3120 C.3       6 GLP5        0.0000 
     15 CA         60.3155   21.8960   38.7340 C.3       3 GLC5        0.0000 
     16 CA         61.7930   22.9030   37.7680 C.3       9 GLL5        0.0000 
     17 CA         58.8380   20.8890   39.7000 C.3       6 GLP5        0.0000 
     18 CA         62.7340   21.3690   38.7105 C.3       3 GLC5        0.0000 
     19 CA         63.6750   19.8350   39.6530 C.3       6 GLP5        0.0000 
     20 CA         57.0505   28.2255   33.6103 C.3       3 GLC5        0.0000 
     21 CA         58.9970   28.0850   33.4740 C.3       9 GLL5        0.0000 
     22 CA         55.4650   27.7630   33.1560 C.3       6 GLP5        0.0000 
     23 CA         60.9838   23.6737   33.0895 C.3       3 GLC5        0.0000 
     24 CA         59.9950   22.2640   33.3360 C.3       6 GLP5        0.0000 
     25 CA         64.1882   24.3833   30.8185 C.3       3 GLC5        0.0000 
     26 CA         63.6780   23.3300   32.4540 C.3       9 GLL5        0.0000 
     27 CA         62.9177   21.4662   31.5005 C.3       3 GLC5        0.0000 
     28 CA         62.5360   19.5480   31.1340 C.3       6 GLP5        0.0000 
     29 CA         64.6312   22.4037   30.8320 C.3       3 GLC5        0.0000 
     30 CA         65.9630   21.4230   29.7970 C.3       6 GLP5        0.0000 
     31 CA         61.6472   22.8242   32.6015 C.3       3 GLC5        0.0000 
     32 CA         59.9146   24.9214   34.6453 C.3       3 GLC5        0.0000 
     33 CA         61.8540   25.8980   34.3730 C.3       9 GLL5        0.0000 
     34 CA         58.7020   23.3850   35.1210 C.3       6 GLP5        0.0000 
     35 CA         64.2126   26.3071   34.4322 C.3       3 GLC5        0.0000 
     36 CA         62.3310   25.0250   33.4170 C.3       9 GLL5        0.0000 
     37 CA         66.1590   26.8460   34.0360 C.3       6 GLP5        0.0000 
     38 CA         61.5913   21.4887   36.5823 C.3       3 GLC5        0.0000 
     39 CA         62.4760   23.7700   36.7290 C.3       9 GLL5        0.0000 
     40 CA         61.0480   19.6410   35.9160 C.3       6 GLP5        0.0000 
     41 CA         60.3459   23.5339   36.1979 C.3       3 GLC5        0.0000 
@<TRIPOS>BOND
@<TRIPOS>SUBSTRUCTURE
     1 ALC1        1 GROUP        1 X    ALC  0     ROOT ALC X 1
     2 SEC2        9 GROUP        1 X    SEC  0     **** SEC X 2
     3 GLC5        4 GROUP        1 X    GLC  0     **** GLC X 6
     4 ALP1        3 GROUP        1 Y    ALP  0     ROOT ALP Y 8
     5 SEP2       11 GROUP        1 Y    SEP  0     **** SEP Y 9
     6 GLP5        6 GROUP        1 Y    GLP  0     **** GLP Y 13
     7 ALL1        2 GROUP        1 Z    ALL  0     ROOT ALL Z 15
     8 SEL2       10 GROUP        1 Z    SEL  0     **** SEL Z 16
     9 GLL5        5 GROUP        1 Z    GLL  0     **** GLL Z 20
@<TRIPOS>SET

