#    Name: 1ung_ALH_2_ligand
#    Modification time : Tue Mar 25 06:45:59 2014

@<TRIPOS>MOLECULE
1ung_ALH_2_ligand
   37    39     1     0     0
SMALL
NO_CHARGES


@<TRIPOS>ATOM
      1 OAO        57.5970   30.4440   35.8330 O.3       1 ALH1288     0.0000 
      2 CAN        58.3730   29.5020   35.3140 C.ar      1 ALH1288     0.0000 
      3 CAU        59.3820   28.9360   36.1020 C.ar      1 ALH1288     0.0000 
      4 CAT        60.2080   27.9430   35.5780 C.ar      1 ALH1288     0.0000 
      5 CAM        60.0150   27.5110   34.2670 C.ar      1 ALH1288     0.0000 
      6 CAE        58.9970   28.0850   33.4740 C.ar      1 ALH1288     0.0000 
      7 CAF        58.1770   29.0800   33.9960 C.ar      1 ALH1288     0.0000 
      8 CAL        60.7860   26.5240   33.6650 C.2       1 ALH1288     0.0000 
      9 NAS        60.6240   26.0510   32.3860 N.pl3     1 ALH1288     0.0000 
     10 CAR        61.6140   25.1420   32.2690 C.ar      1 ALH1288     0.0000 
     11 NAQ        61.9110   24.3100   31.1400 N.ar      1 ALH1288     0.0000 
     12 CAJ        62.3310   25.0250   33.4170 C.ar      1 ALH1288     0.0000 
     13 NAI        63.4120   24.0850   33.5310 N.ar      1 ALH1288     0.0000 
     14 CAH        63.6780   23.3300   32.4540 C.ar      1 ALH1288     0.0000 
     15 CAP        62.9210   23.4390   31.2800 C.ar      1 ALH1288     0.0000 
     16 CAK        61.8540   25.8980   34.3730 C.2       1 ALH1288     0.0000 
     17 CAG        62.4400   26.0750   35.7620 C.3       1 ALH1288     0.0000 
     18 CAD        61.8970   25.1550   36.8340 C.3       1 ALH1288     0.0000 
     19 CAC        62.4760   23.7700   36.7290 C.3       1 ALH1288     0.0000 
     20 CAB        61.7930   22.9030   37.7680 C.3       1 ALH1288     0.0000 
     21 H          59.5122   29.2556   37.0702 H         1 ALH1288     0.0000 
     22 H          60.9507   27.5342   36.1517 H         1 ALH1288     0.0000 
     23 H          58.8691   27.7598   32.5084 H         1 ALH1288     0.0000 
     24 H          57.4404   29.4987   33.4261 H         1 ALH1288     0.0000 
     25 H          59.9838   26.3051   31.7649 H         1 ALH1288     0.0000 
     26 H          64.4612   22.6383   32.4654 H         1 ALH1288     0.0000 
     27 H          63.1772   22.7947   30.4833 H         1 ALH1288     0.0000 
     28 H          62.2851   27.1309   36.0822 H         1 ALH1288     0.0000 
     29 H          63.5449   25.9442   35.7019 H         1 ALH1288     0.0000 
     30 H          60.8048   25.1026   36.7434 H         1 ALH1288     0.0000 
     31 H          62.1303   25.5751   37.8203 H         1 ALH1288     0.0000 
     32 H          63.5375   23.7991   36.9259 H         1 ALH1288     0.0000 
     33 H          62.2893   23.3668   35.7447 H         1 ALH1288     0.0000 
     34 H          62.1339   21.9631   37.7496 H         1 ALH1288     0.0000 
     35 H          61.9386   23.2495   38.6947 H         1 ALH1288     0.0000 
     36 H          60.8045   22.8592   37.6234 H         1 ALH1288     0.0000 
     37 H          58.0815   31.3018   35.6616 H         1 ALH1288     0.0000 
@<TRIPOS>BOND
     1    2    1 1    
     2   37    1 1    
     3    3    2 ar   
     4    7    2 ar   
     5    4    3 ar   
     6   21    3 1    
     7    5    4 ar   
     8   22    4 1    
     9    6    5 ar   
    10    8    5 1    
    11    7    6 ar   
    12   23    6 1    
    13   24    7 1    
    14    9    8 1    
    15   16    8 2    
    16   10    9 1    
    17   25    9 1    
    18   11   10 ar   
    19   12   10 ar   
    20   15   11 ar   
    21   13   12 ar   
    22   16   12 1    
    23   14   13 ar   
    24   15   14 ar   
    25   26   14 1    
    26   27   15 1    
    27   17   16 1    
    28   18   17 1    
    29   28   17 1    
    30   29   17 1    
    31   19   18 1    
    32   30   18 1    
    33   31   18 1    
    34   20   19 1    
    35   32   19 1    
    36   33   19 1    
    37   34   20 1    
    38   35   20 1    
    39   36   20 1    
@<TRIPOS>SUBSTRUCTURE
     1 ALH1288     1 GROUP   
@<TRIPOS>SET

