#    Name: 2lzg_13Q_1_INTS_M
#    Modification time : Tue Mar 25 21:18:56 2014

@<TRIPOS>MOLECULE
2lzg_13Q_1_INTS_M
   64     0     6     0     0
SMALL
NO_CHARGES


@<TRIPOS>ATOM
      1 CA          6.0850    5.7620    0.3415 C.3       2 GLC5        0.0000 
      2 CA          7.0500    3.7920   -0.0390 C.3       6 GLL5        0.0000 
      3 CA          5.1200    7.7320    0.7220 C.3       4 GLP5        0.0000 
      4 CA          7.1645    0.4175    3.4155 C.3       2 GLC5        0.0000 
      5 CA          6.9850    1.5120    1.5520 C.3       6 GLL5        0.0000 
      6 CA          7.3440   -0.6770    5.2790 C.3       4 GLP5        0.0000 
      7 CA          8.2570    0.6820    3.8445 C.3       2 GLC5        0.0000 
      8 CA          9.1700    2.0410    2.4100 C.3       6 GLL5        0.0000 
      9 N          10.7825    6.2985    4.7425 N.am      1 SEC2        0.0000 
     10 N          12.2480    6.3480    4.2400 N.am      5 SEL2        0.0000 
     11 N           9.3170    6.2490    5.2450 N.am      3 SEP2        0.0000 
     12 CA          6.8170    5.3090    6.1020 C.3       2 GLC5        0.0000 
     13 CA          6.0070    3.4840    5.8660 C.3       6 GLL5        0.0000 
     14 CA          7.6270    7.1340    6.3380 C.3       4 GLP5        0.0000 
     15 CA          8.0540    3.3375    8.0295 C.3       2 GLC5        0.0000 
     16 CA          7.0210    2.5910    6.1950 C.3       6 GLL5        0.0000 
     17 CA          9.0870    4.0840    9.8640 C.3       4 GLP5        0.0000 
     18 CA          8.6435   -0.1235   -0.4525 C.3       2 GLC5        0.0000 
     19 CA         10.3510    0.8780    0.4730 C.3       6 GLL5        0.0000 
     20 CA          6.9360   -1.1250   -1.3780 C.3       4 GLP5        0.0000 
     21 CA         10.1730    3.8260   -1.1155 C.3       2 GLC5        0.0000 
     22 CA         10.5030    1.7340   -0.7870 C.3       6 GLL5        0.0000 
     23 CA          9.8430    5.9180   -1.4440 C.3       4 GLP5        0.0000 
     24 CA         13.1925    0.1280   -2.7445 C.3       2 GLC5        0.0000 
     25 CA         11.7970    1.3100   -1.4730 C.3       6 GLL5        0.0000 
     26 CA         14.5880   -1.0540   -4.0160 C.3       4 GLP5        0.0000 
     27 CA          8.7205    0.1465   -1.8230 C.3       2 GLC5        0.0000 
     28 CA         10.5050    1.4180   -2.2680 C.3       6 GLL5        0.0000 
     29 CA          9.8100    2.0340   -3.8365 C.3       2 GLC5        0.0000 
     30 CA          9.1150    2.6500   -5.4050 C.3       4 GLP5        0.0000 
     31 CA          3.4680    2.3195   -2.3055 C.3       2 GLC5        0.0000 
     32 CA          4.5530    3.3980   -0.9980 C.3       6 GLL5        0.0000 
     33 CA          2.3830    1.2410   -3.6130 C.3       4 GLP5        0.0000 
     34 CA          5.4630    2.9420   -2.3910 C.3       2 GLC5        0.0000 
     35 CA          6.3730    2.4860   -3.7840 C.3       4 GLP5        0.0000 
     36 CA          3.3460    5.0005   -0.2075 C.3       2 GLC5        0.0000 
     37 CA          2.1390    6.6030    0.5830 C.3       4 GLP5        0.0000 
     38 CA          4.4440    3.4445    3.8790 C.3       2 GLC5        0.0000 
     39 CA          4.8610    5.3710    4.3070 C.3       6 GLL5        0.0000 
     40 CA          4.0270    1.5180    3.4510 C.3       4 GLP5        0.0000 
     41 CA          5.2900    7.0630    5.0215 C.3       2 GLC5        0.0000 
     42 CA          5.7190    8.7550    5.7360 C.3       4 GLP5        0.0000 
     43 CA          3.7600    6.5265    2.9285 C.3       2 GLC5        0.0000 
     44 CA          2.6590    7.6820    1.5500 C.3       4 GLP5        0.0000 
     45 CA          3.4030    5.0590    5.6965 C.3       2 GLC5        0.0000 
     46 CA          1.9450    4.7470    7.0860 C.3       4 GLP5        0.0000 
     47 CA          8.7185    4.7752   -0.5405 C.3       2 GLC5        0.0000 
     48 CA          6.4307    2.9340   -1.9132 C.3       2 GLC5        0.0000 
     49 CA          5.2376    1.7372    2.2010 C.3       2 GLC5        0.0000 
     50 CA          6.6921    0.4158   -0.2135 C.3       2 GLC5        0.0000 
     51 CA          5.8960    1.8300    0.7460 C.3       6 GLL5        0.0000 
     52 CA          8.5008    5.1117    4.4657 C.3       2 GLC5        0.0000 
     53 CA          9.3740    3.1630    3.4130 C.3       6 GLL5        0.0000 
     54 CA          8.1840    7.0070    5.1040 C.3       4 GLP5        0.0000 
     55 CA          7.7735    1.1000    5.0460 C.3       2 GLC5        0.0000 
     56 CA          8.2610    3.2700    4.2420 C.3       6 GLL5        0.0000 
     57 CA          5.3555    2.8672    3.8857 C.3       2 GLC5        0.0000 
     58 CA          7.2470    4.1630    3.9160 C.3       6 GLL5        0.0000 
     59 CA          7.4340    5.6117    4.7123 C.3       2 GLC5        0.0000 
     60 CA          6.1210    4.2700    4.7250 C.3       6 GLL5        0.0000 
     61 CA          6.9290    1.1803    5.6547 C.3       2 GLC5        0.0000 
     62 CA          5.2705    2.2778    4.7408 C.3       2 GLC5        0.0000 
     63 CA         12.2780    2.0355   -3.1547 C.3       2 GLC5        0.0000 
     64 CA         13.4050    2.7070   -4.4390 C.3       4 GLP5        0.0000 
@<TRIPOS>BOND
@<TRIPOS>SUBSTRUCTURE
     1 SEC2        9 GROUP        1 X    SEC  0     ROOT SEC X 2
     2 GLC5        1 GROUP        1 X    GLC  0     **** GLC X 6
     3 SEP2       11 GROUP        1 Y    SEP  0     ROOT SEP Y 9
     4 GLP5        3 GROUP        1 Y    GLP  0     **** GLP Y 13
     5 SEL2       10 GROUP        1 Z    SEL  0     ROOT SEL Z 16
     6 GLL5        2 GROUP        1 Z    GLL  0     **** GLL Z 20
@<TRIPOS>SET

