#    Name: 2lzg_13Q_1_ligand
#    Modification time : Tue Mar 25 21:18:56 2014

@<TRIPOS>MOLECULE
2lzg_13Q_1_ligand
   51    54     1     0     0
SMALL
NO_CHARGES


@<TRIPOS>ATOM
      1 C1          8.1380    3.4730    0.7650 C.ar      1 13Q201      0.0000 
      2 C2          7.0500    3.7920   -0.0390 C.ar      1 13Q201      0.0000 
      3 C3          5.9270    2.9720   -0.0460 C.ar      1 13Q201      0.0000 
      4 C4          5.8960    1.8300    0.7460 C.ar      1 13Q201      0.0000 
      5 C5          6.9850    1.5120    1.5520 C.ar      1 13Q201      0.0000 
      6 C6          8.1050    2.3350    1.5650 C.ar      1 13Q201      0.0000 
      7 C7          9.1700    2.0410    2.4100 C.3       1 13Q201      0.0000 
      8 N1         10.4080    1.7920    1.6370 N.am      1 13Q201      0.0000 
      9 O1         12.5850    1.9630    1.3510 O.2       1 13Q201      0.0000 
     10 C8         11.6080    2.2300    2.0500 C.2       1 13Q201      0.0000 
     11 O2         12.2480    6.3480    4.2400 O.co2     1 13Q201      0.0000 
     12 C9         11.8000    2.9630    3.2180 C.3       1 13Q201      0.0000 
     13 C10        10.6370    2.8370    4.1920 C.3       1 13Q201      0.0000 
     14 C11         9.3740    3.1630    3.4130 C.3       1 13Q201      0.0000 
     15 C12         8.2610    3.2700    4.2420 C.ar      1 13Q201      0.0000 
     16 C13         8.1450    2.4840    5.3840 C.ar      1 13Q201      0.0000 
     17 C14         7.2470    4.1630    3.9160 C.ar      1 13Q201      0.0000 
     18 C15         6.1210    4.2700    4.7250 C.ar      1 13Q201      0.0000 
     19 O3         13.2110    4.4610    4.9260 O.co2     1 13Q201      0.0000 
     20 C16         6.0070    3.4840    5.8660 C.ar      1 13Q201      0.0000 
     21 C17         7.0210    2.5910    6.1950 C.ar      1 13Q201      0.0000 
     22 C18        10.3510    0.8780    0.4730 C.3       1 13Q201      0.0000 
     23 C19        10.5030    1.7340   -0.7870 C.3       1 13Q201      0.0000 
     24 C20        11.7970    1.3100   -1.4730 C.3       1 13Q201      0.0000 
     25 C21        10.5050    1.4180   -2.2680 C.3       1 13Q201      0.0000 
     26 C22        12.0490    4.4300    2.8530 C.3       1 13Q201      0.0000 
     27 C23        12.5340    5.1370    4.1210 C.2       1 13Q201      0.0000 
     28 CL1         4.5530    3.3980   -0.9980 Cl        1 13Q201      0.0000 
     29 CL2         4.8610    5.3710    4.3070 Cl        1 13Q201      0.0000 
     30 H           8.9696    4.0790    0.7691 H         1 13Q201      0.0000 
     31 H           7.0752    4.6341   -0.6286 H         1 13Q201      0.0000 
     32 H           5.0685    1.2196    0.7368 H         1 13Q201      0.0000 
     33 H           6.9603    0.6672    2.1382 H         1 13Q201      0.0000 
     34 H           8.9533    1.1314    2.9993 H         1 13Q201      0.0000 
     35 H          12.7075    2.6235    3.7481 H         1 13Q201      0.0000 
     36 H          10.7603    3.5405    4.9937 H         1 13Q201      0.0000 
     37 H          10.5847    1.8307    4.5629 H         1 13Q201      0.0000 
     38 H           9.5620    4.0673    2.8467 H         1 13Q201      0.0000 
     39 H           8.8939    1.8213    5.6288 H         1 13Q201      0.0000 
     40 H           7.3296    4.7479    3.0721 H         1 13Q201      0.0000 
     41 H           5.1760    3.5625    6.4646 H         1 13Q201      0.0000 
     42 H           6.9390    2.0091    7.0394 H         1 13Q201      0.0000 
     43 H           9.4008    0.3674    0.4332 H         1 13Q201      0.0000 
     44 H          11.1596    0.1638    0.5070 H         1 13Q201      0.0000 
     45 H          10.6576    2.7456   -0.7220 H         1 13Q201      0.0000 
     46 H          11.9380    0.3960   -1.2762 H         1 13Q201      0.0000 
     47 H          12.3021    2.0921   -1.6376 H         1 13Q201      0.0000 
     48 H          10.5255    2.2382   -2.7422 H         1 13Q201      0.0000 
     49 H          10.1614    0.5421   -2.3807 H         1 13Q201      0.0000 
     50 H          11.1321    4.8773    2.5202 H         1 13Q201      0.0000 
     51 H          12.8080    4.4875    2.0966 H         1 13Q201      0.0000 
@<TRIPOS>BOND
     1    2    1 ar   
     2    6    1 ar   
     3   30    1 1    
     4    3    2 ar   
     5   31    2 1    
     6    4    3 ar   
     7   28    3 1    
     8    5    4 ar   
     9   32    4 1    
    10    6    5 ar   
    11   33    5 1    
    12    7    6 1    
    13    8    7 1    
    14   14    7 1    
    15   34    7 1    
    16   10    8 am   
    17   22    8 1    
    18   10    9 2    
    19   12   10 1    
    20   27   11 ar   
    21   13   12 1    
    22   26   12 1    
    23   35   12 1    
    24   14   13 1    
    25   36   13 1    
    26   37   13 1    
    27   15   14 1    
    28   38   14 1    
    29   16   15 ar   
    30   17   15 ar   
    31   21   16 ar   
    32   39   16 1    
    33   18   17 ar   
    34   40   17 1    
    35   20   18 ar   
    36   29   18 1    
    37   27   19 ar   
    38   21   20 ar   
    39   41   20 1    
    40   42   21 1    
    41   23   22 1    
    42   43   22 1    
    43   44   22 1    
    44   24   23 1    
    45   25   23 1    
    46   45   23 1    
    47   25   24 1    
    48   46   24 1    
    49   47   24 1    
    50   48   25 1    
    51   49   25 1    
    52   27   26 1    
    53   50   26 1    
    54   51   26 1    
@<TRIPOS>SUBSTRUCTURE
     1 13Q201      1 GROUP   
@<TRIPOS>SET

