#    Name: 1XDQ_4_CAVITY_N1_ALL.mol2
#    Modification time : Mon Mar 10 17:57:43 2014

@<TRIPOS>MOLECULE
1XDQ_4_CAVITY_N1_ALL.mol2
   95     0     6     0     0
SMALL
NO_CHARGES


@<TRIPOS>ATOM
      1 N         -19.9144  -13.0273   46.0065 N.2       2 ALA2        0.0000 
      2 NZ        -20.9864  -13.2740   47.0262 N.2       4 LYS4        0.0000 
      3 N         -15.5716  -11.1929   39.9836 N.2       2 ALA2        0.0000 
      4 O         -16.6436  -11.4396   41.0034 O.2       2 ALA2        0.0000 
      5 N         -20.9317  -12.4264   45.0824 N.2       2 ALA2        0.0000 
      6 CZ        -22.0038  -12.6731   46.1021 C.ar      5 PHE5        0.0000 
      7 CZ        -17.6609  -10.8388   40.0792 C.ar      5 PHE5        0.0000 
      8 CA        -18.7330  -11.0855   41.0990 C.3       6 GLY6        0.0000 
      9 CA        -20.8770  -11.5789   43.1385 C.3       6 GLY6        0.0000 
     10 N         -21.9491  -11.8256   44.1582 N.2       2 ALA2        0.0000 
     11 O         -19.7503  -10.4846   40.1748 O.2       2 ALA2        0.0000 
     12 CA        -21.8944  -10.9780   42.2143 C.3       6 GLY6        0.0000 
     13 O         -22.9664  -11.2247   43.2341 O.2       2 ALA2        0.0000 
     14 O         -22.9117  -10.3772   41.2902 O.2       2 ALA2        0.0000 
     15 O         -23.9837  -10.6239   42.3100 O.2       2 ALA2        0.0000 
     16 CA        -23.9290   -9.7764   40.3661 C.3       6 GLY6        0.0000 
     17 CA        -25.0011  -10.0231   41.3858 C.3       6 GLY6        0.0000 
     18 O         -26.0731  -10.2698   42.4056 O.2       2 ALA2        0.0000 
     19 CA        -24.9464   -9.1755   39.4419 C.3       6 GLY6        0.0000 
     20 CA        -26.0184   -9.4222   40.4617 C.3       6 GLY6        0.0000 
     21 O         -21.7473  -11.3210   46.6988 O.2       2 ALA2        0.0000 
     22 CA        -21.6926  -10.4735   44.7550 C.3       6 GLY6        0.0000 
     23 O         -22.7646  -10.7202   45.7747 O.2       2 ALA2        0.0000 
     24 CA        -22.7099   -9.8727   43.8308 C.3       6 GLY6        0.0000 
     25 O         -23.7273   -9.2718   42.9067 O.2       2 ALA2        0.0000 
     26 O         -23.6726   -8.4243   40.9628 O.2       2 ALA2        0.0000 
     27 CZ        -24.7446   -8.6710   41.9826 C.ar      5 PHE5        0.0000 
     28 CA        -24.6899   -7.8234   40.0387 C.3       6 GLY6        0.0000 
     29 CA        -25.7619   -8.0701   41.0584 C.3       6 GLY6        0.0000 
     30 CZ        -26.8340   -8.3169   42.0782 C.ar      5 PHE5        0.0000 
     31 NZ        -23.6640   -2.4151   42.4256 N.2       4 LYS4        0.0000 
     32 CA        -20.2256  -15.2269   47.3536 C.3       6 GLY6        0.0000 
     33 O         -14.8107  -13.1458   40.3110 O.2       2 ALA2        0.0000 
     34 OD1       -15.8827  -13.3925   41.3308 O.3       3 ASP3        0.0000 
     35 CA        -20.1709  -14.3793   45.4098 C.3       6 GLY6        0.0000 
     36 CZ        -21.2429  -14.6260   46.4295 C.ar      5 PHE5        0.0000 
     37 CA        -15.8280  -12.5450   39.3869 C.3       6 GLY6        0.0000 
     38 OD1       -16.9001  -12.7917   40.4066 O.3       3 ASP3        0.0000 
     39 OD1       -17.9721  -13.0384   41.4264 O.3       3 ASP3        0.0000 
     40 N         -19.0441  -13.2851   42.4461 N.2       2 ALA2        0.0000 
     41 N         -20.1162  -13.5318   43.4659 N.2       2 ALA2        0.0000 
     42 N         -21.1882  -13.7785   44.4856 N.2       2 ALA2        0.0000 
     43 CZ        -22.2602  -14.0252   45.5054 C.ar      5 PHE5        0.0000 
     44 CA        -16.8454  -11.9441   38.4627 C.3       6 GLY6        0.0000 
     45 CA        -17.9174  -12.1908   39.4825 C.3       6 GLY6        0.0000 
     46 CA        -18.9894  -12.4375   40.5022 C.3       6 GLY6        0.0000 
     47 N         -20.0615  -12.6842   41.5220 N.2       2 ALA2        0.0000 
     48 N         -21.1335  -12.9310   42.5417 N.2       2 ALA2        0.0000 
     49 OG        -22.2055  -13.1777   43.5615 O.2       1 SER1        0.0000 
     50 CA        -18.9347  -11.5900   38.5584 C.3       6 GLY6        0.0000 
     51 CA        -20.0068  -11.8367   39.5781 C.3       6 GLY6        0.0000 
     52 CA        -21.0788  -12.0834   40.5979 C.3       6 GLY6        0.0000 
     53 O         -22.1508  -12.3301   41.6176 O.2       2 ALA2        0.0000 
     54 CA        -23.2229  -12.5768   42.6374 C.3       6 GLY6        0.0000 
     55 CA        -22.0961  -11.4826   39.6737 C.3       6 GLY6        0.0000 
     56 O         -23.1682  -11.7293   40.6935 O.2       2 ALA2        0.0000 
     57 CA        -24.2402  -11.9760   41.7132 C.3       6 GLY6        0.0000 
     58 O         -24.1855  -11.1284   39.7693 O.2       2 ALA2        0.0000 
     59 O         -15.0672  -14.4979   39.7143 O.2       2 ALA2        0.0000 
     60 O         -16.1392  -14.7446   40.7340 O.2       2 ALA2        0.0000 
     61 CA        -20.4273  -15.7314   44.8130 C.3       6 GLY6        0.0000 
     62 O         -21.4994  -15.9781   45.8328 O.2       2 ALA2        0.0000 
     63 CA        -16.0845  -13.8971   38.7901 C.3       6 GLY6        0.0000 
     64 O         -17.1566  -14.1438   39.8099 O.2       2 ALA2        0.0000 
     65 O         -19.3006  -14.6372   41.8494 O.2       2 ALA2        0.0000 
     66 N         -20.3726  -14.8839   42.8691 N.2       2 ALA2        0.0000 
     67 N         -21.4447  -15.1306   43.8889 N.2       2 ALA2        0.0000 
     68 CZ        -22.5167  -15.3773   44.9086 C.ar      5 PHE5        0.0000 
     69 O         -19.2459  -13.7896   39.9055 O.2       2 ALA2        0.0000 
     70 N         -20.3179  -14.0363   40.9253 N.2       2 ALA2        0.0000 
     71 N         -21.3900  -14.2830   41.9450 N.2       2 ALA2        0.0000 
     72 N         -22.4620  -14.5297   42.9648 N.2       2 ALA2        0.0000 
     73 CA        -20.2633  -13.1888   38.9814 C.3       6 GLY6        0.0000 
     74 N         -21.3353  -13.4355   40.0011 N.2       2 ALA2        0.0000 
     75 OG        -25.3037   -6.2135   44.1958 O.2       1 SER1        0.0000 
     76 NZ        -25.2490   -5.3660   42.2519 N.2       4 LYS4        0.0000 
     77 CZ        -26.3210   -5.6127   43.2716 C.ar      5 PHE5        0.0000 
     78 NZ        -26.2663   -4.7651   41.3278 N.2       4 LYS4        0.0000 
     79 OG        -27.3383   -5.0118   42.3475 O.2       1 SER1        0.0000 
     80 CZ        -28.4104   -5.2586   43.3672 C.ar      5 PHE5        0.0000 
     81 CZ        -27.2836   -4.1643   40.4036 C.ar      5 PHE5        0.0000 
     82 NZ        -24.9925   -4.0139   42.8486 N.2       4 LYS4        0.0000 
     83 OG        -26.0645   -4.2606   43.8684 O.2       1 SER1        0.0000 
     84 CZ        -27.1366   -4.5073   44.8881 C.ar      5 PHE5        0.0000 
     85 NZ        -24.9378   -3.1663   40.9047 N.2       4 LYS4        0.0000 
     86 NZ        -26.0098   -3.4131   41.9245 N.2       4 LYS4        0.0000 
     87 O         -27.0819   -3.6598   42.9442 O.2       2 ALA2        0.0000 
     88 O         -28.1539   -3.9065   43.9640 O.2       2 ALA2        0.0000 
     89 CZ        -25.9551   -2.5655   39.9806 C.ar      5 PHE5        0.0000 
     90 O         -27.0272   -2.8122   41.0003 O.2       2 ALA2        0.0000 
     91 O         -19.5024  -15.1417   39.3088 O.2       2 ALA2        0.0000 
     92 NZ        -24.4881   -7.3189   42.5793 N.2       4 LYS4        0.0000 
     93 NZ        -25.5054   -6.7181   41.6552 N.2       4 LYS4        0.0000 
     94 CZ        -26.5775   -6.9648   42.6749 C.ar      5 PHE5        0.0000 
     95 OG        -26.5228   -6.1172   40.7310 O.2       1 SER1        0.0000 
@<TRIPOS>BOND
@<TRIPOS>SUBSTRUCTURE
     1 SER1       49 GROUP   
     2 ALA2        1 GROUP   
     3 ASP3       34 GROUP   
     4 LYS4        2 GROUP   
     5 PHE5        6 GROUP   
     6 GLY6        8 GROUP   
@<TRIPOS>SET

