#    Name: 1xdq_MTE_4_INTS_M
#    Modification time : Mon Apr  7 15:15:05 2014

@<TRIPOS>MOLECULE
1xdq_MTE_4_INTS_M
   74     0    12     0     0
SMALL
NO_CHARGES


@<TRIPOS>ATOM
      1 N         -20.7620  -17.0945   46.3475 N.am      2 SEC2        0.0000 
      2 N         -21.1070  -15.5060   46.6570 N.am     10 SEL2        0.0000 
      3 N         -20.4170  -18.6830   46.0380 N.am      6 SEP2        0.0000 
      4 O         -21.2390  -15.1690   50.0235 O.2       1 ALC1        0.0000 
      5 O         -21.1370  -15.6780   48.9400 O.2       9 ALL1        0.0000 
      6 O         -21.3410  -14.6600   51.1070 O.2       5 ALP1        0.0000 
      7 O         -20.8840  -14.1900   49.6860 O.2       1 ALC1        0.0000 
      8 O         -20.6310  -12.7020   50.4320 O.2       5 ALP1        0.0000 
      9 O         -21.6240  -17.1670   49.3570 O.2       1 ALC1        0.0000 
     10 O         -22.1110  -18.6560   49.7740 O.2       5 ALP1        0.0000 
     11 O         -21.3960  -14.1685   49.5765 O.2       1 ALC1        0.0000 
     12 O         -21.4510  -13.6770   48.0460 O.2       9 ALL1        0.0000 
     13 O         -21.0410  -13.1895   49.2390 O.2       1 ALC1        0.0000 
     14 N         -20.8380  -10.5880   47.6960 N.am      2 SEC2        0.0000 
     15 N         -21.8090  -11.4870   46.9660 N.am     10 SEL2        0.0000 
     16 N         -19.8670   -9.6890   48.4260 N.am      6 SEP2        0.0000 
     17 CA        -19.1935  -14.6865   43.5160 C.3       4 GLC5        0.0000 
     18 CA        -21.1820  -14.6090   42.9360 C.3      12 GLL5        0.0000 
     19 CA        -17.2050  -14.7640   44.0960 C.3       8 GLP5        0.0000 
     20 O         -21.0785  -16.6185   43.4175 O.2       1 ALC1        0.0000 
     21 O         -21.0790  -15.3050   44.1990 O.2       9 ALL1        0.0000 
     22 O         -21.0780  -17.9320   42.6360 O.2       5 ALP1        0.0000 
     23 CA        -19.8410  -12.0970   46.3845 C.3       4 GLC5        0.0000 
     24 CA        -21.4780  -13.3470   45.6210 C.3      12 GLL5        0.0000 
     25 CA        -18.2040  -10.8470   47.1480 C.3       8 GLP5        0.0000 
     26 CA        -19.4710  -14.3590   45.5425 C.3       4 GLC5        0.0000 
     27 CA        -17.4640  -15.3710   45.4640 C.3       8 GLP5        0.0000 
     28 CA        -19.6225  -15.8210   45.3825 C.3       4 GLC5        0.0000 
     29 CA        -21.1980  -14.8570   45.4800 C.3      12 GLL5        0.0000 
     30 CA        -18.0470  -16.7850   45.2850 C.3       8 GLP5        0.0000 
     31 CA        -21.4790  -10.2845   42.2955 C.3       4 GLC5        0.0000 
     32 CA        -23.3320  -11.1980   41.7670 C.3      12 GLL5        0.0000 
     33 CA        -19.6260   -9.3710   42.8240 C.3       8 GLP5        0.0000 
     34 CA        -23.1015  -13.4470   40.9980 C.3       4 GLC5        0.0000 
     35 CA        -21.0290  -12.6250   40.8420 C.3      12 GLL5        0.0000 
     36 CA        -25.1740  -14.2690   41.1540 C.3       8 GLP5        0.0000 
     37 CA        -19.8320  -12.3890   37.9190 C.3       4 GLC5        0.0000 
     38 CA        -21.3770  -11.7570   39.3370 C.3      12 GLL5        0.0000 
     39 CA        -18.2870  -13.0210   36.5010 C.3       8 GLP5        0.0000 
     40 CA        -21.4800  -10.7930   37.9510 C.3       4 GLC5        0.0000 
     41 CA        -21.5830   -9.8290   36.5650 C.3       8 GLP5        0.0000 
     42 CA        -19.0830  -11.2475   41.9070 C.3       4 GLC5        0.0000 
     43 CA        -18.5400  -13.1240   40.9900 C.3      12 GLL5        0.0000 
     44 CA        -18.4135  -13.0725   38.7455 C.3       4 GLC5        0.0000 
     45 N         -17.8050  -15.3800   40.7645 N.am      2 SEC2        0.0000 
     46 N         -17.4390  -14.0780   40.6720 N.am     10 SEL2        0.0000 
     47 N         -18.1710  -16.6820   40.8570 N.am      6 SEP2        0.0000 
     48 NZ        -16.2295  -12.9995   42.9215 N.4       3 LYC4        0.0000 
     49 NZ        -15.7840  -12.6170   41.7110 N.4      11 LYL4        0.0000 
     50 NZ        -16.6750  -13.3820   44.1320 N.4       7 LYP4        0.0000 
     51 N         -14.2615  -12.0640   41.7615 N.am      2 SEC2        0.0000 
     52 N         -15.7840  -12.6170   41.7110 N.am     10 SEL2        0.0000 
     53 N         -12.7390  -11.5110   41.8120 N.am      6 SEP2        0.0000 
     54 N         -16.2295  -12.9995   42.9215 N.am      2 SEC2        0.0000 
     55 N         -16.6750  -13.3820   44.1320 N.am      6 SEP2        0.0000 
     56 NZ        -16.7605  -15.6730   40.9970 N.4       3 LYC4        0.0000 
     57 NZ        -15.3500  -14.6640   41.1370 N.4      11 LYL4        0.0000 
     58 NZ        -17.3890  -17.6670   41.2610 N.4       7 LYP4        0.0000 
     59 NZ        -16.0125  -14.0230   42.6345 N.4       3 LYC4        0.0000 
     60 N         -13.7705  -14.7900   41.0090 N.am      2 SEC2        0.0000 
     61 N         -15.3500  -14.6640   41.1370 N.am     10 SEL2        0.0000 
     62 N         -12.1910  -14.9160   40.8810 N.am      6 SEP2        0.0000 
     63 N         -15.8105  -16.0210   41.5230 N.am      2 SEC2        0.0000 
     64 N         -16.2710  -17.3780   41.9090 N.am      6 SEP2        0.0000 
     65 N         -16.7605  -15.6730   40.9970 N.am      2 SEC2        0.0000 
     66 CA        -23.2705  -14.0407   42.0560 C.3       4 GLC5        0.0000 
     67 CA        -21.5520  -13.0160   42.9800 C.3      12 GLL5        0.0000 
     68 CA        -23.9200  -12.9992   41.4830 C.3       4 GLC5        0.0000 
     69 CA        -22.0000  -12.2610   41.8570 C.3      12 GLL5        0.0000 
     70 CA        -20.5143  -11.0014   42.2271 C.3       4 GLC5        0.0000 
     71 CA        -22.1485  -13.2770   39.0358 C.3       4 GLC5        0.0000 
     72 CA        -23.0940  -14.3630   37.9820 C.3       8 GLP5        0.0000 
     73 CA        -18.1915  -14.0907   42.5765 C.3       4 GLC5        0.0000 
     74 CA        -19.8160  -13.7110   41.1240 C.3      12 GLL5        0.0000 
@<TRIPOS>BOND
@<TRIPOS>SUBSTRUCTURE
     1 ALC1        4 GROUP        1 X    ALC  0     ROOT ALC X 1
     2 SEC2        1 GROUP        1 X    SEC  0     **** SEC X 2
     3 LYC4       48 GROUP        1 X    LYC  0     **** LYC X 4
     4 GLC5       17 GROUP        1 X    GLC  0     **** GLC X 6
     5 ALP1        6 GROUP        1 Y    ALP  0     ROOT ALP Y 8
     6 SEP2        3 GROUP        1 Y    SEP  0     **** SEP Y 9
     7 LYP4       50 GROUP        1 Y    LYP  0     **** LYP Y 11
     8 GLP5       19 GROUP        1 Y    GLP  0     **** GLP Y 13
     9 ALL1        5 GROUP        1 Z    ALL  0     ROOT ALL Z 15
    10 SEL2        2 GROUP        1 Z    SEL  0     **** SEL Z 16
    11 LYL4       49 GROUP        1 Z    LYL  0     **** LYL Z 18
    12 GLL5       18 GROUP        1 Z    GLL  0     **** GLL Z 20
@<TRIPOS>SET

