#    Name: 1xdq_MTE_4_ligand
#    Modification time : Mon Apr  7 15:15:05 2014

@<TRIPOS>MOLECULE
1xdq_MTE_4_ligand
   34    36     1     0     0
SMALL
NO_CHARGES


@<TRIPOS>ATOM
      1 N1        -21.1070  -15.5060   46.6570 N.2       1 MTE304      0.0000 
      2 C2        -21.2320  -14.9530   47.8930 C.2       1 MTE304      0.0000 
      3 N2        -21.1370  -15.6780   48.9400 N.pl3     1 MTE304      0.0000 
      4 N3        -21.4510  -13.6770   48.0460 N.am      1 MTE304      0.0000 
      5 C4        -21.5840  -12.8030   46.9600 C.2       1 MTE304      0.0000 
      6 O4        -21.8090  -11.4870   46.9660 O.2       1 MTE304      0.0000 
      7 N5        -21.6320  -12.5480   44.4290 N.pl3     1 MTE304      0.0000 
      8 C6        -21.5520  -13.0160   42.9800 C.3       1 MTE304      0.0000 
      9 C7        -21.1820  -14.6090   42.9360 C.3       1 MTE304      0.0000 
     10 N8        -21.0790  -15.3050   44.1990 N.pl3     1 MTE304      0.0000 
     11 C9        -21.4780  -13.3470   45.6210 C.2       1 MTE304      0.0000 
     12 C10       -21.1980  -14.8570   45.4800 C.2       1 MTE304      0.0000 
     13 C1'       -22.0000  -12.2610   41.8570 C.2       1 MTE304      0.0000 
     14 S1'       -23.3320  -11.1980   41.7670 S.3       1 MTE304      0.0000 
     15 C2'       -21.0290  -12.6250   40.8420 C.2       1 MTE304      0.0000 
     16 S2'       -21.3770  -11.7570   39.3370 S.3       1 MTE304      0.0000 
     17 C3'       -19.8160  -13.7110   41.1240 C.3       1 MTE304      0.0000 
     18 O3'       -19.8120  -14.3670   42.4570 O.3       1 MTE304      0.0000 
     19 C4'       -18.5400  -13.1240   40.9900 C.3       1 MTE304      0.0000 
     20 O4'       -17.4390  -14.0780   40.6720 O.3       1 MTE304      0.0000 
     21 P         -16.1130  -13.5800   40.7730 P.3       1 MTE304      0.0000 
     22 O1P       -15.7840  -12.6170   41.7110 O.co2     1 MTE304      0.0000 
     23 O2P       -15.3500  -14.6640   41.1370 O.co2     1 MTE304      0.0000 
     24 O3P       -15.7550  -12.9950   39.4070 O.co2     1 MTE304      0.0000 
     25 H         -21.4654  -16.6187   48.8551 H         1 MTE304      0.0000 
     26 H         -20.7430  -15.2369   49.7464 H         1 MTE304      0.0000 
     27 H         -21.5380  -13.2462   49.0089 H         1 MTE304      0.0000 
     28 H         -21.8229  -11.5165   44.5421 H         1 MTE304      0.0000 
     29 H         -20.2185  -12.6840   42.8868 H         1 MTE304      0.0000 
     30 H         -21.7381  -15.0256   42.1900 H         1 MTE304      0.0000 
     31 H         -20.8673  -16.3820   44.0742 H         1 MTE304      0.0000 
     32 H         -19.9431  -14.4908   40.3522 H         1 MTE304      0.0000 
     33 H         -18.2534  -12.5703   41.9252 H         1 MTE304      0.0000 
     34 H         -18.5456  -12.3304   40.1940 H         1 MTE304      0.0000 
@<TRIPOS>BOND
     1    2    1 2    
     2   12    1 1    
     3    3    2 1    
     4    4    2 1    
     5   25    3 1    
     6   26    3 1    
     7    5    4 am   
     8   27    4 1    
     9    6    5 2    
    10   11    5 1    
    11    8    7 1    
    12   11    7 1    
    13   28    7 1    
    14    9    8 1    
    15   13    8 1    
    16   29    8 1    
    17   10    9 1    
    18   18    9 1    
    19   30    9 1    
    20   12   10 1    
    21   31   10 1    
    22   12   11 2    
    23   14   13 1    
    24   15   13 2    
    25   16   15 1    
    26   17   15 1    
    27   18   17 1    
    28   19   17 1    
    29   32   17 1    
    30   20   19 1    
    31   33   19 1    
    32   34   19 1    
    33   21   20 1    
    34   22   21 ar   
    35   23   21 ar   
    36   24   21 ar   
@<TRIPOS>SUBSTRUCTURE
     1 MTE304      1 GROUP   
@<TRIPOS>SET

