#    Name: 3fqz_11F_1_INTS_M
#    Modification time : Tue Mar 25 06:17:36 2014

@<TRIPOS>MOLECULE
3fqz_11F_1_INTS_M
   64     0     9     0     0
SMALL
NO_CHARGES


@<TRIPOS>ATOM
      1 CA        -32.6955  -10.6060   46.0630 C.3       3 GLC5        0.0000 
      2 CA        -34.7730  -11.1450   45.8270 C.3       9 GLL5        0.0000 
      3 CA        -30.6180  -10.0670   46.2990 C.3       6 GLP5        0.0000 
      4 CA        -33.9365  -14.4015   42.4745 C.3       3 GLC5        0.0000 
      5 CA        -35.0670  -12.5930   41.9800 C.3       9 GLL5        0.0000 
      6 CA        -32.8060  -16.2100   42.9690 C.3       6 GLP5        0.0000 
      7 CA        -35.7170  -12.8330   40.3640 C.3       3 GLC5        0.0000 
      8 CA        -36.3670  -13.0730   38.7480 C.3       6 GLP5        0.0000 
      9 CA        -30.4305  -12.4310   45.8275 C.3       3 GLC5        0.0000 
     10 CA        -31.1980  -13.8050   44.7090 C.3       9 GLL5        0.0000 
     11 CA        -29.6630  -11.0570   46.9460 C.3       6 GLP5        0.0000 
     12 CA        -30.8125  -11.7495   44.8360 C.3       3 GLC5        0.0000 
     13 CA        -31.0070  -13.4320   43.3730 C.3       9 GLL5        0.0000 
     14 CA        -29.9645  -13.7445   40.6940 C.3       3 GLC5        0.0000 
     15 CA        -29.7160  -13.8000   42.6280 C.3       9 GLL5        0.0000 
     16 CA        -30.2130  -13.6890   38.7600 C.3       6 GLP5        0.0000 
     17 CA        -27.4860  -15.0820   44.5480 C.3       3 GLC5        0.0000 
     18 CA        -28.7550  -14.5130   43.5650 C.3       9 GLL5        0.0000 
     19 CA        -26.2170  -15.6510   45.5310 C.3       6 GLP5        0.0000 
     20 CA        -26.9100   -8.0025   42.7635 C.3       3 GLC5        0.0000 
     21 CA        -28.5040   -9.1230   41.8070 C.3       9 GLL5        0.0000 
     22 CA        -25.3160   -6.8820   43.7200 C.3       6 GLP5        0.0000 
     23 CA        -30.1130   -9.5890   44.5830 C.3       3 GLC5        0.0000 
     24 CA        -29.6080   -9.1110   42.8670 C.3       9 GLL5        0.0000 
     25 CA        -31.3985   -8.4295   43.0380 C.3       3 GLC5        0.0000 
     26 CA        -33.1890   -7.7480   43.2090 C.3       6 GLP5        0.0000 
     27 N         -28.3665   -6.8890   42.0810 N.am      2 SEC2        0.0000 
     28 N         -27.9760   -7.9640   41.3890 N.am      8 SEL2        0.0000 
     29 N         -28.7570   -5.8140   42.7730 N.am      5 SEP2        0.0000 
     30 CA        -26.6140   -7.6335   38.3395 C.3       3 GLC5        0.0000 
     31 CA        -27.0070   -7.9400   40.4600 C.3       9 GLL5        0.0000 
     32 CA        -26.2210   -7.3270   36.2190 C.3       6 GLP5        0.0000 
     33 CA        -25.1745   -8.5570   40.2365 C.3       3 GLC5        0.0000 
     34 CA        -23.3420   -9.1740   40.0130 C.3       6 GLP5        0.0000 
     35 CA        -26.1615   -7.4110   42.0900 C.3       3 GLC5        0.0000 
     36 CA        -28.5065   -7.7180   39.5955 C.3       3 GLC5        0.0000 
     37 CA        -30.0060   -7.4960   38.7310 C.3       6 GLP5        0.0000 
     38 O         -27.2130   -5.5500   40.7285 O.2       1 ALC1        0.0000 
     39 O         -26.5130   -6.7690   40.0630 O.2       7 ALL1        0.0000 
     40 O         -27.9130   -4.3310   41.3940 O.2       4 ALP1        0.0000 
     41 CA        -26.7690   -9.5520   38.2405 C.3       3 GLC5        0.0000 
     42 CA        -27.0270  -10.2730   40.3060 C.3       9 GLL5        0.0000 
     43 CA        -26.5110   -8.8310   36.1750 C.3       6 GLP5        0.0000 
     44 CA        -25.1845   -9.7235   40.1595 C.3       3 GLC5        0.0000 
     45 CA        -28.5165   -8.8845   39.5185 C.3       3 GLC5        0.0000 
     46 O         -25.4520  -11.1430   38.9400 O.2       1 ALC1        0.0000 
     47 O         -26.5430  -11.3900   39.7720 O.2       7 ALL1        0.0000 
     48 O         -24.3610  -10.8960   38.1080 O.2       4 ALP1        0.0000 
     49 CA        -35.4168   -9.0218   45.1230 C.3       3 GLC5        0.0000 
     50 CA        -35.4680   -7.0610   44.0860 C.3       6 GLP5        0.0000 
     51 CA        -31.7500  -11.5960   45.6653 C.3       3 GLC5        0.0000 
     52 CA        -33.3820  -12.7740   44.6960 C.3       9 GLL5        0.0000 
     53 CA        -33.0480  -14.3995   43.4977 C.3       3 GLC5        0.0000 
     54 CA        -32.1570  -14.6458   43.0030 C.3       3 GLC5        0.0000 
     55 CA        -32.0090  -12.7310   42.7010 C.3       9 GLL5        0.0000 
     56 CA        -32.2980  -14.9253   44.0035 C.3       3 GLC5        0.0000 
     57 CA        -28.6268  -15.8938   42.2682 C.3       3 GLC5        0.0000 
     58 CA        -28.0180  -17.6310   41.4400 C.3       6 GLP5        0.0000 
     59 CA        -31.0207  -15.1833   43.0328 C.3       3 GLC5        0.0000 
     60 CA        -29.5068  -12.1880   40.2582 C.3       3 GLC5        0.0000 
     61 CA        -29.0800  -12.5850   42.1130 C.3       9 GLL5        0.0000 
     62 CA        -30.1820  -12.3020   38.6050 C.3       6 GLP5        0.0000 
     63 CA        -29.4721   -8.4560   40.4669 C.3       3 GLC5        0.0000 
     64 CA        -28.0330  -10.3190   41.2700 C.3       9 GLL5        0.0000 
@<TRIPOS>BOND
@<TRIPOS>SUBSTRUCTURE
     1 ALC1       38 GROUP        1 X    ALC  0     ROOT ALC X 1
     2 SEC2       27 GROUP        1 X    SEC  0     **** SEC X 2
     3 GLC5        1 GROUP        1 X    GLC  0     **** GLC X 6
     4 ALP1       40 GROUP        1 Y    ALP  0     ROOT ALP Y 8
     5 SEP2       29 GROUP        1 Y    SEP  0     **** SEP Y 9
     6 GLP5        3 GROUP        1 Y    GLP  0     **** GLP Y 13
     7 ALL1       39 GROUP        1 Z    ALL  0     ROOT ALL Z 15
     8 SEL2       28 GROUP        1 Z    SEL  0     **** SEL Z 16
     9 GLL5        2 GROUP        1 Z    GLL  0     **** GLL Z 20
@<TRIPOS>SET

