#    Name: 3fqz_11F_1_ligand
#    Modification time : Tue Mar 25 06:17:36 2014

@<TRIPOS>MOLECULE
3fqz_11F_1_ligand
   49    51     1     0     0
SMALL
NO_CHARGES


@<TRIPOS>ATOM
      1 C1K       -34.7730  -11.1450   45.8270 C.ar      1 11F219      0.0000 
      2 C1I       -35.9580  -10.8200   46.4930 C.ar      1 11F219      0.0000 
      3 C1H       -36.9320  -11.7980   46.6930 C.ar      1 11F219      0.0000 
      4 C1J       -36.7250  -13.1000   46.2330 C.ar      1 11F219      0.0000 
      5 C1L       -35.5420  -13.4260   45.5680 C.ar      1 11F219      0.0000 
      6 C1V       -34.5630  -12.4480   45.3660 C.ar      1 11F219      0.0000 
      7 C1Z       -33.3820  -12.7740   44.6960 C.ar      1 11F219      0.0000 
      8 C1Y       -33.1980  -12.4040   43.3570 C.ar      1 11F219      0.0000 
      9 C1O       -32.0090  -12.7310   42.7010 C.ar      1 11F219      0.0000 
     10 O1R       -34.1650  -11.7100   42.6830 O.3       1 11F219      0.0000 
     11 C1A       -35.0670  -12.5930   41.9800 C.3       1 11F219      0.0000 
     12 C1N       -32.3820  -13.4760   45.3670 C.ar      1 11F219      0.0000 
     13 C1M       -31.1980  -13.8050   44.7090 C.ar      1 11F219      0.0000 
     14 C1W       -31.0070  -13.4320   43.3730 C.ar      1 11F219      0.0000 
     15 C2A       -29.7160  -13.8000   42.6280 C.3       1 11F219      0.0000 
     16 C1C       -28.7550  -14.5130   43.5650 C.3       1 11F219      0.0000 
     17 C1G       -29.0800  -12.5850   42.1130 C.1       1 11F219      0.0000 
     18 C1F       -28.5830  -11.5630   41.7100 C.1       1 11F219      0.0000 
     19 C5        -28.0330  -10.3190   41.2700 C.ar      1 11F219      0.0000 
     20 C6        -28.5040   -9.1230   41.8070 C.ar      1 11F219      0.0000 
     21 C1B       -29.6080   -9.1110   42.8670 C.3       1 11F219      0.0000 
     22 N1        -27.9760   -7.9640   41.3890 N.ar      1 11F219      0.0000 
     23 C2        -27.0070   -7.9400   40.4600 C.ar      1 11F219      0.0000 
     24 N1D       -26.5130   -6.7690   40.0630 N.pl3     1 11F219      0.0000 
     25 N3        -26.5430   -9.0810   39.9220 N.ar      1 11F219      0.0000 
     26 C4        -27.0270  -10.2730   40.3060 C.ar      1 11F219      0.0000 
     27 N1E       -26.5430  -11.3900   39.7720 N.pl3     1 11F219      0.0000 
     28 H         -34.0559  -10.4263   45.6761 H         1 11F219      0.0000 
     29 H         -36.1096   -9.8648   46.8331 H         1 11F219      0.0000 
     30 H         -37.8053  -11.5603   47.1805 H         1 11F219      0.0000 
     31 H         -37.4435  -13.8177   46.3841 H         1 11F219      0.0000 
     32 H         -35.3897  -14.3813   45.2274 H         1 11F219      0.0000 
     33 H         -31.8724  -12.4543   41.7207 H         1 11F219      0.0000 
     34 H         -32.5178  -13.7513   46.3477 H         1 11F219      0.0000 
     35 H         -30.4611  -14.3230   45.2037 H         1 11F219      0.0000 
     36 H         -29.9678  -14.4629   41.8201 H         1 11F219      0.0000 
     37 H         -25.7614   -6.8090   39.4046 H         1 11F219      0.0000 
     38 H         -26.9381   -5.9551   40.4590 H         1 11F219      0.0000 
     39 H         -27.1825  -12.1552   39.6976 H         1 11F219      0.0000 
     40 H         -25.5831  -11.3643   39.4928 H         1 11F219      0.0000 
     41 H         -34.5867  -13.1556   41.3071 H         1 11F219      0.0000 
     42 H         -35.5358  -13.2184   42.6038 H         1 11F219      0.0000 
     43 H         -35.7741  -12.0860   41.4871 H         1 11F219      0.0000 
     44 H         -27.9035  -14.7628   43.1040 H         1 11F219      0.0000 
     45 H         -28.5078  -13.9423   44.3481 H         1 11F219      0.0000 
     46 H         -29.1492  -15.3565   43.9298 H         1 11F219      0.0000 
     47 H         -29.3383   -9.6112   43.6898 H         1 11F219      0.0000 
     48 H         -29.8391   -8.1808   43.1520 H         1 11F219      0.0000 
     49 H         -30.4503   -9.5323   42.5308 H         1 11F219      0.0000 
@<TRIPOS>BOND
     1    2    1 ar   
     2    6    1 ar   
     3   28    1 1    
     4    3    2 ar   
     5   29    2 1    
     6    4    3 ar   
     7   30    3 1    
     8    5    4 ar   
     9   31    4 1    
    10    6    5 ar   
    11   32    5 1    
    12    7    6 1    
    13    8    7 ar   
    14   12    7 ar   
    15    9    8 ar   
    16   10    8 1    
    17   14    9 ar   
    18   33    9 1    
    19   11   10 1    
    20   41   11 1    
    21   42   11 1    
    22   43   11 1    
    23   13   12 ar   
    24   34   12 1    
    25   14   13 ar   
    26   35   13 1    
    27   15   14 1    
    28   16   15 1    
    29   17   15 1    
    30   36   15 1    
    31   44   16 1    
    32   45   16 1    
    33   46   16 1    
    34   18   17 3    
    35   19   18 1    
    36   20   19 ar   
    37   26   19 ar   
    38   21   20 1    
    39   22   20 ar   
    40   47   21 1    
    41   48   21 1    
    42   49   21 1    
    43   23   22 ar   
    44   24   23 1    
    45   25   23 ar   
    46   37   24 1    
    47   38   24 1    
    48   26   25 ar   
    49   27   26 1    
    50   39   27 1    
    51   40   27 1    
@<TRIPOS>SUBSTRUCTURE
     1 11F219      1 GROUP   
@<TRIPOS>SET

