#    Name: 4njg_SAM_3_INTS_M
#    Modification time : Tue Mar 25 13:11:47 2014

@<TRIPOS>MOLECULE
4njg_SAM_3_INTS_M
   69     0    15     0     0
SMALL
NO_CHARGES


@<TRIPOS>ATOM
      1 OD1        20.3465   85.4580    7.1865 O.co2     3 ASC3        0.0000 
      2 OD1        19.6670   83.7100    7.3990 O.co2    13 ASL3        0.0000 
      3 OD1        21.0260   87.2060    6.9740 O.co2     8 ASP3        0.0000 
      4 CA         18.4215   86.7525    8.0455 C.3       5 GLC5        0.0000 
      5 CA         18.6490   84.6820    7.8480 C.3      15 GLL5        0.0000 
      6 CA         18.1940   88.8230    8.2430 C.3      10 GLP5        0.0000 
      7 CA         20.1650   85.4925    9.1630 C.3       5 GLC5        0.0000 
      8 CA         21.6810   86.3030   10.4780 C.3      10 GLP5        0.0000 
      9 NZ         19.1860   83.7755   11.3510 N.4       4 LYC4        0.0000 
     10 NZ         19.0010   83.8290   10.0810 N.4      14 LYL4        0.0000 
     11 NZ         19.3710   83.7220   12.6210 N.4       9 LYP4        0.0000 
     12 N          19.1860   83.7755   11.3510 N.am      2 SEC2        0.0000 
     13 N          19.0010   83.8290   10.0810 N.am     12 SEL2        0.0000 
     14 N          19.3710   83.7220   12.6210 N.am      7 SEP2        0.0000 
     15 NZ         18.4065   84.5595   11.2175 N.4       4 LYC4        0.0000 
     16 NZ         17.4420   85.3970    9.8140 N.4      14 LYL4        0.0000 
     17 CA         18.0510   85.8635    5.5115 C.3       5 GLC5        0.0000 
     18 CA         17.2940   84.4880    7.1160 C.3      15 GLL5        0.0000 
     19 CA         18.8080   87.2390    3.9070 C.3      10 GLP5        0.0000 
     20 CA         15.6110   85.6600    7.1510 C.3       5 GLC5        0.0000 
     21 CA         13.9280   86.8320    7.1860 C.3      10 GLP5        0.0000 
     22 CA         17.2575   82.9660    4.5375 C.3       5 GLC5        0.0000 
     23 CA         17.0090   83.0220    6.7130 C.3      15 GLL5        0.0000 
     24 CA         17.5060   82.9100    2.3620 C.3      10 GLP5        0.0000 
     25 CA         17.9620   78.9400    7.5820 C.3       5 GLC5        0.0000 
     26 CA         16.5010   80.4540    7.3800 C.3      15 GLL5        0.0000 
     27 CA         19.4230   77.4260    7.7840 C.3      10 GLP5        0.0000 
     28 CA         16.4290   78.8110    6.3915 C.3       5 GLC5        0.0000 
     29 CA         16.3570   77.1680    5.4030 C.3      10 GLP5        0.0000 
     30 O          15.4985   84.3420   12.8890 O.2       1 ALC1        0.0000 
     31 O          14.5450   83.9540   11.6990 O.2      11 ALL1        0.0000 
     32 O          16.4520   84.7300   14.0790 O.2       6 ALP1        0.0000 
     33 CA         18.0975   82.2620   12.2130 C.3       5 GLC5        0.0000 
     34 CA         15.9870   81.9990   11.5240 C.3      15 GLL5        0.0000 
     35 CA         20.2080   82.5250   12.9020 C.3      10 GLP5        0.0000 
     36 N          17.8915   83.0390   12.7270 N.am      2 SEC2        0.0000 
     37 N          16.4120   82.3560   12.8330 N.am     12 SEL2        0.0000 
     38 O          16.4320   83.5430   13.4560 O.2       1 ALC1        0.0000 
     39 O          16.4120   82.3560   12.8330 O.2      11 ALL1        0.0000 
     40 CA         15.9405   75.7940   15.2495 C.3       5 GLC5        0.0000 
     41 CA         15.2240   76.4080   13.2170 C.3      15 GLL5        0.0000 
     42 CA         16.6570   75.1800   17.2820 C.3      10 GLP5        0.0000 
     43 CA         13.7300   74.9600   13.6140 C.3       5 GLC5        0.0000 
     44 CA         12.2360   73.5120   14.0110 C.3      10 GLP5        0.0000 
     45 O          17.2285   75.1140   12.9015 O.2       1 ALC1        0.0000 
     46 O          15.8830   75.2480   13.1710 O.2      11 ALL1        0.0000 
     47 O          18.5740   74.9800   12.6320 O.2       6 ALP1        0.0000 
     48 O          15.5335   73.9265   14.0775 O.2       1 ALC1        0.0000 
     49 O          15.1840   72.6050   14.9840 O.2       6 ALP1        0.0000 
     50 N          13.8070   75.5295   14.9840 N.am      2 SEC2        0.0000 
     51 N          14.1800   76.5250   14.0690 N.am     12 SEL2        0.0000 
     52 N          13.4340   74.5340   15.8990 N.am      7 SEP2        0.0000 
     53 CA         14.7015   78.5090   15.5890 C.3       5 GLC5        0.0000 
     54 CA         13.5200   77.6850   14.1210 C.3      15 GLL5        0.0000 
     55 CA         15.8830   79.3330   17.0570 C.3      10 GLP5        0.0000 
     56 CA         12.0830   79.1540   14.9755 C.3       5 GLC5        0.0000 
     57 CA         10.6460   80.6230   15.8300 C.3      10 GLP5        0.0000 
     58 CA         13.8930   76.8475   15.8760 C.3       5 GLC5        0.0000 
     59 CA         14.2660   76.0100   17.6310 C.3      10 GLP5        0.0000 
     60 CA         12.8780   75.5985   14.0660 C.3       5 GLC5        0.0000 
     61 N          12.5945   79.7250   13.4875 N.am      2 SEC2        0.0000 
     62 N          13.7410   78.8070   13.4310 N.am     12 SEL2        0.0000 
     63 N          11.4480   80.6430   13.5440 N.am      7 SEP2        0.0000 
     64 CA         14.9935   79.9640   14.1115 C.3       5 GLC5        0.0000 
     65 CA         14.7800   78.6630   12.5980 C.3      15 GLL5        0.0000 
     66 CA         15.2070   81.2650   15.6250 C.3      10 GLP5        0.0000 
     67 CA         16.0697   84.2368   12.2185 C.3       5 GLC5        0.0000 
     68 CA         16.4960   85.8960   13.2770 C.3      10 GLP5        0.0000 
     69 CA         15.3140   81.3773   13.5858 C.3       5 GLC5        0.0000 
@<TRIPOS>BOND
@<TRIPOS>SUBSTRUCTURE
     1 ALC1       30 GROUP        1 X    ALC  0     ROOT ALC X 1
     2 SEC2       12 GROUP        1 X    SEC  0     **** SEC X 2
     3 ASC3        1 GROUP        1 X    ASC  0     **** ASC X 3
     4 LYC4        9 GROUP        1 X    LYC  0     **** LYC X 4
     5 GLC5        4 GROUP        1 X    GLC  0     **** GLC X 6
     6 ALP1       32 GROUP        1 Y    ALP  0     ROOT ALP Y 8
     7 SEP2       14 GROUP        1 Y    SEP  0     **** SEP Y 9
     8 ASP3        3 GROUP        1 Y    ASP  0     **** ASP Y 10
     9 LYP4       11 GROUP        1 Y    LYP  0     **** LYP Y 11
    10 GLP5        6 GROUP        1 Y    GLP  0     **** GLP Y 13
    11 ALL1       31 GROUP        1 Z    ALL  0     ROOT ALL Z 15
    12 SEL2       13 GROUP        1 Z    SEL  0     **** SEL Z 16
    13 ASL3        2 GROUP        1 Z    ASL  0     **** ASL Z 17
    14 LYL4       10 GROUP        1 Z    LYL  0     **** LYL Z 18
    15 GLL5        5 GROUP        1 Z    GLL  0     **** GLL Z 20
@<TRIPOS>SET

