#    Name: 4njg_SAM_3_ligand
#    Modification time : Tue Mar 25 13:11:47 2014

@<TRIPOS>MOLECULE
4njg_SAM_3_ligand
   50    52     1     0     0
SMALL
NO_CHARGES


@<TRIPOS>ATOM
      1 N          19.6670   83.7100    7.3990 N.4       1 SAM302      0.0000 
      2 CA         18.6490   84.6820    7.8480 C.3       1 SAM302      0.0000 
      3 C          18.3360   84.6310    9.3880 C.2       1 SAM302      0.0000 
      4 O          19.0010   83.8290   10.0810 O.co2     1 SAM302      0.0000 
      5 OXT        17.4420   85.3970    9.8140 O.co2     1 SAM302      0.0000 
      6 CB         17.2940   84.4880    7.1160 C.3       1 SAM302      0.0000 
      7 CG         17.0090   83.0220    6.7130 C.3       1 SAM302      0.0000 
      8 SD         16.6100   82.0260    8.1240 S.3       1 SAM302      0.0000 
      9 CE         16.5010   80.4540    7.3800 C.3       1 SAM302      0.0000 
     10 C5'        14.8720   82.4190    8.3440 C.3       1 SAM302      0.0000 
     11 C4'        14.3700   82.4390    9.8130 C.3       1 SAM302      0.0000 
     12 O4'        14.1990   81.0940   10.3210 O.3       1 SAM302      0.0000 
     13 C3'        15.3000   83.1560   10.7960 C.3       1 SAM302      0.0000 
     14 O3'        14.5450   83.9540   11.6990 O.3       1 SAM302      0.0000 
     15 C2'        15.9870   81.9990   11.5240 C.3       1 SAM302      0.0000 
     16 O2'        16.4120   82.3560   12.8330 O.3       1 SAM302      0.0000 
     17 C1'        14.8550   80.9800   11.5690 C.3       1 SAM302      0.0000 
     18 N9         15.3020   79.6030   11.7430 N.pl3     1 SAM302      0.0000 
     19 C8         16.3470   78.9860   11.1060 C.2       1 SAM302      0.0000 
     20 N7         16.5420   77.7450   11.4800 N.2       1 SAM302      0.0000 
     21 C5         15.5540   77.5280   12.4300 C.ar      1 SAM302      0.0000 
     22 C6         15.2240   76.4080   13.2170 C.ar      1 SAM302      0.0000 
     23 N6         15.8830   75.2480   13.1710 N.pl3     1 SAM302      0.0000 
     24 N1         14.1800   76.5250   14.0690 N.ar      1 SAM302      0.0000 
     25 C2         13.5200   77.6850   14.1210 C.ar      1 SAM302      0.0000 
     26 N3         13.7410   78.8070   13.4310 N.ar      1 SAM302      0.0000 
     27 C4         14.7800   78.6630   12.5980 C.ar      1 SAM302      0.0000 
     28 H          18.9689   85.7070    7.6338 H         1 SAM302      0.0000 
     29 H          17.2895   85.1116    6.2140 H         1 SAM302      0.0000 
     30 H          16.4876   84.8396    7.7706 H         1 SAM302      0.0000 
     31 H          17.8646   82.5381    6.2966 H         1 SAM302      0.0000 
     32 H          16.1490   82.9292    6.0875 H         1 SAM302      0.0000 
     33 H          14.3741   81.6635    7.7479 H         1 SAM302      0.0000 
     34 H          14.7779   83.3851    7.8624 H         1 SAM302      0.0000 
     35 H          13.4072   82.9539    9.8358 H         1 SAM302      0.0000 
     36 H          16.0240   83.6834   10.2438 H         1 SAM302      0.0000 
     37 H          16.7439   81.6186   10.8956 H         1 SAM302      0.0000 
     38 H          14.1833   81.2691   12.3640 H         1 SAM302      0.0000 
     39 H          16.8970   79.4695   10.4169 H         1 SAM302      0.0000 
     40 H          16.6325   75.1936   12.5113 H         1 SAM302      0.0000 
     41 H          15.5679   74.5377   13.8004 H         1 SAM302      0.0000 
     42 H          12.6733   77.7215   14.8341 H         1 SAM302      0.0000 
     43 H          20.4553   84.1633    6.9829 H         1 SAM302      0.0000 
     44 H          20.0131   83.1576    8.1574 H         1 SAM302      0.0000 
     45 H          19.3003   83.0761    6.7181 H         1 SAM302      0.0000 
     46 H          17.3987   80.1107    7.1039 H         1 SAM302      0.0000 
     47 H          16.1060   79.7762    8.0001 H         1 SAM302      0.0000 
     48 H          15.9285   80.4700    6.5602 H         1 SAM302      0.0000 
     49 H          15.1789   84.1766   12.4396 H         1 SAM302      0.0000 
     50 H          16.2538   83.3414   12.8966 H         1 SAM302      0.0000 
@<TRIPOS>BOND
     1    2    1 1    
     2   43    1 1    
     3   44    1 1    
     4   45    1 1    
     5    3    2 1    
     6    6    2 1    
     7   28    2 1    
     8    4    3 ar   
     9    5    3 ar   
    10    7    6 1    
    11   29    6 1    
    12   30    6 1    
    13    8    7 1    
    14   31    7 1    
    15   32    7 1    
    16    9    8 1    
    17   10    8 1    
    18   46    9 1    
    19   47    9 1    
    20   48    9 1    
    21   11   10 1    
    22   33   10 1    
    23   34   10 1    
    24   12   11 1    
    25   13   11 1    
    26   35   11 1    
    27   17   12 1    
    28   14   13 1    
    29   15   13 1    
    30   36   13 1    
    31   49   14 1    
    32   16   15 1    
    33   17   15 1    
    34   37   15 1    
    35   50   16 1    
    36   18   17 1    
    37   38   17 1    
    38   19   18 1    
    39   27   18 1    
    40   20   19 2    
    41   39   19 1    
    42   21   20 1    
    43   22   21 ar   
    44   27   21 ar   
    45   23   22 1    
    46   24   22 ar   
    47   40   23 1    
    48   41   23 1    
    49   25   24 ar   
    50   26   25 ar   
    51   42   25 1    
    52   27   26 ar   
@<TRIPOS>SUBSTRUCTURE
     1 SAM302      1 GROUP   
@<TRIPOS>SET

