#    Name: 1g28_FMN_1_INTS_M
#    Modification time : Tue Mar 25 02:23:00 2014

@<TRIPOS>MOLECULE
1g28_FMN_1_INTS_M
   73     0    12     0     0
SMALL
NO_CHARGES


@<TRIPOS>ATOM
      1 N          -6.1815   56.4580   -4.4345 N.am      2 SEC2        0.0000 
      2 N          -6.3480   55.6680   -3.1240 N.am     10 SEL2        0.0000 
      3 N          -6.0150   57.2480   -5.7450 N.am      6 SEP2        0.0000 
      4 O          -4.1720   55.4785   -4.4535 O.2       1 ALC1        0.0000 
      5 O          -4.2490   54.8650   -3.1780 O.2       9 ALL1        0.0000 
      6 O          -4.0950   56.0920   -5.7290 O.2       5 ALP1        0.0000 
      7 CA         -1.3250   47.9325    3.7030 C.3       4 GLC5        0.0000 
      8 CA         -0.9350   49.3170    2.4560 C.3      12 GLL5        0.0000 
      9 CA         -1.7150   46.5480    4.9500 C.3       8 GLP5        0.0000 
     10 CA          0.2450   47.5440    2.0480 C.3       4 GLC5        0.0000 
     11 CA          1.4250   45.7710    1.6400 C.3       8 GLP5        0.0000 
     12 CA         -5.6645   48.8880    3.6505 C.3       4 GLC5        0.0000 
     13 CA         -3.6220   49.4250    3.7430 C.3      12 GLL5        0.0000 
     14 CA         -7.7070   48.3510    3.5580 C.3       8 GLP5        0.0000 
     15 CA         -2.6685   47.9865    4.3465 C.3       4 GLC5        0.0000 
     16 CA         -3.3285   53.5060    1.1670 C.3       4 GLC5        0.0000 
     17 CA         -4.1440   51.8520    0.8320 C.3      12 GLL5        0.0000 
     18 CA         -2.5130   55.1600    1.5020 C.3       8 GLP5        0.0000 
     19 CA         -7.4340   51.5280    0.2180 C.3       4 GLC5        0.0000 
     20 CA         -6.5030   52.7680    0.8440 C.3      12 GLL5        0.0000 
     21 CA         -8.3650   50.2880   -0.4080 C.3       8 GLP5        0.0000 
     22 CA         -4.6175   54.5380    1.6615 C.3       4 GLC5        0.0000 
     23 CA         -6.7220   53.9160    1.8210 C.3      12 GLL5        0.0000 
     24 CA         -6.4065   56.0000    1.6535 C.3       4 GLC5        0.0000 
     25 CA         -6.0910   58.0840    1.4860 C.3       8 GLP5        0.0000 
     26 O          -5.5820   55.0665    3.6845 O.2       1 ALC1        0.0000 
     27 O          -5.6690   54.0740    2.7580 O.2       9 ALL1        0.0000 
     28 O          -5.4950   56.0590    4.6110 O.2       5 ALP1        0.0000 
     29 CA         -8.8200   52.1080    0.6940 C.3       4 GLC5        0.0000 
     30 CA         -9.2750   53.9280    1.7960 C.3      12 GLL5        0.0000 
     31 N          -9.3465   55.8285   -0.1905 N.am      2 SEC2        0.0000 
     32 N          -9.2790   55.2990    1.3280 N.am     10 SEL2        0.0000 
     33 N          -9.4140   56.3580   -1.7090 N.am      6 SEP2        0.0000 
     34 CA        -11.9360   52.2895    2.5735 C.3       4 GLC5        0.0000 
     35 CA        -10.6010   53.6900    2.5270 C.3      12 GLL5        0.0000 
     36 CA        -13.2710   50.8890    2.6200 C.3       8 GLP5        0.0000 
     37 NZ         -9.5650   57.3085    4.4460 N.4       3 LYC4        0.0000 
     38 NZ        -10.3450   56.5510    3.7320 N.4      11 LYL4        0.0000 
     39 NZ         -8.2620   57.8530    6.3660 N.4       7 LYP4        0.0000 
     40 N          -9.5650   57.3085    4.4460 N.am      2 SEC2        0.0000 
     41 N         -10.3450   56.5510    3.7320 N.am     10 SEL2        0.0000 
     42 N          -8.7850   58.0660    5.1600 N.am      6 SEP2        0.0000 
     43 NZ         -9.5980   56.1145    6.5245 N.4       3 LYC4        0.0000 
     44 NZ        -10.6140   55.4660    6.0040 N.4      11 LYL4        0.0000 
     45 N          -9.6995   56.7660    5.5820 N.am      2 SEC2        0.0000 
     46 N         -10.6140   55.4660    6.0040 N.am     10 SEL2        0.0000 
     47 N          -9.5980   56.1145    6.5245 N.am      2 SEC2        0.0000 
     48 N          -8.5820   56.7630    7.0450 N.am      6 SEP2        0.0000 
     49 NZ        -13.4990   55.2885    3.2685 N.4       3 LYC4        0.0000 
     50 NZ        -12.5400   55.3990    4.3040 N.4      11 LYL4        0.0000 
     51 NZ        -14.8000   53.9680    2.6530 N.4       7 LYP4        0.0000 
     52 N         -13.4305   54.4550    4.0545 N.am      2 SEC2        0.0000 
     53 N         -12.5400   55.3990    4.3040 N.am     10 SEL2        0.0000 
     54 N         -14.3210   53.5110    3.8050 N.am      6 SEP2        0.0000 
     55 N         -13.4990   55.2885    3.2685 N.am      2 SEC2        0.0000 
     56 N         -14.4580   55.1780    2.2330 N.am      6 SEP2        0.0000 
     57 CA         -1.2332   49.5083    4.1230 C.3       4 GLC5        0.0000 
     58 CA         -2.0260   50.2140    1.8600 C.3      12 GLL5        0.0000 
     59 CA         -0.9860   49.2510    6.0880 C.3       8 GLP5        0.0000 
     60 CA         -1.5336   52.6276    1.3896 C.3       4 GLC5        0.0000 
     61 CA         -0.8860   54.4460    1.6200 C.3       8 GLP5        0.0000 
     62 CA         -2.6117   48.1273    1.6395 C.3       4 GLC5        0.0000 
     63 CA         -3.7430   46.4890    1.1210 C.3       8 GLP5        0.0000 
     64 CA          0.2155   50.9149    1.3369 C.3       4 GLC5        0.0000 
     65 CA          1.8610   51.8740    0.7930 C.3       8 GLP5        0.0000 
     66 CA         -0.6195   49.0484    0.4414 C.3       4 GLC5        0.0000 
     67 CA         -1.8240   50.9750    0.7510 C.3      12 GLL5        0.0000 
     68 CA          0.1910   48.1410   -0.9980 C.3       8 GLP5        0.0000 
     69 CA         -2.2332   49.5427    4.6095 C.3       4 GLC5        0.0000 
     70 CA         -3.3390   50.2440    2.5190 C.3      12 GLL5        0.0000 
     71 CA         -3.6117   48.1617    2.1260 C.3       4 GLC5        0.0000 
     72 CA        -10.9815   54.3555    0.7203 C.3       4 GLC5        0.0000 
     73 CA        -12.0250   54.9020   -0.7210 C.3       8 GLP5        0.0000 
@<TRIPOS>BOND
@<TRIPOS>SUBSTRUCTURE
     1 ALC1        4 GROUP        1 X    ALC  0     ROOT ALC X 1
     2 SEC2        1 GROUP        1 X    SEC  0     **** SEC X 2
     3 LYC4       37 GROUP        1 X    LYC  0     **** LYC X 4
     4 GLC5        7 GROUP        1 X    GLC  0     **** GLC X 6
     5 ALP1        6 GROUP        1 Y    ALP  0     ROOT ALP Y 8
     6 SEP2        3 GROUP        1 Y    SEP  0     **** SEP Y 9
     7 LYP4       39 GROUP        1 Y    LYP  0     **** LYP Y 11
     8 GLP5        9 GROUP        1 Y    GLP  0     **** GLP Y 13
     9 ALL1        5 GROUP        1 Z    ALL  0     ROOT ALL Z 15
    10 SEL2        2 GROUP        1 Z    SEL  0     **** SEL Z 16
    11 LYL4       38 GROUP        1 Z    LYL  0     **** LYL Z 18
    12 GLL5        8 GROUP        1 Z    GLL  0     **** GLL Z 20
@<TRIPOS>SET

