#    Name: 1g28_FMN_1_ligand
#    Modification time : Tue Mar 25 02:23:00 2014

@<TRIPOS>MOLECULE
1g28_FMN_1_ligand
   50    52     1     0     0
SMALL
NO_CHARGES


@<TRIPOS>ATOM
      1 N1         -5.8250   54.2220   -1.4540 N.2       1 FMN1033     0.0000 
      2 C2         -5.5550   54.9510   -2.5860 C.2       1 FMN1033     0.0000 
      3 O2         -6.3480   55.6680   -3.1240 O.2       1 FMN1033     0.0000 
      4 N3         -4.2490   54.8650   -3.1780 N.am      1 FMN1033     0.0000 
      5 C4         -3.2260   54.1090   -2.7050 C.2       1 FMN1033     0.0000 
      6 O4         -2.1300   54.0940   -3.2780 O.2       1 FMN1033     0.0000 
      7 C4A        -3.5060   53.3320   -1.4960 C.2       1 FMN1033     0.0000 
      8 N5         -2.5620   52.5610   -0.9620 N.2       1 FMN1033     0.0000 
      9 C5A        -2.8490   51.8340    0.1660 C.ar      1 FMN1033     0.0000 
     10 C6         -1.8240   50.9750    0.7510 C.ar      1 FMN1033     0.0000 
     11 C7         -2.0260   50.2140    1.8600 C.ar      1 FMN1033     0.0000 
     12 C7M        -0.9350   49.3170    2.4560 C.3       1 FMN1033     0.0000 
     13 C8         -3.3390   50.2440    2.5190 C.ar      1 FMN1033     0.0000 
     14 C8M        -3.6220   49.4250    3.7430 C.3       1 FMN1033     0.0000 
     15 C9         -4.3270   51.0550    1.9780 C.ar      1 FMN1033     0.0000 
     16 C9A        -4.1440   51.8520    0.8320 C.ar      1 FMN1033     0.0000 
     17 N10        -5.1400   52.6950    0.2410 N.pl3     1 FMN1033     0.0000 
     18 C10        -4.8820   53.4470   -0.9120 C.2       1 FMN1033     0.0000 
     19 C1'        -6.5030   52.7680    0.8440 C.3       1 FMN1033     0.0000 
     20 C2'        -6.7220   53.9160    1.8210 C.3       1 FMN1033     0.0000 
     21 O2'        -5.6690   54.0740    2.7580 O.3       1 FMN1033     0.0000 
     22 C3'        -8.0220   53.6910    2.6150 C.3       1 FMN1033     0.0000 
     23 O3'        -8.0290   52.3190    3.1040 O.3       1 FMN1033     0.0000 
     24 C4'        -9.2750   53.9280    1.7960 C.3       1 FMN1033     0.0000 
     25 O4'        -9.2790   55.2990    1.3280 O.3       1 FMN1033     0.0000 
     26 C5'       -10.6010   53.6900    2.5270 C.3       1 FMN1033     0.0000 
     27 O5'       -10.4980   54.0390    3.9310 O.3       1 FMN1033     0.0000 
     28 P         -10.9790   55.4300    4.5440 P.3       1 FMN1033     0.0000 
     29 O1P       -10.3450   56.5510    3.7320 O.co2     1 FMN1033     0.0000 
     30 O2P       -10.6140   55.4660    6.0040 O.co2     1 FMN1033     0.0000 
     31 O3P       -12.5400   55.3990    4.3040 O.co2     1 FMN1033     0.0000 
     32 H          -4.1037   55.4505   -4.0534 H         1 FMN1033     0.0000 
     33 H          -0.8979   50.9728    0.2611 H         1 FMN1033     0.0000 
     34 H          -5.2697   51.0813    2.4453 H         1 FMN1033     0.0000 
     35 H          -6.7277   51.8139    1.3707 H         1 FMN1033     0.0000 
     36 H          -7.2631   52.8483    0.0353 H         1 FMN1033     0.0000 
     37 H          -6.8715   54.8314    1.2444 H         1 FMN1033     0.0000 
     38 H          -8.0204   54.3728    3.4588 H         1 FMN1033     0.0000 
     39 H          -9.2530   53.2655    0.9244 H         1 FMN1033     0.0000 
     40 H         -10.8703   52.6319    2.4003 H         1 FMN1033     0.0000 
     41 H         -11.3744   54.2888    2.0254 H         1 FMN1033     0.0000 
     42 H          -0.6251   48.6256    1.8034 H         1 FMN1033     0.0000 
     43 H          -0.1300   49.8433    2.7298 H         1 FMN1033     0.0000 
     44 H          -1.2570   48.8301    3.2680 H         1 FMN1033     0.0000 
     45 H          -3.5020   48.4472    3.5715 H         1 FMN1033     0.0000 
     46 H          -3.0148   49.6665    4.5000 H         1 FMN1033     0.0000 
     47 H          -4.5594   49.5529    4.0669 H         1 FMN1033     0.0000 
     48 H          -5.9220   54.8763    3.2987 H         1 FMN1033     0.0000 
     49 H          -7.4521   52.3325    3.9207 H         1 FMN1033     0.0000 
     50 H          -9.6409   55.8323    2.0926 H         1 FMN1033     0.0000 
@<TRIPOS>BOND
     1    2    1 1    
     2   18    1 2    
     3    3    2 2    
     4    4    2 am   
     5    5    4 am   
     6   32    4 1    
     7    6    5 2    
     8    7    5 1    
     9    8    7 2    
    10   18    7 1    
    11    9    8 1    
    12   10    9 ar   
    13   16    9 ar   
    14   11   10 ar   
    15   33   10 1    
    16   12   11 1    
    17   13   11 ar   
    18   42   12 1    
    19   43   12 1    
    20   44   12 1    
    21   14   13 1    
    22   15   13 ar   
    23   45   14 1    
    24   46   14 1    
    25   47   14 1    
    26   16   15 ar   
    27   34   15 1    
    28   17   16 1    
    29   18   17 1    
    30   19   17 1    
    31   20   19 1    
    32   35   19 1    
    33   36   19 1    
    34   21   20 1    
    35   22   20 1    
    36   37   20 1    
    37   48   21 1    
    38   23   22 1    
    39   24   22 1    
    40   38   22 1    
    41   49   23 1    
    42   25   24 1    
    43   26   24 1    
    44   39   24 1    
    45   50   25 1    
    46   27   26 1    
    47   40   26 1    
    48   41   26 1    
    49   28   27 1    
    50   29   28 ar   
    51   30   28 ar   
    52   31   28 ar   
@<TRIPOS>SUBSTRUCTURE
     1 FMN1033     1 GROUP   
@<TRIPOS>SET

