#    Name: 2qfx_NDP_2_INTS_M
#    Modification time : Mon Mar 24 21:57:35 2014

@<TRIPOS>MOLECULE
2qfx_NDP_2_INTS_M
   91     0    12     0     0
SMALL
NO_CHARGES


@<TRIPOS>ATOM
      1 N          78.6240  -23.3240  153.2470 N.am      2 SEC2        0.0000 
      2 N          77.8210  -22.4800  153.4250 N.am     10 SEL2        0.0000 
      3 N          79.4270  -24.1680  153.0690 N.am      6 SEP2        0.0000 
      4 N          80.0290  -20.6410  155.3060 N.am      2 SEC2        0.0000 
      5 N          79.0740  -20.4610  154.3810 N.am     10 SEL2        0.0000 
      6 N          80.9840  -20.8210  156.2310 N.am      6 SEP2        0.0000 
      7 CA         78.3210  -19.9475  156.3960 C.3       4 GLC5        0.0000 
      8 CA         76.4740  -19.7430  155.5420 C.3      12 GLL5        0.0000 
      9 CA         80.1680  -20.1520  157.2500 C.3       8 GLP5        0.0000 
     10 CA         75.1640  -16.5510  156.9910 C.3       4 GLC5        0.0000 
     11 CA         74.7700  -18.5760  157.0860 C.3      12 GLL5        0.0000 
     12 CA         75.5580  -14.5260  156.8960 C.3       8 GLP5        0.0000 
     13 N          72.2850  -17.6455  155.9990 N.am      2 SEC2        0.0000 
     14 N          73.4730  -17.9800  157.0030 N.am     10 SEL2        0.0000 
     15 N          71.0970  -17.3110  154.9950 N.am      6 SEP2        0.0000 
     16 N          73.9465  -17.0485  155.9235 N.am      2 SEC2        0.0000 
     17 N          74.4200  -16.1170  154.8440 N.am      6 SEP2        0.0000 
     18 CA         76.7285  -20.2680  158.6210 C.3       4 GLC5        0.0000 
     19 CA         74.7840  -19.7240  158.0960 C.3      12 GLL5        0.0000 
     20 CA         78.6730  -20.8120  159.1460 C.3       8 GLP5        0.0000 
     21 CA         75.8880  -18.9305  159.7500 C.3       4 GLC5        0.0000 
     22 CA         76.9920  -18.1370  161.4040 C.3       8 GLP5        0.0000 
     23 N          74.8645  -19.1585  160.4635 N.am      2 SEC2        0.0000 
     24 N          73.8730  -19.4910  159.1760 N.am     10 SEL2        0.0000 
     25 N          75.8560  -18.8260  161.7510 N.am      6 SEP2        0.0000 
     26 CA         73.7835  -22.2240  155.7985 C.3       4 GLC5        0.0000 
     27 CA         74.2590  -20.9200  157.2980 C.3      12 GLL5        0.0000 
     28 CA         73.3080  -23.5280  154.2990 C.3       8 GLP5        0.0000 
     29 CA         75.7620  -26.4550  159.2160 C.3       4 GLC5        0.0000 
     30 CA         76.7380  -24.5340  159.4160 C.3      12 GLL5        0.0000 
     31 CA         74.7860  -28.3760  159.0160 C.3       8 GLP5        0.0000 
     32 CA         78.2190  -24.1165  160.7480 C.3       4 GLC5        0.0000 
     33 CA         79.7000  -23.6990  162.0800 C.3       8 GLP5        0.0000 
     34 CA         76.2780  -25.9350  161.0840 C.3       4 GLC5        0.0000 
     35 CA         75.8180  -27.3360  162.7520 C.3       8 GLP5        0.0000 
     36 O          78.4435  -26.3575  158.2940 O.2       1 ALC1        0.0000 
     37 O          77.6700  -25.4620  159.2230 O.2       9 ALL1        0.0000 
     38 O          79.2170  -27.2530  157.3650 O.2       5 ALP1        0.0000 
     39 O          78.1565  -26.3970  160.4310 O.2       1 ALC1        0.0000 
     40 O          78.6430  -27.3320  161.6390 O.2       5 ALP1        0.0000 
     41 N          76.7305  -24.9060  162.0330 N.am      2 SEC2        0.0000 
     42 N          76.2110  -24.3420  160.6350 N.am     10 SEL2        0.0000 
     43 N          77.2500  -25.4700  163.4310 N.am      6 SEP2        0.0000 
     44 CA         76.7870  -23.3830  162.4810 C.3       4 GLC5        0.0000 
     45 CA         75.3120  -23.3980  160.8460 C.3      12 GLL5        0.0000 
     46 CA         78.2620  -23.3680  164.1160 C.3       8 GLP5        0.0000 
     47 CA         75.5650  -25.3670  161.7990 C.3       4 GLC5        0.0000 
     48 CA         73.6205  -23.9365  161.9265 C.3       4 GLC5        0.0000 
     49 CA         71.9290  -24.4750  163.0070 C.3       8 GLP5        0.0000 
     50 CA         81.3115  -17.2410  154.0040 C.3       4 GLC5        0.0000 
     51 CA         80.7650  -18.4880  152.4610 C.3      12 GLL5        0.0000 
     52 CA         81.8580  -15.9940  155.5470 C.3       8 GLP5        0.0000 
     53 CA         83.5465  -20.0420  152.7720 C.3       4 GLC5        0.0000 
     54 CA         82.1750  -18.8040  151.9550 C.3      12 GLL5        0.0000 
     55 CA         84.9180  -21.2800  153.5890 C.3       8 GLP5        0.0000 
     56 N          82.2255  -21.1315  152.9215 N.am      2 SEC2        0.0000 
     57 N          82.2210  -20.2280  151.7410 N.am     10 SEL2        0.0000 
     58 N          82.2300  -22.0350  154.1020 N.am      6 SEP2        0.0000 
     59 N          84.0845  -16.7400  151.4300 N.am      2 SEC2        0.0000 
     60 N          83.8340  -17.8510  150.4230 N.am     10 SEL2        0.0000 
     61 N          84.3350  -15.6290  152.4370 N.am      6 SEP2        0.0000 
     62 N          84.3450  -19.1805  148.0780 N.am      2 SEC2        0.0000 
     63 N          82.6620  -19.1280  148.3660 N.am     10 SEL2        0.0000 
     64 N          86.0280  -19.2330  147.7900 N.am      6 SEP2        0.0000 
     65 CA         84.6870  -19.9790  150.2220 C.3       4 GLC5        0.0000 
     66 CA         82.5510  -20.4730  150.3640 C.3      12 GLL5        0.0000 
     67 CA         86.8230  -19.4850  150.0800 C.3       8 GLP5        0.0000 
     68 CA         81.5975  -21.9345  151.6070 C.3       4 GLC5        0.0000 
     69 CA         80.6440  -23.3960  152.8500 C.3       8 GLP5        0.0000 
     70 CA         83.7345  -20.8765  151.9765 C.3       4 GLC5        0.0000 
     71 N          85.2330  -24.7355  150.6330 N.am      2 SEC2        0.0000 
     72 N          84.2090  -25.3500  149.6910 N.am     10 SEL2        0.0000 
     73 N          86.2570  -24.1210  151.5750 N.am      6 SEP2        0.0000 
     74 N          85.7835  -24.9055  149.3630 N.am      2 SEC2        0.0000 
     75 N          87.3580  -24.4610  149.0350 N.am      6 SEP2        0.0000 
     76 NZ         70.8400  -18.9560  158.3965 N.4       3 LYC4        0.0000 
     77 NZ         71.7720  -18.1410  158.5560 N.4      11 LYL4        0.0000 
     78 NZ         69.9080  -19.7710  158.2370 N.4       7 LYP4        0.0000 
     79 N          70.8400  -18.9560  158.3965 N.am      2 SEC2        0.0000 
     80 N          71.7720  -18.1410  158.5560 N.am     10 SEL2        0.0000 
     81 N          69.9080  -19.7710  158.2370 N.am      6 SEP2        0.0000 
     82 N          74.2595  -18.4555  161.3520 N.am      2 SEC2        0.0000 
     83 N          72.6630  -18.0850  160.9530 N.am     10 SEL2        0.0000 
     84 CA         77.3025  -25.6182  157.7527 C.3       4 GLC5        0.0000 
     85 CA         76.3180  -23.7190  158.3710 C.3      12 GLL5        0.0000 
     86 CA         78.0770  -27.1100  156.6120 C.3       8 GLP5        0.0000 
     87 CA         77.3127  -22.1214  158.9541 C.3       4 GLC5        0.0000 
     88 CA         81.5460  -23.4515  151.2350 C.3       4 GLC5        0.0000 
     89 CA         82.7290  -22.9080  149.8320 C.3      12 GLL5        0.0000 
     90 CA         80.5626  -23.0393  151.0681 C.3       4 GLC5        0.0000 
     91 CA         80.6850  -24.1860  149.0290 C.3      12 GLL5        0.0000 
@<TRIPOS>BOND
@<TRIPOS>SUBSTRUCTURE
     1 ALC1       36 GROUP        1 X    ALC  0     ROOT ALC X 1
     2 SEC2        1 GROUP        1 X    SEC  0     **** SEC X 2
     3 LYC4       76 GROUP        1 X    LYC  0     **** LYC X 4
     4 GLC5        7 GROUP        1 X    GLC  0     **** GLC X 6
     5 ALP1       38 GROUP        1 Y    ALP  0     ROOT ALP Y 8
     6 SEP2        3 GROUP        1 Y    SEP  0     **** SEP Y 9
     7 LYP4       78 GROUP        1 Y    LYP  0     **** LYP Y 11
     8 GLP5        9 GROUP        1 Y    GLP  0     **** GLP Y 13
     9 ALL1       37 GROUP        1 Z    ALL  0     ROOT ALL Z 15
    10 SEL2        2 GROUP        1 Z    SEL  0     **** SEL Z 16
    11 LYL4       77 GROUP        1 Z    LYL  0     **** LYL Z 18
    12 GLL5        8 GROUP        1 Z    GLL  0     **** GLL Z 20
@<TRIPOS>SET

