#    Name: 2qfx_NDP_2_ligand
#    Modification time : Mon Mar 24 21:57:36 2014

@<TRIPOS>MOLECULE
2qfx_NDP_2_ligand
   74    78     1     0     0
SMALL
NO_CHARGES


@<TRIPOS>ATOM
      1 PA         77.7890  -21.0080  153.5800 P.3       1 NDP1201     0.0000 
      2 O1A        77.8210  -22.4800  153.4250 O.co2     1 NDP1201     0.0000 
      3 O2A        79.0740  -20.4610  154.3810 O.co2     1 NDP1201     0.0000 
      4 O5B        76.4620  -20.5100  154.3380 O.3       1 NDP1201     0.0000 
      5 C5B        76.4740  -19.7430  155.5420 C.3       1 NDP1201     0.0000 
      6 C4B        75.0210  -19.3370  155.7860 C.3       1 NDP1201     0.0000 
      7 O4B        74.2060  -20.5120  155.9200 O.3       1 NDP1201     0.0000 
      8 C3B        74.7700  -18.5760  157.0860 C.3       1 NDP1201     0.0000 
      9 O3B        73.4730  -17.9800  157.0030 O.3       1 NDP1201     0.0000 
     10 C2B        74.7840  -19.7240  158.0960 C.3       1 NDP1201     0.0000 
     11 O2B        73.8730  -19.4910  159.1760 O.3       1 NDP1201     0.0000 
     12 C1B        74.2590  -20.9200  157.2980 C.3       1 NDP1201     0.0000 
     13 N9A        75.1590  -22.0830  157.4910 N.pl3     1 NDP1201     0.0000 
     14 C8A        75.9250  -22.6420  156.5570 C.2       1 NDP1201     0.0000 
     15 N7A        76.6350  -23.6390  157.0820 N.2       1 NDP1201     0.0000 
     16 C5A        76.3180  -23.7190  158.3710 C.ar      1 NDP1201     0.0000 
     17 C6A        76.7380  -24.5340  159.4160 C.ar      1 NDP1201     0.0000 
     18 N6A        77.6700  -25.4620  159.2230 N.pl3     1 NDP1201     0.0000 
     19 N1A        76.2110  -24.3420  160.6350 N.ar      1 NDP1201     0.0000 
     20 C2A        75.3120  -23.3980  160.8460 C.ar      1 NDP1201     0.0000 
     21 N3A        74.8950  -22.6030  159.8760 N.ar      1 NDP1201     0.0000 
     22 C4A        75.3770  -22.7350  158.6310 C.ar      1 NDP1201     0.0000 
     23 O3         77.7330  -20.2960  152.1360 O.3       1 NDP1201     0.0000 
     24 PN         78.2050  -18.7810  151.8600 P.3       1 NDP1201     0.0000 
     25 O1N        78.0740  -17.9680  153.2430 O.co2     1 NDP1201     0.0000 
     26 O2N        77.4330  -18.1540  150.7650 O.co2     1 NDP1201     0.0000 
     27 O5D        79.7730  -18.8870  151.5120 O.3       1 NDP1201     0.0000 
     28 C5D        80.7650  -18.4880  152.4610 C.3       1 NDP1201     0.0000 
     29 C4D        82.1750  -18.8040  151.9550 C.3       1 NDP1201     0.0000 
     30 O4D        82.2210  -20.2280  151.7410 O.3       1 NDP1201     0.0000 
     31 C3D        82.4470  -18.1550  150.5960 C.3       1 NDP1201     0.0000 
     32 O3D        83.8340  -17.8510  150.4230 O.3       1 NDP1201     0.0000 
     33 C2D        82.0030  -19.2510  149.6300 C.3       1 NDP1201     0.0000 
     34 O2D        82.6620  -19.1280  148.3660 O.3       1 NDP1201     0.0000 
     35 C1D        82.5510  -20.4730  150.3640 C.3       1 NDP1201     0.0000 
     36 N1N        81.9540  -21.7460  149.9030 N.pl3     1 NDP1201     0.0000 
     37 C2N        82.7290  -22.9080  149.8320 C.2       1 NDP1201     0.0000 
     38 C3N        82.1670  -24.1060  149.4080 C.2       1 NDP1201     0.0000 
     39 C7N        83.0320  -25.3660  149.3360 C.2       1 NDP1201     0.0000 
     40 O7N        84.2090  -25.3500  149.6910 O.2       1 NDP1201     0.0000 
     41 N7N        82.4220  -26.4520  148.8710 N.am      1 NDP1201     0.0000 
     42 C4N        80.6850  -24.1860  149.0290 C.3       1 NDP1201     0.0000 
     43 C5N        80.0160  -22.9700  149.0900 C.2       1 NDP1201     0.0000 
     44 C6N        80.6120  -21.7870  149.5130 C.2       1 NDP1201     0.0000 
     45 P2B        73.0010  -18.1510  159.3810 P.3       1 NDP1201     0.0000 
     46 O1X        71.7720  -18.1410  158.5560 O.co2     1 NDP1201     0.0000 
     47 O2X        72.6630  -18.0850  160.9530 O.co2     1 NDP1201     0.0000 
     48 O3X        73.9800  -16.9130  159.0570 O.co2     1 NDP1201     0.0000 
     49 H          77.0624  -18.8428  155.4468 H         1 NDP1201     0.0000 
     50 H          76.8079  -20.3207  156.3908 H         1 NDP1201     0.0000 
     51 H          74.6643  -18.7390  154.9692 H         1 NDP1201     0.0000 
     52 H          75.5523  -17.9367  157.2642 H         1 NDP1201     0.0000 
     53 H          75.7642  -19.9237  158.3921 H         1 NDP1201     0.0000 
     54 H          73.2753  -21.1468  157.6685 H         1 NDP1201     0.0000 
     55 H          75.9617  -22.3600  155.6153 H         1 NDP1201     0.0000 
     56 H          77.9092  -26.0176  160.0193 H         1 NDP1201     0.0000 
     57 H          78.0478  -25.5207  158.2990 H         1 NDP1201     0.0000 
     58 H          74.9120  -23.2736  161.8238 H         1 NDP1201     0.0000 
     59 H          80.6347  -19.0042  153.4256 H         1 NDP1201     0.0000 
     60 H          80.7198  -17.4062  152.6648 H         1 NDP1201     0.0000 
     61 H          82.8898  -18.4930  152.6552 H         1 NDP1201     0.0000 
     62 H          81.7994  -17.3322  150.4843 H         1 NDP1201     0.0000 
     63 H          80.9762  -19.3013  149.6080 H         1 NDP1201     0.0000 
     64 H          83.6176  -20.4785  150.2393 H         1 NDP1201     0.0000 
     65 H          83.7244  -22.8714  150.0971 H         1 NDP1201     0.0000 
     66 H          81.4550  -26.3480  148.6385 H         1 NDP1201     0.0000 
     67 H          82.9852  -27.2749  148.7958 H         1 NDP1201     0.0000 
     68 H          80.2256  -24.9550  149.7006 H         1 NDP1201     0.0000 
     69 H          80.6418  -24.6410  148.0070 H         1 NDP1201     0.0000 
     70 H          79.0038  -22.9421  148.8007 H         1 NDP1201     0.0000 
     71 H          80.0518  -20.9148  149.5409 H         1 NDP1201     0.0000 
     72 H          72.8990  -18.6699  156.5620 H         1 NDP1201     0.0000 
     73 H          84.3124  -18.4526  151.0627 H         1 NDP1201     0.0000 
     74 H          83.3819  -18.4500  148.5145 H         1 NDP1201     0.0000 
@<TRIPOS>BOND
     1    2    1 ar   
     2    3    1 ar   
     3    4    1 1    
     4   23    1 1    
     5    5    4 1    
     6    6    5 1    
     7   49    5 1    
     8   50    5 1    
     9    7    6 1    
    10    8    6 1    
    11   51    6 1    
    12   12    7 1    
    13    9    8 1    
    14   10    8 1    
    15   52    8 1    
    16   72    9 1    
    17   11   10 1    
    18   12   10 1    
    19   53   10 1    
    20   45   11 1    
    21   13   12 1    
    22   54   12 1    
    23   14   13 1    
    24   22   13 1    
    25   15   14 2    
    26   55   14 1    
    27   16   15 1    
    28   17   16 ar   
    29   22   16 ar   
    30   18   17 1    
    31   19   17 ar   
    32   56   18 1    
    33   57   18 1    
    34   20   19 ar   
    35   21   20 ar   
    36   58   20 1    
    37   22   21 ar   
    38   24   23 1    
    39   25   24 ar   
    40   26   24 ar   
    41   27   24 1    
    42   28   27 1    
    43   29   28 1    
    44   59   28 1    
    45   60   28 1    
    46   30   29 1    
    47   31   29 1    
    48   61   29 1    
    49   35   30 1    
    50   32   31 1    
    51   33   31 1    
    52   62   31 1    
    53   73   32 1    
    54   34   33 1    
    55   35   33 1    
    56   63   33 1    
    57   74   34 1    
    58   36   35 1    
    59   64   35 1    
    60   37   36 1    
    61   44   36 1    
    62   38   37 2    
    63   65   37 1    
    64   39   38 1    
    65   42   38 1    
    66   40   39 2    
    67   41   39 am   
    68   66   41 1    
    69   67   41 1    
    70   43   42 1    
    71   68   42 1    
    72   69   42 1    
    73   44   43 2    
    74   70   43 1    
    75   71   44 1    
    76   46   45 ar   
    77   47   45 ar   
    78   48   45 ar   
@<TRIPOS>SUBSTRUCTURE
     1 NDP1201     1 GROUP   
@<TRIPOS>SET

