#    Name: 1h35_R01_2_INTS_M
#    Modification time : Tue Mar 25 04:24:03 2014

@<TRIPOS>MOLECULE
1h35_R01_2_INTS_M
   45     0     6     0     0
SMALL
NO_CHARGES


@<TRIPOS>ATOM
      1 CA         50.5135   13.4205   62.8110 C.3       2 GLC5        0.0000 
      2 CA         48.9160   14.2620   62.5000 C.3       6 GLL5        0.0000 
      3 CA         52.1110   12.5790   63.1220 C.3       4 GLP5        0.0000 
      4 CA         50.3555   18.4495   65.7820 C.3       2 GLC5        0.0000 
      5 CA         49.4400   16.6450   65.5790 C.3       6 GLL5        0.0000 
      6 CA         51.2710   20.2540   65.9850 C.3       4 GLP5        0.0000 
      7 OD1        47.9330   12.9720   60.7470 O.co2     1 ASC3        0.0000 
      8 OD1        48.3230   14.8240   61.2230 O.co2     5 ASL3        0.0000 
      9 OD1        47.5430   11.1200   60.2710 O.co2     3 ASP3        0.0000 
     10 CA         47.1070   13.9165   59.3870 C.3       2 GLC5        0.0000 
     11 CA         46.8340   14.8210   61.1920 C.3       6 GLL5        0.0000 
     12 CA         47.3800   13.0120   57.5820 C.3       4 GLP5        0.0000 
     13 CA         44.6425   14.4385   61.1580 C.3       2 GLC5        0.0000 
     14 CA         42.4510   14.0560   61.1240 C.3       4 GLP5        0.0000 
     15 CA         46.2140   16.7215   61.2930 C.3       2 GLC5        0.0000 
     16 CA         45.5940   18.6220   61.3940 C.3       4 GLP5        0.0000 
     17 CA         51.8230   17.8985   60.9705 C.3       2 GLC5        0.0000 
     18 CA         50.4460   17.3140   59.3480 C.3       6 GLL5        0.0000 
     19 CA         53.2000   18.4830   62.5930 C.3       4 GLP5        0.0000 
     20 CA         41.5665   20.9480   75.3235 C.3       2 GLC5        0.0000 
     21 CA         41.5860   19.7880   73.8580 C.3       6 GLL5        0.0000 
     22 CA         41.5470   22.1080   76.7890 C.3       4 GLP5        0.0000 
     23 CA         45.1520   16.1435   72.1535 C.3       2 GLC5        0.0000 
     24 CA         44.9510   18.1540   72.0540 C.3       6 GLL5        0.0000 
     25 CA         45.3530   14.1330   72.2530 C.3       4 GLP5        0.0000 
     26 CA         46.0220   18.8532   73.8812 C.3       2 GLC5        0.0000 
     27 CA         45.9120   19.2050   72.1100 C.3       6 GLL5        0.0000 
     28 CA         46.3130   17.8780   75.3530 C.3       4 GLP5        0.0000 
     29 CA         48.2880   15.3547   70.1080 C.3       2 GLC5        0.0000 
     30 CA         48.5090   17.2840   70.0780 C.3       6 GLL5        0.0000 
     31 CA         47.9500   13.7410   70.7650 C.3       4 GLP5        0.0000 
     32 CA         50.3665   15.8438   69.5350 C.3       2 GLC5        0.0000 
     33 CA         48.7430   16.6530   68.8240 C.3       6 GLL5        0.0000 
     34 CA         52.1070   14.7190   69.6190 C.3       4 GLP5        0.0000 
     35 CA         51.2593   16.1030   58.3120 C.3       2 GLC5        0.0000 
     36 CA         49.7550   16.2280   59.7260 C.3       6 GLL5        0.0000 
     37 CA         52.4180   15.4350   57.0870 C.3       4 GLP5        0.0000 
     38 CA         48.6019   18.1714   59.7516 C.3       2 GLC5        0.0000 
     39 CA         47.3320   19.5790   59.6650 C.3       4 GLP5        0.0000 
     40 CA         45.0400   18.9915   74.2817 C.3       2 GLC5        0.0000 
     41 CA         44.2410   20.6370   73.2440 C.3       6 GLL5        0.0000 
     42 CA         43.4903   16.7880   71.0810 C.3       2 GLC5        0.0000 
     43 CA         43.6520   18.3360   72.5840 C.3       6 GLL5        0.0000 
     44 CA         42.6790   15.3310   69.8430 C.3       4 GLP5        0.0000 
     45 CA         45.3073   18.0615   73.8360 C.3       2 GLC5        0.0000 
@<TRIPOS>BOND
@<TRIPOS>SUBSTRUCTURE
     1 ASC3        7 GROUP        1 X    ASC  0     ROOT ASC X 3
     2 GLC5        1 GROUP        1 X    GLC  0     **** GLC X 6
     3 ASP3        9 GROUP        1 Y    ASP  0     ROOT ASP Y 10
     4 GLP5        3 GROUP        1 Y    GLP  0     **** GLP Y 13
     5 ASL3        8 GROUP        1 Z    ASL  0     ROOT ASL Z 17
     6 GLL5        2 GROUP        1 Z    GLL  0     **** GLL Z 20
@<TRIPOS>SET

