#    Name: 1h35_R01_2_ligand
#    Modification time : Tue Mar 25 04:24:04 2014

@<TRIPOS>MOLECULE
1h35_R01_2_ligand
   48    50     1     0     0
SMALL
NO_CHARGES


@<TRIPOS>ATOM
      1 C1G        45.9120   19.2050   72.1100 C.ar      1 R01800      0.0000 
      2 C1         47.3140   19.0090   71.5370 C.2       1 R01800      0.0000 
      3 O2         48.2700   19.4010   72.1880 O.2       1 R01800      0.0000 
      4 C4A        47.5640   18.3390   70.1900 C.ar      1 R01800      0.0000 
      5 C3A        48.5090   17.2840   70.0780 C.ar      1 R01800      0.0000 
      6 C2A        48.7430   16.6530   68.8240 C.ar      1 R01800      0.0000 
      7 C1A        48.0300   17.0730   67.6550 C.ar      1 R01800      0.0000 
      8 C2B        47.3080   15.4620   65.8590 C.ar      1 R01800      0.0000 
      9 C3B        47.5140   14.7850   64.6240 C.ar      1 R01800      0.0000 
     10 C4B        48.6790   15.0210   63.8450 C.ar      1 R01800      0.0000 
     11 C1C        48.9160   14.2620   62.5000 C.3       1 R01800      0.0000 
     12 C5B        49.6460   15.9620   64.3350 C.ar      1 R01800      0.0000 
     13 C6B        49.4400   16.6450   65.5790 C.ar      1 R01800      0.0000 
     14 N1D        48.3230   14.8240   61.2230 N.4       1 R01800      0.0000 
     15 C1F        46.8340   14.8210   61.1920 C.3       1 R01800      0.0000 
     16 C1E        48.8400   16.1990   60.9310 C.3       1 R01800      0.0000 
     17 C2E        49.7550   16.2280   59.7260 C.2       1 R01800      0.0000 
     18 C3E        50.4460   17.3140   59.3480 C.2       1 R01800      0.0000 
     19 C6A        47.0830   18.1290   67.7650 C.ar      1 R01800      0.0000 
     20 C5A        46.8530   18.7570   69.0220 C.ar      1 R01800      0.0000 
     21 C2G        45.5500   20.4520   72.7090 C.ar      1 R01800      0.0000 
     22 C3G        44.2410   20.6370   73.2440 C.ar      1 R01800      0.0000 
     23 C4G        43.2930   19.5730   73.1770 C.ar      1 R01800      0.0000 
     24 C1B        48.2700   16.3940   66.3440 C.ar      1 R01800      0.0000 
     25 BR27       41.5860   19.7880   73.8580 Br        1 R01800      0.0000 
     26 C5G        43.6520   18.3360   72.5840 C.ar      1 R01800      0.0000 
     27 C6G        44.9510   18.1540   72.0540 C.ar      1 R01800      0.0000 
     28 H          49.0253   16.9751   70.9037 H         1 R01800      0.0000 
     29 H          49.4222   15.8962   68.7532 H         1 R01800      0.0000 
     30 H          46.4631   15.2783   66.4027 H         1 R01800      0.0000 
     31 H          46.8108   14.1172   64.2922 H         1 R01800      0.0000 
     32 H          48.5501   13.2093   62.6421 H         1 R01800      0.0000 
     33 H          50.0265   14.1509   62.3709 H         1 R01800      0.0000 
     34 H          50.4885   16.1464   63.7921 H         1 R01800      0.0000 
     35 H          50.1361   17.3088   65.9086 H         1 R01800      0.0000 
     36 H          48.6742   14.1694   60.3851 H         1 R01800      0.0000 
     37 H          49.3887   16.5800   61.8056 H         1 R01800      0.0000 
     38 H          47.9945   16.8809   60.7542 H         1 R01800      0.0000 
     39 H          49.8035   15.3227   59.2087 H         1 R01800      0.0000 
     40 H          46.5675   18.4372   66.9420 H         1 R01800      0.0000 
     41 H          46.1722   19.5157   69.0929 H         1 R01800      0.0000 
     42 H          46.2290   21.2079   72.7528 H         1 R01800      0.0000 
     43 H          43.9850   21.5210   73.6703 H         1 R01800      0.0000 
     44 H          42.9715   17.5770   72.5402 H         1 R01800      0.0000 
     45 H          45.2074   17.2611   71.6255 H         1 R01800      0.0000 
     46 H          46.4796   15.1940   60.3345 H         1 R01800      0.0000 
     47 H          46.4624   13.8973   61.2855 H         1 R01800      0.0000 
     48 H          46.4460   15.3694   61.9328 H         1 R01800      0.0000 
@<TRIPOS>BOND
     1    2    1 1    
     2   21    1 ar   
     3   27    1 ar   
     4    3    2 2    
     5    4    2 1    
     6    5    4 ar   
     7   20    4 ar   
     8    6    5 ar   
     9   28    5 1    
    10    7    6 ar   
    11   29    6 1    
    12   19    7 ar   
    13   24    7 1    
    14    9    8 ar   
    15   24    8 ar   
    16   30    8 1    
    17   10    9 ar   
    18   31    9 1    
    19   11   10 1    
    20   12   10 ar   
    21   14   11 1    
    22   32   11 1    
    23   33   11 1    
    24   13   12 ar   
    25   34   12 1    
    26   24   13 ar   
    27   35   13 1    
    28   15   14 1    
    29   16   14 1    
    30   36   14 1    
    31   46   15 1    
    32   47   15 1    
    33   48   15 1    
    34   17   16 1    
    35   37   16 1    
    36   38   16 1    
    37   18   17 2    
    38   39   17 1    
    39   20   19 ar   
    40   40   19 1    
    41   41   20 1    
    42   22   21 ar   
    43   42   21 1    
    44   23   22 ar   
    45   43   22 1    
    46   25   23 1    
    47   26   23 ar   
    48   27   26 ar   
    49   44   26 1    
    50   45   27 1    
@<TRIPOS>SUBSTRUCTURE
     1 R01800      1 GROUP   
@<TRIPOS>SET

