#    Name: 1n0t_AT1_1_INTS_M
#    Modification time : Mon Apr  7 14:53:50 2014

@<TRIPOS>MOLECULE
1n0t_AT1_1_INTS_M
   60     0    12     0     0
SMALL
NO_CHARGES


@<TRIPOS>ATOM
      1 O           7.0515   33.7935   -3.6565 O.2       1 ALC1        0.0000 
      2 O           8.0150   32.9430   -2.9770 O.2       9 ALL1        0.0000 
      3 O           6.0880   34.6440   -4.3360 O.2       5 ALP1        0.0000 
      4 O           9.2885   33.4650   -3.1755 O.2       1 ALC1        0.0000 
      5 O          10.5620   33.9870   -3.3740 O.2       5 ALP1        0.0000 
      6 O           8.1425   33.3085   -1.3520 O.2       1 ALC1        0.0000 
      7 O           8.2700   33.6740    0.2730 O.2       5 ALP1        0.0000 
      8 CA          5.4815   30.0005   -3.9365 C.3       4 GLC5        0.0000 
      9 CA          6.8140   30.7370   -2.6580 C.3      12 GLL5        0.0000 
     10 CA          4.1490   29.2640   -5.2150 C.3       8 GLP5        0.0000 
     11 NZ          9.2395   32.0380   -6.5515 N.4       3 LYC4        0.0000 
     12 NZ          8.4400   32.1850   -5.4490 N.4      11 LYL4        0.0000 
     13 NZ         10.1080   30.6860   -8.2160 N.4       7 LYP4        0.0000 
     14 N           8.9385   33.4600   -5.6650 N.am      2 SEC2        0.0000 
     15 N           8.4400   32.1850   -5.4490 N.am     10 SEL2        0.0000 
     16 N           9.4370   34.7350   -5.8810 N.am      6 SEP2        0.0000 
     17 N           9.2395   32.0380   -6.5515 N.am      2 SEC2        0.0000 
     18 N          10.0390   31.8910   -7.6540 N.am      6 SEP2        0.0000 
     19 CA          6.3805   31.4445   -4.5845 C.3       4 GLC5        0.0000 
     20 CA          8.0960   31.4250   -3.1610 C.3      12 GLL5        0.0000 
     21 CA          4.6650   31.4640   -6.0080 C.3       8 GLP5        0.0000 
     22 CA          9.7485   32.7445   -3.8475 C.3       4 GLC5        0.0000 
     23 CA         11.4010   34.0640   -4.5340 C.3       8 GLP5        0.0000 
     24 NZ          8.9695   29.8135   -6.3560 N.4       3 LYC4        0.0000 
     25 NZ          8.4580   29.9620   -5.0600 N.4      11 LYL4        0.0000 
     26 N           8.9695   29.8135   -6.3560 N.am      2 SEC2        0.0000 
     27 N           8.4580   29.9620   -5.0600 N.am     10 SEL2        0.0000 
     28 N           9.4810   29.6650   -7.6520 N.am      6 SEP2        0.0000 
     29 CA          8.6325   26.6205    0.9290 C.3       4 GLC5        0.0000 
     30 CA          9.1760   27.9820   -0.1920 C.3      12 GLL5        0.0000 
     31 CA          8.0890   25.2590    2.0500 C.3       8 GLP5        0.0000 
     32 CA          1.7155   32.1140   -0.4640 C.3       4 GLC5        0.0000 
     33 CA          3.5040   31.5980    0.0510 C.3      12 GLL5        0.0000 
     34 CA         -0.0730   32.6300   -0.9790 C.3       8 GLP5        0.0000 
     35 CA          3.2875   31.3880   -2.0920 C.3       4 GLC5        0.0000 
     36 CA          3.0710   31.1780   -4.2350 C.3       8 GLP5        0.0000 
     37 CA          2.5750   31.6805    1.6590 C.3       4 GLC5        0.0000 
     38 CA          1.6460   31.7630    3.2670 C.3       8 GLP5        0.0000 
     39 CA          6.9875   33.2635    2.0765 C.3       4 GLC5        0.0000 
     40 CA          5.0920   33.2060    1.1300 C.3      12 GLL5        0.0000 
     41 CA          8.8830   33.3210    3.0230 C.3       8 GLP5        0.0000 
     42 CA          4.6840   33.1915    3.0680 C.3       4 GLC5        0.0000 
     43 CA          4.2760   33.1770    5.0060 C.3       8 GLP5        0.0000 
     44 CA          3.9230   32.2025   -2.7820 C.3       4 GLC5        0.0000 
     45 CA          4.7750   33.2270   -1.3290 C.3      12 GLL5        0.0000 
     46 CA          3.9045   34.2735   -2.4515 C.3       4 GLC5        0.0000 
     47 CA          3.0340   35.3200   -3.5740 C.3       8 GLP5        0.0000 
     48 CA          6.0325   34.9815   -1.1060 C.3       4 GLC5        0.0000 
     49 CA          7.2900   36.7360   -0.8830 C.3       8 GLP5        0.0000 
     50 N          10.2450   30.9790   -0.0040 N.am      2 SEC2        0.0000 
     51 N          10.9570   29.9690    0.2740 N.am     10 SEL2        0.0000 
     52 N           9.5330   31.9890   -0.2820 N.am      6 SEP2        0.0000 
     53 N          13.1215   27.6420    1.0190 N.am      2 SEC2        0.0000 
     54 N          11.6020   27.5460    0.6740 N.am     10 SEL2        0.0000 
     55 N          14.6410   27.7380    1.3640 N.am      6 SEP2        0.0000 
     56 N          12.7455   27.6635   -1.4775 N.am      2 SEC2        0.0000 
     57 N          11.3900   28.3560   -1.6550 N.am     10 SEL2        0.0000 
     58 N          14.1010   26.9710   -1.3000 N.am      6 SEP2        0.0000 
     59 N          12.6050   29.0815   -1.2410 N.am      2 SEC2        0.0000 
     60 N          13.8200   29.8070   -0.8270 N.am      6 SEP2        0.0000 
@<TRIPOS>BOND
@<TRIPOS>SUBSTRUCTURE
     1 ALC1        1 GROUP        1 X    ALC  0     ROOT ALC X 1
     2 SEC2       14 GROUP        1 X    SEC  0     **** SEC X 2
     3 LYC4       11 GROUP        1 X    LYC  0     **** LYC X 4
     4 GLC5        8 GROUP        1 X    GLC  0     **** GLC X 6
     5 ALP1        3 GROUP        1 Y    ALP  0     ROOT ALP Y 8
     6 SEP2       16 GROUP        1 Y    SEP  0     **** SEP Y 9
     7 LYP4       13 GROUP        1 Y    LYP  0     **** LYP Y 11
     8 GLP5       10 GROUP        1 Y    GLP  0     **** GLP Y 13
     9 ALL1        2 GROUP        1 Z    ALL  0     ROOT ALL Z 15
    10 SEL2       15 GROUP        1 Z    SEL  0     **** SEL Z 16
    11 LYL4       12 GROUP        1 Z    LYL  0     **** LYL Z 18
    12 GLL5        9 GROUP        1 Z    GLL  0     **** GLL Z 20
@<TRIPOS>SET

