#    Name: 1n0t_AT1_1_ligand
#    Modification time : Mon Apr  7 14:53:50 2014

@<TRIPOS>MOLECULE
1n0t_AT1_1_ligand
   38    38     1     0     0
SMALL
NO_CHARGES


@<TRIPOS>ATOM
      1 N           8.0150   32.9430   -2.9770 N.4       1 AT1264      0.0000 
      2 C           6.8140   30.7370   -2.6580 C.3       1 AT1264      0.0000 
      3 O           8.4400   32.1850   -5.4490 O.co2     1 AT1264      0.0000 
      4 C1          8.0960   31.4250   -3.1610 C.3       1 AT1264      0.0000 
      5 C2          8.3520   31.1560   -4.6900 C.2       1 AT1264      0.0000 
      6 O1          8.4580   29.9620   -5.0600 O.co2     1 AT1264      0.0000 
      7 O2          6.2840   30.7320    1.0260 O.3       1 AT1264      0.0000 
      8 O3          8.3920   28.9040   -1.0120 O.3       1 AT1264      0.0000 
      9 N1          7.2870   29.7450    0.8810 N.2       1 AT1264      0.0000 
     10 C3          4.8570   32.3230   -0.0980 C.3       1 AT1264      0.0000 
     11 C4          9.1760   27.9820   -0.1920 C.3       1 AT1264      0.0000 
     12 C5          7.5080   29.7090   -0.4080 C.2       1 AT1264      0.0000 
     13 C6          6.7050   30.6280   -1.1620 C.2       1 AT1264      0.0000 
     14 C7          5.9460   31.2470   -0.1910 C.2       1 AT1264      0.0000 
     15 C9          3.5040   31.5980    0.0510 C.3       1 AT1264      0.0000 
     16 C10         5.0920   33.2060    1.1300 C.3       1 AT1264      0.0000 
     17 C11         4.7750   33.2270   -1.3290 C.3       1 AT1264      0.0000 
     18 P          10.8860   28.5520   -0.1840 P.3       1 AT1264      0.0000 
     19 O4         10.9570   29.9690    0.2740 O.co2     1 AT1264      0.0000 
     20 O5         11.6020   27.5460    0.6740 O.co2     1 AT1264      0.0000 
     21 O6         11.3900   28.3560   -1.6550 O.co2     1 AT1264      0.0000 
     22 H           6.7651   29.7267   -3.1079 H         1 AT1264      0.0000 
     23 H           5.9442   31.2962   -3.0534 H         1 AT1264      0.0000 
     24 H           8.9449   31.0574   -2.6184 H         1 AT1264      0.0000 
     25 H           9.2777   26.9984   -0.5858 H         1 AT1264      0.0000 
     26 H           8.9417   27.9863    0.8463 H         1 AT1264      0.0000 
     27 H           8.8422   33.4012   -3.3021 H         1 AT1264      0.0000 
     28 H           7.2451   33.3374   -3.4787 H         1 AT1264      0.0000 
     29 H           7.8987   33.1950   -2.0163 H         1 AT1264      0.0000 
     30 H           3.3141   31.0020   -0.7292 H         1 AT1264      0.0000 
     31 H           3.4777   31.0254    0.8704 H         1 AT1264      0.0000 
     32 H           2.7427   32.2428    0.1194 H         1 AT1264      0.0000 
     33 H           5.9794   33.6655    1.0927 H         1 AT1264      0.0000 
     34 H           4.3960   33.9192    1.2133 H         1 AT1264      0.0000 
     35 H           5.0717   32.6761    1.9778 H         1 AT1264      0.0000 
     36 H           5.6320   33.7174   -1.4874 H         1 AT1264      0.0000 
     37 H           4.5774   32.7064   -2.1596 H         1 AT1264      0.0000 
     38 H           4.0559   33.9157   -1.2368 H         1 AT1264      0.0000 
@<TRIPOS>BOND
     1    4    1 1    
     2   27    1 1    
     3   28    1 1    
     4   29    1 1    
     5    4    2 1    
     6   13    2 1    
     7   22    2 1    
     8   23    2 1    
     9    5    3 ar   
    10    5    4 1    
    11   24    4 1    
    12    6    5 ar   
    13    9    7 1    
    14   14    7 1    
    15   11    8 1    
    16   12    8 1    
    17   12    9 2    
    18   14   10 1    
    19   15   10 1    
    20   16   10 1    
    21   17   10 1    
    22   18   11 1    
    23   25   11 1    
    24   26   11 1    
    25   13   12 1    
    26   14   13 2    
    27   30   15 1    
    28   31   15 1    
    29   32   15 1    
    30   33   16 1    
    31   34   16 1    
    32   35   16 1    
    33   36   17 1    
    34   37   17 1    
    35   38   17 1    
    36   19   18 ar   
    37   20   18 ar   
    38   21   18 ar   
@<TRIPOS>SUBSTRUCTURE
     1 AT1264      1 GROUP   
@<TRIPOS>SET

