#    Name: 2yig_5EL_2_INTS_M
#    Modification time : Tue Mar 25 09:20:49 2014

@<TRIPOS>MOLECULE
2yig_5EL_2_INTS_M
   79     0     9     0     0
SMALL
NO_CHARGES


@<TRIPOS>ATOM
      1 CA         54.3210  -11.8400   23.3060 C.3       3 GLC5        0.0000 
      2 CA         54.5640  -13.6640   23.5500 C.3       9 GLL5        0.0000 
      3 CA         54.0780  -10.0160   23.0620 C.3       6 GLP5        0.0000 
      4 CA         58.3950  -19.3280   23.5515 C.3       3 GLC5        0.0000 
      5 CA         60.0050  -18.0950   22.7870 C.3       9 GLL5        0.0000 
      6 CA         56.7850  -20.5610   24.3160 C.3       6 GLP5        0.0000 
      7 CA         61.3635  -19.4480   23.2230 C.3       3 GLC5        0.0000 
      8 CA         62.7220  -20.8010   23.6590 C.3       6 GLP5        0.0000 
      9 CA         62.1505  -19.6265   22.2660 C.3       3 GLC5        0.0000 
     10 CA         61.5790  -18.4520   20.8730 C.3       9 GLL5        0.0000 
     11 CA         61.4960  -15.2545   23.9830 C.3       3 GLC5        0.0000 
     12 CA         61.7270  -16.4410   22.2110 C.3       9 GLL5        0.0000 
     13 CA         61.2650  -14.0680   25.7550 C.3       6 GLP5        0.0000 
     14 N          57.3035  -19.1855   22.1385 N.am      2 SEC2        0.0000 
     15 N          58.3390  -18.4640   21.0730 N.am      8 SEL2        0.0000 
     16 N          56.2680  -19.9070   23.2040 N.am      5 SEP2        0.0000 
     17 O          57.4015  -18.0530   20.3590 O.2       1 ALC1        0.0000 
     18 O          58.3390  -18.4640   21.0730 O.2       7 ALL1        0.0000 
     19 O          56.4640  -17.6420   19.6450 O.2       4 ALP1        0.0000 
     20 CA         53.3665  -11.2430   24.3690 C.3       3 GLC5        0.0000 
     21 CA         52.6550  -12.4700   25.6760 C.3       9 GLL5        0.0000 
     22 CA         52.8535  -15.4535   25.7545 C.3       3 GLC5        0.0000 
     23 CA         51.9940  -13.6940   25.5590 C.3       9 GLL5        0.0000 
     24 CA         53.7130  -17.2130   25.9500 C.3       6 GLP5        0.0000 
     25 CA         49.9210  -13.0255   28.2105 C.3       3 GLC5        0.0000 
     26 CA         49.9870  -12.5940   26.1640 C.3       9 GLL5        0.0000 
     27 CA         49.8550  -13.4570   30.2570 C.3       6 GLP5        0.0000 
     28 CA         50.3510  -11.6540   28.3555 C.3       3 GLC5        0.0000 
     29 CA         50.6140  -11.3830   26.2990 C.3       9 GLL5        0.0000 
     30 CA         50.0880  -11.9250   30.4120 C.3       6 GLP5        0.0000 
     31 CA         53.0565  -10.6760   27.6125 C.3       3 GLC5        0.0000 
     32 CA         51.9810  -11.3230   26.0370 C.3       9 GLL5        0.0000 
     33 CA         54.1320  -10.0290   29.1880 C.3       6 GLP5        0.0000 
     34 N          47.8555  -11.6220   28.7230 N.am      2 SEC2        0.0000 
     35 N          48.0470  -11.8340   27.2440 N.am      8 SEL2        0.0000 
     36 N          47.6640  -11.4100   30.2020 N.am      5 SEP2        0.0000 
     37 O          48.4625  -14.5550   24.5085 O.2       1 ALC1        0.0000 
     38 O          47.8910  -13.7130   25.9170 O.2       7 ALL1        0.0000 
     39 O          49.0340  -15.3970   23.1000 O.2       4 ALP1        0.0000 
     40 CA         45.9175  -12.9520   28.1080 C.3       3 GLC5        0.0000 
     41 CA         46.5490  -14.0720   26.3250 C.3       9 GLL5        0.0000 
     42 CA         45.2860  -11.8320   29.8910 C.3       6 GLP5        0.0000 
     43 CA         54.3430  -15.6560   24.5840 C.3       3 GLC5        0.0000 
     44 CA         55.3820  -14.5340   22.8860 C.3       9 GLL5        0.0000 
     45 CA         55.8345  -11.9902   26.5918 C.3       3 GLC5        0.0000 
     46 CA         54.8310  -13.2360   24.8380 C.3       9 GLL5        0.0000 
     47 CA         56.2910  -10.5170   27.9900 C.3       6 GLP5        0.0000 
     48 CA         55.4020  -11.6412   24.4868 C.3       3 GLC5        0.0000 
     49 CA         55.9250  -13.6910   25.5490 C.3       9 GLL5        0.0000 
     50 CA         55.4260   -9.8190   23.7800 C.3       6 GLP5        0.0000 
     51 CA         54.5455  -15.3383   25.5717 C.3       3 GLC5        0.0000 
     52 CA         57.9592  -13.7255   26.3035 C.3       3 GLC5        0.0000 
     53 CA         59.5720  -13.3120   27.3850 C.3       6 GLP5        0.0000 
     54 CA         55.1695  -15.9997   25.0962 C.3       3 GLC5        0.0000 
     55 CA         56.4840  -14.9860   23.5900 C.3       9 GLL5        0.0000 
     56 CA         57.8114  -13.5526   22.8974 C.3       3 GLC5        0.0000 
     57 CA         56.7680  -14.5870   24.8950 C.3       9 GLL5        0.0000 
     58 CA         58.7530  -11.8450   22.2790 C.3       6 GLP5        0.0000 
     59 CA         59.0572  -14.5742   20.2470 C.3       3 GLC5        0.0000 
     60 CA         59.8600  -16.6710   20.6340 C.3       9 GLL5        0.0000 
     61 CA         57.8040  -12.9610   19.5250 C.3       6 GLP5        0.0000 
     62 CA         62.1835  -14.5888   22.1202 C.3       3 GLC5        0.0000 
     63 CA         60.7610  -15.7040   21.3040 C.3       9 GLL5        0.0000 
     64 CA         63.1230  -13.1050   22.4830 C.3       6 GLP5        0.0000 
     65 CA         60.9952  -15.6451   18.9630 C.3       3 GLC5        0.0000 
     66 CA         61.4710  -14.8580   17.1510 C.3       6 GLP5        0.0000 
     67 CA         51.2612  -13.9052   27.7900 C.3       3 GLC5        0.0000 
     68 CA         51.2070  -14.0900   29.8990 C.3       6 GLP5        0.0000 
     69 CA         51.1833  -15.4922   24.4505 C.3       3 GLC5        0.0000 
     70 CA         50.6370  -13.7470   25.8030 C.3       9 GLL5        0.0000 
     71 CA         51.0510  -17.2640   23.2200 C.3       6 GLP5        0.0000 
     72 CA         52.0747  -10.3960   24.7240 C.3       3 GLC5        0.0000 
     73 CA         52.8520   -9.4390   23.2800 C.3       6 GLP5        0.0000 
     74 CA         45.3661  -10.7622   26.3326 C.3       3 GLC5        0.0000 
     75 CA         45.8630  -12.1160   24.9630 C.3       9 GLL5        0.0000 
     76 CA         45.4510   -9.5580   27.7410 C.3       6 GLP5        0.0000 
     77 CA         43.3610  -11.8763   26.8520 C.3       3 GLC5        0.0000 
     78 CA         43.2640  -12.6060   25.4530 C.3       9 GLL5        0.0000 
     79 CA         42.9920  -10.7140   27.9730 C.3       6 GLP5        0.0000 
@<TRIPOS>BOND
@<TRIPOS>SUBSTRUCTURE
     1 ALC1       17 GROUP        1 X    ALC  0     ROOT ALC X 1
     2 SEC2       14 GROUP        1 X    SEC  0     **** SEC X 2
     3 GLC5        1 GROUP        1 X    GLC  0     **** GLC X 6
     4 ALP1       19 GROUP        1 Y    ALP  0     ROOT ALP Y 8
     5 SEP2       16 GROUP        1 Y    SEP  0     **** SEP Y 9
     6 GLP5        3 GROUP        1 Y    GLP  0     **** GLP Y 13
     7 ALL1       18 GROUP        1 Z    ALL  0     ROOT ALL Z 15
     8 SEL2       15 GROUP        1 Z    SEL  0     **** SEL Z 16
     9 GLL5        2 GROUP        1 Z    GLL  0     **** GLL Z 20
@<TRIPOS>SET

