#    Name: 2yig_5EL_2_ligand
#    Modification time : Tue Mar 25 09:20:49 2014

@<TRIPOS>MOLECULE
2yig_5EL_2_ligand
   62    66     1     0     0
SMALL
NO_CHARGES


@<TRIPOS>ATOM
      1 C1         55.3820  -14.5340   22.8860 C.ar      1 5EL1270     0.0000 
      2 C2         54.5640  -13.6640   23.5500 C.ar      1 5EL1270     0.0000 
      3 C3         54.8310  -13.2360   24.8380 C.ar      1 5EL1270     0.0000 
      4 C4         55.9250  -13.6910   25.5490 C.ar      1 5EL1270     0.0000 
      5 C5         56.7680  -14.5870   24.8950 C.ar      1 5EL1270     0.0000 
      6 C6         56.4840  -14.9860   23.5900 C.ar      1 5EL1270     0.0000 
      7 C7         57.3890  -15.8470   22.9650 C.1       1 5EL1270     0.0000 
      8 C8         58.1850  -16.5520   22.4320 C.1       1 5EL1270     0.0000 
      9 C9         59.1070  -17.4430   21.7300 C.3       1 5EL1270     0.0000 
     10 C10        60.0050  -18.0950   22.7870 C.3       1 5EL1270     0.0000 
     11 N1         61.3980  -17.8690   22.2130 N.4       1 5EL1270     0.0000 
     12 C11        61.5790  -18.4520   20.8730 C.3       1 5EL1270     0.0000 
     13 C12        60.6960  -17.6500   19.8580 C.3       1 5EL1270     0.0000 
     14 C13        59.8600  -16.6710   20.6340 C.3       1 5EL1270     0.0000 
     15 C14        60.7610  -15.7040   21.3040 C.3       1 5EL1270     0.0000 
     16 C15        61.7270  -16.4410   22.2110 C.3       1 5EL1270     0.0000 
     17 O1         58.3390  -18.4640   21.0730 O.3       1 5EL1270     0.0000 
     18 O2         53.9960  -12.3430   25.4820 O.3       1 5EL1270     0.0000 
     19 C16        52.6550  -12.4700   25.6760 C.ar      1 5EL1270     0.0000 
     20 C17        51.9940  -13.6940   25.5590 C.ar      1 5EL1270     0.0000 
     21 C18        50.6370  -13.7470   25.8030 C.ar      1 5EL1270     0.0000 
     22 C19        49.9870  -12.5940   26.1640 C.ar      1 5EL1270     0.0000 
     23 C20        50.6140  -11.3830   26.2990 C.ar      1 5EL1270     0.0000 
     24 C21        51.9810  -11.3230   26.0370 C.ar      1 5EL1270     0.0000 
     25 C22        48.5500  -12.6550   26.4750 C.2       1 5EL1270     0.0000 
     26 O3         48.0470  -11.8340   27.2440 O.2       1 5EL1270     0.0000 
     27 N2         47.8910  -13.7130   25.9170 N.am      1 5EL1270     0.0000 
     28 C23        46.5490  -14.0720   26.3250 C.3       1 5EL1270     0.0000 
     29 C24        45.5300  -13.2060   25.7480 C.ar      1 5EL1270     0.0000 
     30 C25        45.8630  -12.1160   24.9630 C.ar      1 5EL1270     0.0000 
     31 C26        44.8660  -11.2720   24.4930 C.ar      1 5EL1270     0.0000 
     32 N3         43.5600  -11.4980   24.7250 N.ar      1 5EL1270     0.0000 
     33 C27        43.2640  -12.6060   25.4530 C.ar      1 5EL1270     0.0000 
     34 C28        44.1960  -13.4710   26.0090 C.ar      1 5EL1270     0.0000 
     35 H          55.2014  -14.8328   21.9428 H         1 5EL1270     0.0000 
     36 H          53.7017  -13.3039   23.0726 H         1 5EL1270     0.0000 
     37 H          56.1086  -13.3933   26.4927 H         1 5EL1270     0.0000 
     38 H          57.5993  -14.9539   25.3745 H         1 5EL1270     0.0000 
     39 H          59.7988  -19.1278   22.8406 H         1 5EL1270     0.0000 
     40 H          59.9039  -17.5837   23.7037 H         1 5EL1270     0.0000 
     41 H          62.1099  -18.3749   22.9075 H         1 5EL1270     0.0000 
     42 H          61.2566  -19.4841   20.8441 H         1 5EL1270     0.0000 
     43 H          62.6069  -18.3765   20.5446 H         1 5EL1270     0.0000 
     44 H          60.0710  -18.3501   19.3305 H         1 5EL1270     0.0000 
     45 H          61.3515  -17.1349   19.1768 H         1 5EL1270     0.0000 
     46 H          59.1723  -16.1877   20.0104 H         1 5EL1270     0.0000 
     47 H          60.1814  -14.9994   21.9030 H         1 5EL1270     0.0000 
     48 H          61.3314  -15.1420   20.5624 H         1 5EL1270     0.0000 
     49 H          62.7422  -16.2790   21.8456 H         1 5EL1270     0.0000 
     50 H          61.6486  -16.0252   23.2166 H         1 5EL1270     0.0000 
     51 H          52.5139  -14.5338   25.2962 H         1 5EL1270     0.0000 
     52 H          50.1282  -14.6315   25.7154 H         1 5EL1270     0.0000 
     53 H          50.1068  -10.5479   26.5811 H         1 5EL1270     0.0000 
     54 H          52.4770  -10.4273   26.1141 H         1 5EL1270     0.0000 
     55 H          48.3312  -14.2940   25.1822 H         1 5EL1270     0.0000 
     56 H          46.4730  -14.0438   27.4365 H         1 5EL1270     0.0000 
     57 H          46.3396  -15.1295   26.0425 H         1 5EL1270     0.0000 
     58 H          46.8470  -11.9298   24.7271 H         1 5EL1270     0.0000 
     59 H          45.1614  -10.4282   23.9359 H         1 5EL1270     0.0000 
     60 H          42.2323  -12.8408   25.6175 H         1 5EL1270     0.0000 
     61 H          43.9137  -14.2551   26.5761 H         1 5EL1270     0.0000 
     62 H          57.9911  -18.0311   20.2413 H         1 5EL1270     0.0000 
@<TRIPOS>BOND
     1    2    1 ar   
     2    6    1 ar   
     3   35    1 1    
     4    3    2 ar   
     5   36    2 1    
     6    4    3 ar   
     7   18    3 1    
     8    5    4 ar   
     9   37    4 1    
    10    6    5 ar   
    11   38    5 1    
    12    7    6 1    
    13    8    7 3    
    14    9    8 1    
    15   10    9 1    
    16   14    9 1    
    17   17    9 1    
    18   11   10 1    
    19   39   10 1    
    20   40   10 1    
    21   12   11 1    
    22   16   11 1    
    23   41   11 1    
    24   13   12 1    
    25   42   12 1    
    26   43   12 1    
    27   14   13 1    
    28   44   13 1    
    29   45   13 1    
    30   15   14 1    
    31   46   14 1    
    32   16   15 1    
    33   47   15 1    
    34   48   15 1    
    35   49   16 1    
    36   50   16 1    
    37   62   17 1    
    38   19   18 1    
    39   20   19 ar   
    40   24   19 ar   
    41   21   20 ar   
    42   51   20 1    
    43   22   21 ar   
    44   52   21 1    
    45   23   22 ar   
    46   25   22 1    
    47   24   23 ar   
    48   53   23 1    
    49   54   24 1    
    50   26   25 2    
    51   27   25 am   
    52   28   27 1    
    53   55   27 1    
    54   29   28 1    
    55   56   28 1    
    56   57   28 1    
    57   30   29 ar   
    58   34   29 ar   
    59   31   30 ar   
    60   58   30 1    
    61   32   31 ar   
    62   59   31 1    
    63   33   32 ar   
    64   34   33 ar   
    65   60   33 1    
    66   61   34 1    
@<TRIPOS>SUBSTRUCTURE
     1 5EL1270     1 GROUP   
@<TRIPOS>SET

