#    Name: 3gub_GUB_1_INTS_M
#    Modification time : Tue Mar 25 12:59:07 2014

@<TRIPOS>MOLECULE
3gub_GUB_1_INTS_M
   79     0     9     0     0
SMALL
NO_CHARGES


@<TRIPOS>ATOM
      1 CA        -25.9580    7.2060   -5.7635 C.3       3 GLC5        0.0000 
      2 CA        -24.7770    5.6260   -6.5500 C.3       9 GLL5        0.0000 
      3 CA        -27.1390    8.7860   -4.9770 C.3       6 GLP5        0.0000 
      4 CA        -22.9925    6.8605   -9.1970 C.3       3 GLC5        0.0000 
      5 CA        -24.2630    5.7140   -7.9840 C.3       9 GLL5        0.0000 
      6 CA        -21.7220    8.0070  -10.4100 C.3       6 GLP5        0.0000 
      7 CA        -22.1115   -1.5415  -13.7690 C.3       3 GLC5        0.0000 
      8 CA        -21.5750    0.4270  -13.7680 C.3       9 GLL5        0.0000 
      9 CA        -22.6480   -3.5100  -13.7700 C.3       6 GLP5        0.0000 
     10 CA        -24.0770    0.0820  -14.3645 C.3       3 GLC5        0.0000 
     11 CA        -22.5950    1.5180  -13.8330 C.3       9 GLL5        0.0000 
     12 CA        -25.5590   -1.3540  -14.8960 C.3       6 GLP5        0.0000 
     13 CA        -23.2885    0.5510  -11.9265 C.3       3 GLC5        0.0000 
     14 CA        -23.9820   -0.4160  -10.0200 C.3       6 GLP5        0.0000 
     15 O         -20.8685    3.9325  -16.0280 O.2       1 ALC1        0.0000 
     16 O         -21.6140    2.7510  -15.8590 O.2       7 ALL1        0.0000 
     17 O         -20.1230    5.1140  -16.1970 O.2       4 ALP1        0.0000 
     18 CA        -26.6485    1.9235  -13.2650 C.3       3 GLC5        0.0000 
     19 CA        -24.5980    2.4890  -13.6630 C.3       9 GLL5        0.0000 
     20 CA        -28.6990    1.3580  -12.8670 C.3       6 GLP5        0.0000 
     21 CA        -25.0785    0.5675  -14.2795 C.3       3 GLC5        0.0000 
     22 O         -23.6680    2.7980  -17.1655 O.2       1 ALC1        0.0000 
     23 O         -24.3740    2.8310  -16.0430 O.2       7 ALL1        0.0000 
     24 O         -22.9620    2.7650  -18.2880 O.2       4 ALP1        0.0000 
     25 CA        -27.0090    2.7300  -12.3900 C.3       3 GLC5        0.0000 
     26 CA        -25.3190    4.1020  -11.9130 C.3       9 GLL5        0.0000 
     27 CA        -25.4910    5.5985  -13.4640 C.3       3 GLC5        0.0000 
     28 CA        -25.6630    7.0950  -15.0150 C.3       6 GLP5        0.0000 
     29 N         -27.5485    7.3640  -10.4105 N.am      2 SEC2        0.0000 
     30 N         -26.7770    6.0130  -10.6920 N.am      8 SEL2        0.0000 
     31 N         -28.3200    8.7150  -10.1290 N.am      5 SEP2        0.0000 
     32 CA        -28.4085    4.0075  -11.3650 C.3       3 GLC5        0.0000 
     33 CA        -27.1590    5.5340  -11.8930 C.3       9 GLL5        0.0000 
     34 CA        -29.6580    2.4810  -10.8370 C.3       6 GLP5        0.0000 
     35 CA        -28.9795    5.7390  -10.9015 C.3       3 GLC5        0.0000 
     36 CA        -30.8000    5.9440   -9.9100 C.3       6 GLP5        0.0000 
     37 CA        -27.6450    7.6270  -11.5410 C.3       3 GLC5        0.0000 
     38 CA        -28.1310    9.7200  -11.1890 C.3       6 GLP5        0.0000 
     39 CA        -26.4110    6.3145  -13.4540 C.3       3 GLC5        0.0000 
     40 O         -25.9825    7.0480   -7.9825 O.2       1 ALC1        0.0000 
     41 O         -25.3920    6.1080   -8.8300 O.2       7 ALL1        0.0000 
     42 O         -26.5730    7.9880   -7.1350 O.2       4 ALP1        0.0000 
     43 CA        -21.4650    7.0675   -4.8050 C.3       3 GLC5        0.0000 
     44 CA        -22.0910    5.5190   -3.8550 C.3       9 GLL5        0.0000 
     45 CA        -20.8390    8.6160   -5.7550 C.3       6 GLP5        0.0000 
     46 CA        -26.2400    4.7560   -7.5055 C.3       3 GLC5        0.0000 
     47 CA        -27.9600    3.8420   -7.7440 C.3       6 GLP5        0.0000 
     48 CA        -23.8985    7.2735   -6.9195 C.3       3 GLC5        0.0000 
     49 CA        -23.2770    8.8770   -6.5720 C.3       6 GLP5        0.0000 
     50 CA        -26.6247    4.4470   -9.0473 C.3       3 GLC5        0.0000 
     51 CA        -25.6800    5.5410  -10.0360 C.3       9 GLL5        0.0000 
     52 CA        -23.1215    4.0853  -16.4755 C.3       3 GLC5        0.0000 
     53 CA        -22.4140    2.8040  -14.6600 C.3       9 GLL5        0.0000 
     54 CA        -23.1050    5.1410  -18.2310 C.3       6 GLP5        0.0000 
     55 CA        -23.4930    5.0267  -14.8950 C.3       3 GLC5        0.0000 
     56 CA        -23.8620    3.2550  -14.7800 C.3       9 GLL5        0.0000 
     57 CA        -23.8480    7.0240  -15.0700 C.3       6 GLP5        0.0000 
     58 CA        -22.1821    4.0630  -13.4511 C.3       3 GLC5        0.0000 
     59 CA        -21.1810    5.4180  -12.3890 C.3       6 GLP5        0.0000 
     60 CA        -25.5830    2.6043  -10.3915 C.3       3 GLC5        0.0000 
     61 CA        -26.0570    0.8760   -9.4940 C.3       6 GLP5        0.0000 
     62 CA        -23.1450    4.8752  -11.8390 C.3       3 GLC5        0.0000 
     63 CA        -24.8990    4.5630  -10.6650 C.3       9 GLL5        0.0000 
     64 CA        -23.3345    7.2118   -5.8660 C.3       3 GLC5        0.0000 
     65 CA        -23.7270    5.1020   -5.5810 C.3       9 GLL5        0.0000 
     66 CA        -22.9540    1.5685   -5.4925 C.3       3 GLC5        0.0000 
     67 CA        -23.4650    3.7370   -5.5100 C.3       9 GLL5        0.0000 
     68 CA        -22.9220   -0.3620   -5.9250 C.3       6 GLP5        0.0000 
     69 CA        -24.8933    5.2218   -4.3394 C.3       3 GLC5        0.0000 
     70 CA        -25.9280    5.8930   -2.8910 C.3       6 GLP5        0.0000 
     71 CA        -22.1830    2.2890   -2.9790 C.3       3 GLC5        0.0000 
     72 CA        -22.5070    3.2610   -4.6100 C.3       9 GLL5        0.0000 
     73 CA        -22.2020    0.8680   -1.7660 C.3       6 GLP5        0.0000 
     74 CA        -20.2975    4.7255   -2.8578 C.3       3 GLC5        0.0000 
     75 CA        -21.8210    4.1590   -3.7740 C.3       9 GLL5        0.0000 
     76 CA        -18.6390    4.6120   -1.9010 C.3       6 GLP5        0.0000 
     77 CA        -22.2060    4.6335   -1.8773 C.3       3 GLC5        0.0000 
     78 CA        -22.4560    4.4280    0.0600 C.3       6 GLP5        0.0000 
     79 CA        -24.2510    5.8240   -3.5940 C.3       3 GLC5        0.0000 
@<TRIPOS>BOND
@<TRIPOS>SUBSTRUCTURE
     1 ALC1       15 GROUP        1 X    ALC  0     ROOT ALC X 1
     2 SEC2       29 GROUP        1 X    SEC  0     **** SEC X 2
     3 GLC5        1 GROUP        1 X    GLC  0     **** GLC X 6
     4 ALP1       17 GROUP        1 Y    ALP  0     ROOT ALP Y 8
     5 SEP2       31 GROUP        1 Y    SEP  0     **** SEP Y 9
     6 GLP5        3 GROUP        1 Y    GLP  0     **** GLP Y 13
     7 ALL1       16 GROUP        1 Z    ALL  0     ROOT ALL Z 15
     8 SEL2       30 GROUP        1 Z    SEL  0     **** SEL Z 16
     9 GLL5        2 GROUP        1 Z    GLL  0     **** GLL Z 20
@<TRIPOS>SET

