#    Name: 3gub_GUB_1_ligand
#    Modification time : Tue Mar 25 12:59:07 2014

@<TRIPOS>MOLECULE
3gub_GUB_1_ligand
   48    51     1     0     0
SMALL
NO_CHARGES


@<TRIPOS>ATOM
      1 C2        -24.7770    5.6260   -6.5500 C.3       1 GUB296      0.0000 
      2 C3        -24.2630    5.7140   -7.9840 C.3       1 GUB296      0.0000 
      3 C5        -25.6800    5.5410  -10.0360 C.ar      1 GUB296      0.0000 
      4 O18       -21.0490    1.0490  -12.5800 O.3       1 GUB296      0.0000 
      5 C17       -21.5750    0.4270  -13.7680 C.3       1 GUB296      0.0000 
      6 C16       -22.5950    1.5180  -13.8330 C.3       1 GUB296      0.0000 
      7 C19       -22.4140    2.8040  -14.6600 C.3       1 GUB296      0.0000 
      8 O20       -21.6140    2.7510  -15.8590 O.3       1 GUB296      0.0000 
      9 O15       -23.9620    1.2290  -13.5850 O.3       1 GUB296      0.0000 
     10 C14       -24.5980    2.4890  -13.6630 C.3       1 GUB296      0.0000 
     11 C21       -23.8620    3.2550  -14.7800 C.3       1 GUB296      0.0000 
     12 O22       -24.3740    2.8310  -16.0430 O.3       1 GUB296      0.0000 
     13 N13       -24.4600    3.1790  -12.3350 N.pl3     1 GUB296      0.0000 
     14 C12       -23.5080    3.0320  -11.3840 C.2       1 GUB296      0.0000 
     15 N11       -23.7590    3.8850  -10.3630 N.2       1 GUB296      0.0000 
     16 C10       -24.8990    4.5630  -10.6650 C.ar      1 GUB296      0.0000 
     17 C9        -25.3190    4.1020  -11.9130 C.ar      1 GUB296      0.0000 
     18 N6        -26.7770    6.0130  -10.6920 N.ar      1 GUB296      0.0000 
     19 C7        -27.1590    5.5340  -11.8930 C.ar      1 GUB296      0.0000 
     20 N8        -26.4280    4.5930  -12.5140 N.ar      1 GUB296      0.0000 
     21 N4        -25.3920    6.1080   -8.8300 N.pl3     1 GUB296      0.0000 
     22 C1        -23.7270    5.1020   -5.5810 C.ar      1 GUB296      0.0000 
     23 C23       -23.4650    3.7370   -5.5100 C.ar      1 GUB296      0.0000 
     24 C24       -22.5070    3.2610   -4.6100 C.ar      1 GUB296      0.0000 
     25 C25       -21.8210    4.1590   -3.7740 C.ar      1 GUB296      0.0000 
     26 C26       -22.0910    5.5190   -3.8550 C.ar      1 GUB296      0.0000 
     27 C27       -23.0570    5.9910   -4.7390 C.ar      1 GUB296      0.0000 
     28 H         -25.6532    4.9653   -6.5240 H         1 GUB296      0.0000 
     29 H         -25.1022    6.6227   -6.2248 H         1 GUB296      0.0000 
     30 H         -23.8791    4.7447   -8.2734 H         1 GUB296      0.0000 
     31 H         -23.4716    6.4508   -8.0227 H         1 GUB296      0.0000 
     32 H         -22.0335   -0.4634  -13.5646 H         1 GUB296      0.0000 
     33 H         -20.9332    0.5060  -14.5593 H         1 GUB296      0.0000 
     34 H         -22.3375    2.0765  -12.6716 H         1 GUB296      0.0000 
     35 H         -21.9698    3.5337  -13.9101 H         1 GUB296      0.0000 
     36 H         -25.6191    2.4001  -13.9328 H         1 GUB296      0.0000 
     37 H         -23.9329    4.2743  -14.6023 H         1 GUB296      0.0000 
     38 H         -22.7628    2.4128  -11.4271 H         1 GUB296      0.0000 
     39 H         -28.0303    5.8985  -12.3425 H         1 GUB296      0.0000 
     40 H         -25.9942    6.8803   -8.4473 H         1 GUB296      0.0000 
     41 H         -23.9708    3.0812   -6.1138 H         1 GUB296      0.0000 
     42 H         -22.3025    2.2586   -4.5571 H         1 GUB296      0.0000 
     43 H         -21.1262    3.8044   -3.1103 H         1 GUB296      0.0000 
     44 H         -21.5750    6.1822   -3.2590 H         1 GUB296      0.0000 
     45 H         -23.2781    6.9937   -4.7730 H         1 GUB296      0.0000 
     46 H         -21.0393    0.3241  -11.8911 H         1 GUB296      0.0000 
     47 H         -21.4001    3.7049  -16.0697 H         1 GUB296      0.0000 
     48 H         -23.5980    2.8928  -16.6707 H         1 GUB296      0.0000 
@<TRIPOS>BOND
     1    2    1 1    
     2   22    1 1    
     3   28    1 1    
     4   29    1 1    
     5   21    2 1    
     6   30    2 1    
     7   31    2 1    
     8   16    3 ar   
     9   18    3 ar   
    10   21    3 1    
    11    5    4 1    
    12   46    4 1    
    13    6    5 1    
    14   32    5 1    
    15   33    5 1    
    16    7    6 1    
    17    9    6 1    
    18   34    6 1    
    19    8    7 1    
    20   11    7 1    
    21   35    7 1    
    22   47    8 1    
    23   10    9 1    
    24   11   10 1    
    25   13   10 1    
    26   36   10 1    
    27   12   11 1    
    28   37   11 1    
    29   48   12 1    
    30   14   13 1    
    31   17   13 1    
    32   15   14 2    
    33   38   14 1    
    34   16   15 1    
    35   17   16 ar   
    36   20   17 ar   
    37   19   18 ar   
    38   20   19 ar   
    39   39   19 1    
    40   40   21 1    
    41   23   22 ar   
    42   27   22 ar   
    43   24   23 ar   
    44   41   23 1    
    45   25   24 ar   
    46   42   24 1    
    47   26   25 ar   
    48   43   25 1    
    49   27   26 ar   
    50   44   26 1    
    51   45   27 1    
@<TRIPOS>SUBSTRUCTURE
     1 GUB296      1 GROUP   
@<TRIPOS>SET

