#    Name: 4b77_54M_1_INTS_M
#    Modification time : Tue Mar 25 06:52:14 2014

@<TRIPOS>MOLECULE
4b77_54M_1_INTS_M
   55     0     9     0     0
SMALL
NO_CHARGES


@<TRIPOS>ATOM
      1 CA          4.0370    7.1445  -27.2155 C.3       3 GLC5        0.0000 
      2 CA          5.5780    6.8520  -25.8940 C.3       9 GLL5        0.0000 
      3 CA          2.4960    7.4370  -28.5370 C.3       6 GLP5        0.0000 
      4 CA          7.6310    7.3415  -25.7545 C.3       3 GLC5        0.0000 
      5 CA          9.6840    7.8310  -25.6150 C.3       6 GLP5        0.0000 
      6 CA          6.2685    6.4260  -27.5405 C.3       3 GLC5        0.0000 
      7 CA          6.9590    6.0000  -29.1870 C.3       6 GLP5        0.0000 
      8 CA          6.3195    8.9230  -26.2015 C.3       3 GLC5        0.0000 
      9 CA          7.0610   10.9940  -26.5090 C.3       6 GLP5        0.0000 
     10 N           7.3795    5.4870  -26.2520 N.am      2 SEC2        0.0000 
     11 N           6.6450    6.2270  -25.1580 N.am      8 SEL2        0.0000 
     12 N           8.1140    4.7470  -27.3460 N.am      5 SEP2        0.0000 
     13 CA          8.3245    2.6770  -20.3730 C.3       3 GLC5        0.0000 
     14 CA          6.4280    3.0100  -19.6600 C.3       9 GLL5        0.0000 
     15 CA         10.2210    2.3440  -21.0860 C.3       6 GLP5        0.0000 
     16 CA          2.5555    1.9475  -18.5685 C.3       3 GLC5        0.0000 
     17 CA          4.0570    3.2780  -19.1430 C.3       9 GLL5        0.0000 
     18 CA          1.0540    0.6170  -17.9940 C.3       6 GLP5        0.0000 
     19 O           2.9705    3.1005  -21.0440 O.2       1 ALC1        0.0000 
     20 O           4.1270    2.9240  -20.3920 O.2       7 ALL1        0.0000 
     21 O           1.8140    3.2770  -21.6960 O.2       4 ALP1        0.0000 
     22 O           1.7090    3.4165  -19.1655 O.2       1 ALC1        0.0000 
     23 O           2.8860    3.5640  -18.4600 O.2       7 ALL1        0.0000 
     24 O           0.5320    3.2690  -19.8710 O.2       4 ALP1        0.0000 
     25 O           2.3500    3.4205  -20.0780 O.2       1 ALC1        0.0000 
     26 O           2.6490    3.9335  -17.0780 O.2       1 ALC1        0.0000 
     27 O           2.4120    4.3030  -15.6960 O.2       4 ALP1        0.0000 
     28 CA          2.3000   -0.7365  -18.6245 C.3       3 GLC5        0.0000 
     29 CA          3.5460   -2.0900  -19.2550 C.3       9 GLL5        0.0000 
     30 CA          3.6025   -5.8055  -18.1495 C.3       3 GLC5        0.0000 
     31 CA          3.9720   -3.9790  -17.9470 C.3       9 GLL5        0.0000 
     32 CA          3.2330   -7.6320  -18.3520 C.3       6 GLP5        0.0000 
     33 CA          2.0730   -4.7195  -18.3175 C.3       3 GLC5        0.0000 
     34 CA          0.1740   -5.4600  -18.6880 C.3       6 GLP5        0.0000 
     35 CA          6.3165   -4.8055  -19.9245 C.3       3 GLC5        0.0000 
     36 CA          5.7020   -3.1800  -19.2480 C.3       9 GLL5        0.0000 
     37 CA          6.9310   -6.4310  -20.6010 C.3       6 GLP5        0.0000 
     38 CA          8.2632    6.5095  -24.6600 C.3       3 GLC5        0.0000 
     39 CA          6.3390    5.3480  -24.1550 C.3       9 GLL5        0.0000 
     40 CA          9.1165    5.3243  -22.0433 C.3       3 GLC5        0.0000 
     41 CA          7.3460    5.0280  -23.2550 C.3       9 GLL5        0.0000 
     42 CA         11.0200    6.0510  -21.3630 C.3       6 GLP5        0.0000 
     43 CA          3.7824    5.5057  -23.1115 C.3       3 GLC5        0.0000 
     44 CA          4.8000    3.8810  -22.9860 C.3       9 GLL5        0.0000 
     45 CA          2.3170    6.5400  -22.6840 C.3       6 GLP5        0.0000 
     46 CA          4.6470    2.2971  -23.6986 C.3       3 GLC5        0.0000 
     47 CA          5.0520    4.7760  -24.0290 C.3       9 GLL5        0.0000 
     48 CA          3.9300    0.6310  -24.6190 C.3       6 GLP5        0.0000 
     49 CA          4.7080    0.6720  -22.7182 C.3       3 GLC5        0.0000 
     50 CA          5.7440    1.2110  -21.2310 C.3       9 GLL5        0.0000 
     51 CA          5.1829   -0.0224  -23.3720 C.3       3 GLC5        0.0000 
     52 CA          6.5310    0.8410  -22.3260 C.3       9 GLL5        0.0000 
     53 CA          2.5790   -2.7618  -20.5150 C.3       3 GLC5        0.0000 
     54 CA          4.8700   -2.1490  -19.7350 C.3       9 GLL5        0.0000 
     55 CA          0.9500   -3.4040  -21.5350 C.3       6 GLP5        0.0000 
@<TRIPOS>BOND
@<TRIPOS>SUBSTRUCTURE
     1 ALC1       19 GROUP        1 X    ALC  0     ROOT ALC X 1
     2 SEC2       10 GROUP        1 X    SEC  0     **** SEC X 2
     3 GLC5        1 GROUP        1 X    GLC  0     **** GLC X 6
     4 ALP1       21 GROUP        1 Y    ALP  0     ROOT ALP Y 8
     5 SEP2       12 GROUP        1 Y    SEP  0     **** SEP Y 9
     6 GLP5        3 GROUP        1 Y    GLP  0     **** GLP Y 13
     7 ALL1       20 GROUP        1 Z    ALL  0     ROOT ALL Z 15
     8 SEL2       11 GROUP        1 Z    SEL  0     **** SEL Z 16
     9 GLL5        2 GROUP        1 Z    GLL  0     **** GLL Z 20
@<TRIPOS>SET

