#    Name: 4b77_54M_1_ligand
#    Modification time : Tue Mar 25 06:52:14 2014

@<TRIPOS>MOLECULE
4b77_54M_1_ligand
   47    50     1     0     0
SMALL
NO_CHARGES


@<TRIPOS>ATOM
      1 C15         5.5780    6.8520  -25.8940 C.3       1 54M1504     0.0000 
      2 O14         6.6450    6.2270  -25.1580 O.3       1 54M1504     0.0000 
      3 C2          6.3390    5.3480  -24.1550 C.ar      1 54M1504     0.0000 
      4 C3          7.3460    5.0280  -23.2550 C.ar      1 54M1504     0.0000 
      5 C4          7.0800    4.1670  -22.1920 C.ar      1 54M1504     0.0000 
      6 C1          5.0520    4.7760  -24.0290 C.ar      1 54M1504     0.0000 
      7 C6          4.8000    3.8810  -22.9860 C.ar      1 54M1504     0.0000 
      8 C5          5.8020    3.5980  -22.0490 C.ar      1 54M1504     0.0000 
      9 C7          5.5010    2.6590  -20.8840 C.3       1 54M1504     0.0000 
     10 C19         6.4280    3.0100  -19.6600 C.3       1 54M1504     0.0000 
     11 C17         4.0570    3.2780  -19.1430 C.2       1 54M1504     0.0000 
     12 N16         4.1270    2.9240  -20.3920 N.pl3     1 54M1504     0.0000 
     13 N20         2.8860    3.5640  -18.4600 N.pl3     1 54M1504     0.0000 
     14 C8          5.7440    1.2110  -21.2310 C.ar      1 54M1504     0.0000 
     15 C13         5.2280    0.2150  -20.4040 C.ar      1 54M1504     0.0000 
     16 C9          6.5310    0.8410  -22.3260 C.ar      1 54M1504     0.0000 
     17 C10         6.7480   -0.5180  -22.6040 C.ar      1 54M1504     0.0000 
     18 C11         6.2320   -1.5130  -21.7850 C.ar      1 54M1504     0.0000 
     19 C12         5.4360   -1.1330  -20.6940 C.ar      1 54M1504     0.0000 
     20 C21         4.8700   -2.1490  -19.7350 C.ar      1 54M1504     0.0000 
     21 C14         5.4460    3.3210  -18.5090 C.3       1 54M1504     0.0000 
     22 C26         3.5460   -2.0900  -19.2550 C.ar      1 54M1504     0.0000 
     23 N21         3.1620   -3.0270  -18.3680 N.ar      1 54M1504     0.0000 
     24 C24         3.9720   -3.9790  -17.9470 C.ar      1 54M1504     0.0000 
     25 N23         5.2330   -4.0730  -18.3740 N.ar      1 54M1504     0.0000 
     26 C22         5.7020   -3.1800  -19.2480 C.ar      1 54M1504     0.0000 
     27 H           8.2871    5.4241  -23.3702 H         1 54M1504     0.0000 
     28 H           7.8133    3.9445  -21.5102 H         1 54M1504     0.0000 
     29 H           4.3212    5.0188  -24.6956 H         1 54M1504     0.0000 
     30 H           3.8824    3.4307  -22.9052 H         1 54M1504     0.0000 
     31 H           6.9934    3.8698  -19.8962 H         1 54M1504     0.0000 
     32 H           7.0109    2.1631  -19.4200 H         1 54M1504     0.0000 
     33 H           3.3794    2.8139  -21.0386 H         1 54M1504     0.0000 
     34 H           2.0450    3.5429  -19.0005 H         1 54M1504     0.0000 
     35 H           2.9832    3.7668  -17.4856 H         1 54M1504     0.0000 
     36 H           4.6848    0.4781  -19.5659 H         1 54M1504     0.0000 
     37 H           6.9494    1.5579  -22.9255 H         1 54M1504     0.0000 
     38 H           7.3049   -0.7762  -23.4381 H         1 54M1504     0.0000 
     39 H           6.4221   -2.4940  -21.9654 H         1 54M1504     0.0000 
     40 H           5.6438    4.2962  -18.1319 H         1 54M1504     0.0000 
     41 H           5.5288    2.5669  -17.7627 H         1 54M1504     0.0000 
     42 H           2.9268   -1.3548  -19.5851 H         1 54M1504     0.0000 
     43 H           3.6167   -4.6954  -17.2474 H         1 54M1504     0.0000 
     44 H           6.6806   -3.2147  -19.5929 H         1 54M1504     0.0000 
     45 H           5.9255    7.4735  -26.5961 H         1 54M1504     0.0000 
     46 H           5.0024    6.1784  -26.3577 H         1 54M1504     0.0000 
     47 H           4.9800    7.3879  -25.2981 H         1 54M1504     0.0000 
@<TRIPOS>BOND
     1    2    1 1    
     2   45    1 1    
     3   46    1 1    
     4   47    1 1    
     5    3    2 1    
     6    4    3 ar   
     7    6    3 ar   
     8    5    4 ar   
     9   27    4 1    
    10    8    5 ar   
    11   28    5 1    
    12    7    6 ar   
    13   29    6 1    
    14    8    7 ar   
    15   30    7 1    
    16    9    8 1    
    17   10    9 1    
    18   12    9 1    
    19   14    9 1    
    20   21   10 1    
    21   31   10 1    
    22   32   10 1    
    23   12   11 1    
    24   13   11 2    
    25   21   11 1    
    26   33   12 1    
    27   34   13 1    
    28   35   13 1    
    29   15   14 ar   
    30   16   14 ar   
    31   19   15 ar   
    32   36   15 1    
    33   17   16 ar   
    34   37   16 1    
    35   18   17 ar   
    36   38   17 1    
    37   19   18 ar   
    38   39   18 1    
    39   20   19 1    
    40   22   20 ar   
    41   26   20 ar   
    42   40   21 1    
    43   41   21 1    
    44   23   22 ar   
    45   42   22 1    
    46   24   23 ar   
    47   25   24 ar   
    48   43   24 1    
    49   26   25 ar   
    50   44   26 1    
@<TRIPOS>SUBSTRUCTURE
     1 54M1504     1 GROUP   
@<TRIPOS>SET

