#    Name: 4d9e_LCS_7_INTS_M
#    Modification time : Tue Mar 25 09:27:26 2014

@<TRIPOS>MOLECULE
4d9e_LCS_7_INTS_M
   74     0     9     0     0
SMALL
NO_CHARGES


@<TRIPOS>ATOM
      1 N          -0.1475   86.7625   18.6310 N.am      1 SEC2        0.0000 
      2 N          -0.8670   85.7820   19.0590 N.am      7 SEL2        0.0000 
      3 N           0.5720   87.7430   18.2030 N.am      4 SEP2        0.0000 
      4 CA         -1.0955   83.2410   17.8260 C.3       3 GLC5        0.0000 
      5 CA          0.6250   83.9830   18.5260 C.3       9 GLL5        0.0000 
      6 CA         -2.8160   82.4990   17.1260 C.3       6 GLP5        0.0000 
      7 CA          2.4255   84.2250   18.0400 C.3       3 GLC5        0.0000 
      8 CA          4.2260   84.4670   17.5540 C.3       6 GLP5        0.0000 
      9 CA          1.4710   82.7295   17.3825 C.3       3 GLC5        0.0000 
     10 CA          2.3170   81.4760   16.2390 C.3       6 GLP5        0.0000 
     11 N          -0.4775   81.5400   19.4540 N.am      1 SEC2        0.0000 
     12 N          -0.8180   82.5180   20.4500 N.am      7 SEL2        0.0000 
     13 N          -0.1370   80.5620   18.4580 N.am      4 SEP2        0.0000 
     14 CA         -4.0320   83.5425   20.4580 C.3       3 GLC5        0.0000 
     15 CA         -3.2570   83.7900   22.0130 C.3       9 GLL5        0.0000 
     16 CA         -4.8070   83.2950   18.9030 C.3       6 GLP5        0.0000 
     17 CA         -2.6385   87.7530   18.5135 C.3       3 GLC5        0.0000 
     18 CA         -1.8680   86.3700   19.6500 C.3       9 GLL5        0.0000 
     19 CA         -3.4090   89.1360   17.3770 C.3       6 GLP5        0.0000 
     20 CA         -2.2260   85.6070   17.9260 C.3       3 GLC5        0.0000 
     21 CA         -2.5840   84.8440   16.2020 C.3       6 GLP5        0.0000 
     22 CA         -0.2550   87.1030   19.5300 C.3       3 GLC5        0.0000 
     23 CA          1.3580   87.8360   19.4100 C.3       6 GLP5        0.0000 
     24 CA         -5.7790   86.8370   21.2580 C.3       3 GLC5        0.0000 
     25 CA         -3.7310   86.6080   21.1980 C.3       9 GLL5        0.0000 
     26 CA         -7.8270   87.0660   21.3180 C.3       6 GLP5        0.0000 
     27 CA         -3.9790   85.4140   19.6085 C.3       3 GLC5        0.0000 
     28 CA         -4.2270   84.2200   18.0190 C.3       6 GLP5        0.0000 
     29 N          -1.6805   87.0950   22.6375 N.am      1 SEC2        0.0000 
     30 N          -3.3710   87.3390   22.3190 N.am      7 SEL2        0.0000 
     31 N           0.0100   86.8510   22.9560 N.am      4 SEP2        0.0000 
     32 N          -6.1475   88.3940   22.2540 N.am      1 SEC2        0.0000 
     33 N          -5.0760   88.4010   23.2940 N.am      7 SEL2        0.0000 
     34 N          -7.2190   88.3870   21.2140 N.am      4 SEP2        0.0000 
     35 N          -6.1755   88.3975   24.2410 N.am      1 SEC2        0.0000 
     36 N          -7.2750   88.3940   25.1880 N.am      4 SEP2        0.0000 
     37 NZ         -3.4165   85.6600   24.4465 N.4       2 LYC4        0.0000 
     38 NZ         -4.6760   86.0590   23.4460 N.4       8 LYL4        0.0000 
     39 NZ         -2.1570   85.2610   25.4470 N.4       5 LYP4        0.0000 
     40 N          -3.4165   85.6600   24.4465 N.am      1 SEC2        0.0000 
     41 N          -4.6760   86.0590   23.4460 N.am      7 SEL2        0.0000 
     42 N          -2.1570   85.2610   25.4470 N.am      4 SEP2        0.0000 
     43 N          -6.1760   86.1730   23.5190 N.am      1 SEC2        0.0000 
     44 N          -7.6760   86.2870   23.5920 N.am      4 SEP2        0.0000 
     45 N          -5.4075   85.6385   24.7405 N.am      1 SEC2        0.0000 
     46 N          -6.1390   85.2180   26.0350 N.am      4 SEP2        0.0000 
     47 NZ         -2.7630   86.3955   25.0835 N.4       2 LYC4        0.0000 
     48 NZ         -3.3690   87.5300   24.7200 N.4       8 LYL4        0.0000 
     49 N          -2.7630   86.3955   25.0835 N.am      1 SEC2        0.0000 
     50 N          -3.3690   87.5300   24.7200 N.am      7 SEL2        0.0000 
     51 N          -3.1260   89.0025   25.3810 N.am      1 SEC2        0.0000 
     52 N          -2.8830   90.4750   26.0420 N.am      4 SEP2        0.0000 
     53 N          -2.2420   88.3585   24.5020 N.am      1 SEC2        0.0000 
     54 N          -1.1150   89.1870   24.2840 N.am      4 SEP2        0.0000 
     55 CA         -2.9300   80.9340   24.2865 C.3       3 GLC5        0.0000 
     56 CA         -4.1710   82.1110   23.3750 C.3       9 GLL5        0.0000 
     57 CA         -1.6890   79.7570   25.1980 C.3       6 GLP5        0.0000 
     58 N          -3.7690   78.5310   23.2895 N.am      1 SEC2        0.0000 
     59 N          -4.5660   79.6780   23.6450 N.am      7 SEL2        0.0000 
     60 N          -2.9720   77.3840   22.9340 N.am      4 SEP2        0.0000 
     61 CA         -6.3450   84.0255   24.3305 C.3       3 GLC5        0.0000 
     62 CA         -5.2180   83.0960   22.9940 C.3       9 GLL5        0.0000 
     63 CA         -7.4720   84.9550   25.6670 C.3       6 GLP5        0.0000 
     64 CA         -5.0125   83.1955   20.9485 C.3       3 GLC5        0.0000 
     65 CA         -1.7255   84.4930   17.9835 C.3       3 GLC5        0.0000 
     66 CA         -1.2240   83.7470   20.2560 C.3       9 GLL5        0.0000 
     67 CA          0.7078   86.0480   19.1550 C.3       3 GLC5        0.0000 
     68 CA         -0.5100   84.5370   19.2740 C.3       9 GLL5        0.0000 
     69 CA         -2.0700   84.1198   23.1790 C.3       3 GLC5        0.0000 
     70 CA         -2.3490   84.3950   20.9650 C.3       9 GLL5        0.0000 
     71 CA         -1.3370   84.1470   24.8690 C.3       6 GLP5        0.0000 
     72 CA         -3.0157   83.3752   24.0267 C.3       3 GLC5        0.0000 
     73 CA         -4.5263   82.5563   25.0932 C.3       3 GLC5        0.0000 
     74 CA         -4.3580   82.5090   27.0020 C.3       6 GLP5        0.0000 
@<TRIPOS>BOND
@<TRIPOS>SUBSTRUCTURE
     1 SEC2        1 GROUP        1 X    SEC  0     ROOT SEC X 2
     2 LYC4       37 GROUP        1 X    LYC  0     **** LYC X 4
     3 GLC5        4 GROUP        1 X    GLC  0     **** GLC X 6
     4 SEP2        3 GROUP        1 Y    SEP  0     ROOT SEP Y 9
     5 LYP4       39 GROUP        1 Y    LYP  0     **** LYP Y 11
     6 GLP5        6 GROUP        1 Y    GLP  0     **** GLP Y 13
     7 SEL2        2 GROUP        1 Z    SEL  0     ROOT SEL Z 16
     8 LYL4       38 GROUP        1 Z    LYL  0     **** LYL Z 18
     9 GLL5        5 GROUP        1 Z    GLL  0     **** GLL Z 20
@<TRIPOS>SET

