#    Name: 4d9e_LCS_7_ligand
#    Modification time : Tue Mar 25 09:27:26 2014

@<TRIPOS>MOLECULE
4d9e_LCS_7_ligand
   35    36     1     0     0
SMALL
NO_CHARGES


@<TRIPOS>ATOM
      1 N1         -0.8670   85.7820   19.0590 N.ar      1 LCS402      0.0000 
      2 C2         -0.5100   84.5370   19.2740 C.ar      1 LCS402      0.0000 
      3 C2A         0.6250   83.9830   18.5260 C.3       1 LCS402      0.0000 
      4 C3         -1.2240   83.7470   20.2560 C.ar      1 LCS402      0.0000 
      5 O3         -0.8180   82.5180   20.4500 O.3       1 LCS402      0.0000 
      6 C4         -2.3490   84.3950   20.9650 C.ar      1 LCS402      0.0000 
      7 C4A        -3.2570   83.7900   22.0130 C.3       1 LCS402      0.0000 
      8 C5         -2.6260   85.7970   20.6000 C.ar      1 LCS402      0.0000 
      9 C6         -1.8680   86.3700   19.6500 C.ar      1 LCS402      0.0000 
     10 C5A        -3.7310   86.6080   21.1980 C.3       1 LCS402      0.0000 
     11 O4P        -3.3710   87.3390   22.3190 O.3       1 LCS402      0.0000 
     12 P          -4.1990   87.3500   23.5700 P.3       1 LCS402      0.0000 
     13 O1P        -5.0760   88.4010   23.2940 O.co2     1 LCS402      0.0000 
     14 O2P        -4.6760   86.0590   23.4460 O.co2     1 LCS402      0.0000 
     15 O3P        -3.3690   87.5300   24.7200 O.co2     1 LCS402      0.0000 
     16 N          -3.0930   82.4700   22.5080 N.4       1 LCS402      0.0000 
     17 CA         -4.1710   82.1110   23.3750 C.3       1 LCS402      0.0000 
     18 C          -4.9430   80.8160   23.3320 C.2       1 LCS402      0.0000 
     19 O          -4.5660   79.6780   23.6450 O.2       1 LCS402      0.0000 
     20 ND         -6.1920   81.1190   23.0060 N.am      1 LCS402      0.0000 
     21 OG         -6.4000   82.3780   23.1650 O.3       1 LCS402      0.0000 
     22 CB         -5.2180   83.0960   22.9940 C.3       1 LCS402      0.0000 
     23 H          -4.3374   83.9268   21.6200 H         1 LCS402      0.0000 
     24 H          -3.2712   84.5380   22.8966 H         1 LCS402      0.0000 
     25 H          -2.1178   87.3818   19.3706 H         1 LCS402      0.0000 
     26 H          -4.5803   85.9032   21.4188 H         1 LCS402      0.0000 
     27 H          -4.1361   87.2713   20.3839 H         1 LCS402      0.0000 
     28 H          -3.9487   82.3560   24.4204 H         1 LCS402      0.0000 
     29 H          -6.8556   80.4515   22.6866 H         1 LCS402      0.0000 
     30 H          -5.0577   83.3952   21.9707 H         1 LCS402      0.0000 
     31 H          -5.1499   83.9475   23.6519 H         1 LCS402      0.0000 
     32 H           1.4671   84.4949   18.6958 H         1 LCS402      0.0000 
     33 H           0.8051   83.0315   18.7753 H         1 LCS402      0.0000 
     34 H           0.4643   84.0021   17.5392 H         1 LCS402      0.0000 
     35 H          -0.0826   82.5918   21.1236 H         1 LCS402      0.0000 
@<TRIPOS>BOND
     1    2    1 ar   
     2    9    1 ar   
     3    3    2 1    
     4    4    2 ar   
     5   32    3 1    
     6   33    3 1    
     7   34    3 1    
     8    5    4 1    
     9    6    4 ar   
    10   35    5 1    
    11    7    6 1    
    12    8    6 ar   
    13   16    7 1    
    14   23    7 1    
    15   24    7 1    
    16    9    8 ar   
    17   10    8 1    
    18   25    9 1    
    19   11   10 1    
    20   26   10 1    
    21   27   10 1    
    22   12   11 1    
    23   13   12 ar   
    24   14   12 ar   
    25   15   12 ar   
    26   17   16 1    
    27   18   17 1    
    28   22   17 1    
    29   28   17 1    
    30   19   18 2    
    31   20   18 am   
    32   21   20 1    
    33   29   20 1    
    34   22   21 1    
    35   30   22 1    
    36   31   22 1    
@<TRIPOS>SUBSTRUCTURE
     1 LCS402      1 GROUP   
@<TRIPOS>SET

