#    Name: 3ptg_932_1_INTS_M
#    Modification time : Tue Mar 25 08:28:25 2014

@<TRIPOS>MOLECULE
3ptg_932_1_INTS_M
   48     0     6     0     0
SMALL
NO_CHARGES


@<TRIPOS>ATOM
      1 CA          4.1290    0.0855   33.7355 C.3       2 GLC5        0.0000 
      2 CA          2.3070    1.1730   33.0450 C.3       6 GLL5        0.0000 
      3 CA          5.9510   -1.0020   34.4260 C.3       4 GLP5        0.0000 
      4 CA          1.1350    3.6070   32.3710 C.3       2 GLC5        0.0000 
      5 CA          2.7580    2.5720   33.0720 C.3       6 GLL5        0.0000 
      6 CA         -0.4880    4.6420   31.6700 C.3       4 GLP5        0.0000 
      7 CA          2.3580   -2.9900   33.4400 C.3       2 GLC5        0.0000 
      8 CA          2.8040   -1.1910   32.4160 C.3       6 GLL5        0.0000 
      9 CA          1.9120   -4.7890   34.4640 C.3       4 GLP5        0.0000 
     10 CA          4.3775   -1.0965   33.4210 C.3       2 GLC5        0.0000 
     11 CA          3.3910   -2.3285   31.3145 C.3       2 GLC5        0.0000 
     12 CA          3.9780   -3.4660   30.2130 C.3       4 GLP5        0.0000 
     13 N           0.4365   -3.3420   33.7080 N.am      1 SEC2        0.0000 
     14 N           1.1220   -2.9430   32.4060 N.am      5 SEL2        0.0000 
     15 N          -0.2490   -3.7410   35.0100 N.am      3 SEP2        0.0000 
     16 CA         -1.2050   -1.0660   32.1650 C.3       2 GLC5        0.0000 
     17 CA         -0.2430   -1.7560   30.4080 C.3       6 GLL5        0.0000 
     18 CA         -2.1670   -0.3760   33.9220 C.3       4 GLP5        0.0000 
     19 CA         -1.1795   -5.2010   30.9115 C.3       2 GLC5        0.0000 
     20 CA         -1.1640   -3.1460   30.8090 C.3       6 GLL5        0.0000 
     21 CA         -1.1950   -7.2560   31.0140 C.3       4 GLP5        0.0000 
     22 CA         -1.8890   -3.4175   32.6625 C.3       2 GLC5        0.0000 
     23 CA         -2.6140   -3.6890   34.5160 C.3       4 GLP5        0.0000 
     24 CA         -2.6770   -5.1285   28.9695 C.3       2 GLC5        0.0000 
     25 CA         -2.3320   -3.0520   29.4800 C.3       6 GLL5        0.0000 
     26 CA         -3.0220   -7.2050   28.4590 C.3       4 GLP5        0.0000 
     27 CA         -4.1895   -4.0070   29.3095 C.3       2 GLC5        0.0000 
     28 CA         -6.0470   -4.9620   29.1390 C.3       4 GLP5        0.0000 
     29 CA         -3.2975    0.1385   27.8840 C.3       2 GLC5        0.0000 
     30 CA         -2.8910   -1.6990   27.4470 C.3       6 GLL5        0.0000 
     31 CA         -3.7040    1.9760   28.3210 C.3       4 GLP5        0.0000 
     32 CA         -3.8025   -1.2635   29.2530 C.3       2 GLC5        0.0000 
     33 CA         -4.7140   -0.8280   31.0590 C.3       4 GLP5        0.0000 
     34 CA         -3.6205   -3.2050   26.7160 C.3       2 GLC5        0.0000 
     35 CA         -4.3500   -4.7110   25.9850 C.3       4 GLP5        0.0000 
     36 CA         -0.5370    0.4488   34.1812 C.3       2 GLC5        0.0000 
     37 CA          1.3490    0.8050   33.9890 C.3       6 GLL5        0.0000 
     38 CA          0.0657    1.7793   32.8508 C.3       2 GLC5        0.0000 
     39 CA         -1.2010    2.1930   31.4970 C.3       4 GLP5        0.0000 
     40 CA          0.3350    4.1212   33.7632 C.3       2 GLC5        0.0000 
     41 CA          1.2360    3.0720   34.8960 C.3       6 GLL5        0.0000 
     42 CA         -1.0450    4.9630   33.0910 C.3       4 GLP5        0.0000 
     43 CA         -0.8668    0.3620   30.6453 C.3       2 GLC5        0.0000 
     44 CA         -2.5602    0.2070   28.6215 C.3       2 GLC5        0.0000 
     45 CA         -2.0110   -1.9420   28.6650 C.3       6 GLL5        0.0000 
     46 CA         -3.1481   -1.5792   30.2961 C.3       2 GLC5        0.0000 
     47 CA         -0.3411   -3.3229   28.6246 C.3       2 GLC5        0.0000 
     48 CA          0.7850   -4.4890   27.7660 C.3       4 GLP5        0.0000 
@<TRIPOS>BOND
@<TRIPOS>SUBSTRUCTURE
     1 SEC2       13 GROUP        1 X    SEC  0     ROOT SEC X 2
     2 GLC5        1 GROUP        1 X    GLC  0     **** GLC X 6
     3 SEP2       15 GROUP        1 Y    SEP  0     ROOT SEP Y 9
     4 GLP5        3 GROUP        1 Y    GLP  0     **** GLP Y 13
     5 SEL2       14 GROUP        1 Z    SEL  0     ROOT SEL Z 16
     6 GLL5        2 GROUP        1 Z    GLL  0     **** GLL Z 20
@<TRIPOS>SET

