#    Name: 3ptg_932_1_ligand
#    Modification time : Tue Mar 25 08:28:25 2014

@<TRIPOS>MOLECULE
3ptg_932_1_ligand
   43    46     1     0     0
SMALL
NO_CHARGES


@<TRIPOS>ATOM
      1 C1          2.3070    1.1730   33.0450 C.ar      1 9321        0.0000 
      2 N2          2.8700    0.2650   32.1030 N.am      1 9321        0.0000 
      3 C3          3.4810    0.7850   30.9930 C.2       1 9321        0.0000 
      4 C4          3.5110    2.2740   30.7700 C.3       1 9321        0.0000 
      5 C5          3.8000    3.0090   32.0710 C.3       1 9321        0.0000 
      6 C6          2.7580    2.5720   33.0720 C.ar      1 9321        0.0000 
      7 C7          1.3490    0.8050   33.9890 C.ar      1 9321        0.0000 
      8 C8          0.8370    1.7420   34.8920 C.ar      1 9321        0.0000 
      9 C9          1.2360    3.0720   34.8960 C.ar      1 9321        0.0000 
     10 C10         2.1940    3.4870   33.9750 C.ar      1 9321        0.0000 
     11 C11         2.8040   -1.1910   32.4160 C.3       1 9321        0.0000 
     12 C12         1.5220   -1.8600   31.9750 C.2       1 9321        0.0000 
     13 O13         1.1220   -2.9430   32.4060 O.2       1 9321        0.0000 
     14 N14         0.8330   -1.2180   31.0560 N.am      1 9321        0.0000 
     15 C15        -0.2430   -1.7560   30.4080 C.2       1 9321        0.0000 
     16 S16        -1.1640   -3.1460   30.8090 S.3       1 9321        0.0000 
     17 C17        -2.3320   -3.0520   29.4800 C.2       1 9321        0.0000 
     18 C18        -2.0110   -1.9420   28.6650 C.2       1 9321        0.0000 
     19 C19        -0.8220   -1.1820   29.1790 C.2       1 9321        0.0000 
     20 C20        -0.1960    0.0220   28.5500 C.2       1 9321        0.0000 
     21 N21        -0.5110    0.4850   27.3710 N.pl3     1 9321        0.0000 
     22 N22         0.3510    1.5690   27.1580 N.2       1 9321        0.0000 
     23 C23         1.1330    1.6580   28.2410 C.2       1 9321        0.0000 
     24 N24         0.8020    0.6840   29.1250 N.2       1 9321        0.0000 
     25 C25        -2.8910   -1.6990   27.4470 C.3       1 9321        0.0000 
     26 O26         4.0290    0.0970   30.1240 O.2       1 9321        0.0000 
     27 H           2.5478    2.6070   30.3789 H         1 9321        0.0000 
     28 H           4.2852    2.5214   30.0413 H         1 9321        0.0000 
     29 H           3.7286    4.0704   31.9064 H         1 9321        0.0000 
     30 H           4.7818    2.7422   32.4228 H         1 9321        0.0000 
     31 H           1.0127   -0.1700   34.0231 H         1 9321        0.0000 
     32 H           0.1261    1.4246   35.5899 H         1 9321        0.0000 
     33 H           0.8357    3.7338   35.5606 H         1 9321        0.0000 
     34 H           2.4945    4.4713   33.9519 H         1 9321        0.0000 
     35 H           2.9250   -1.3407   33.5080 H         1 9321        0.0000 
     36 H           3.6585   -1.7115   31.9381 H         1 9321        0.0000 
     37 H           1.1130   -0.2223   30.7874 H         1 9321        0.0000 
     38 H          -2.9511   -3.6909   29.4913 H         1 9321        0.0000 
     39 H          -1.1649    0.1960   26.7523 H         1 9321        0.0000 
     40 H           1.8357    2.3183   28.3822 H         1 9321        0.0000 
     41 H          -2.5949   -0.8965   26.9290 H         1 9321        0.0000 
     42 H          -2.8766   -2.4759   26.8175 H         1 9321        0.0000 
     43 H          -3.8456   -1.5468   27.7030 H         1 9321        0.0000 
@<TRIPOS>BOND
     1    2    1 1    
     2    6    1 ar   
     3    7    1 ar   
     4    3    2 am   
     5   11    2 1    
     6    4    3 1    
     7   26    3 2    
     8    5    4 1    
     9   27    4 1    
    10   28    4 1    
    11    6    5 1    
    12   29    5 1    
    13   30    5 1    
    14   10    6 ar   
    15    8    7 ar   
    16   31    7 1    
    17    9    8 ar   
    18   32    8 1    
    19   10    9 ar   
    20   33    9 1    
    21   34   10 1    
    22   12   11 1    
    23   35   11 1    
    24   36   11 1    
    25   13   12 2    
    26   14   12 am   
    27   15   14 1    
    28   37   14 1    
    29   16   15 1    
    30   19   15 2    
    31   17   16 1    
    32   18   17 2    
    33   38   17 1    
    34   19   18 1    
    35   25   18 1    
    36   20   19 1    
    37   21   20 1    
    38   24   20 2    
    39   22   21 1    
    40   39   21 1    
    41   23   22 2    
    42   24   23 1    
    43   40   23 1    
    44   41   25 1    
    45   42   25 1    
    46   43   25 1    
@<TRIPOS>SUBSTRUCTURE
     1 9321        1 GROUP   
@<TRIPOS>SET

