#    Name: 4h4m_494_1_INTS_M
#    Modification time : Tue Mar 25 00:20:18 2014

@<TRIPOS>MOLECULE
4h4m_494_1_INTS_M
   86     0     9     0     0
SMALL
NO_CHARGES


@<TRIPOS>ATOM
      1 CA        273.5795  -24.2510   18.5685 C.3       3 GLC5        0.0000 
      2 CA        272.3090  -22.7770   19.4290 C.3       9 GLL5        0.0000 
      3 CA        274.8500  -25.7250   17.7080 C.3       6 GLP5        0.0000 
      4 CA        273.9420  -22.3410   22.0970 C.3       3 GLC5        0.0000 
      5 CA        272.6400  -23.1390   20.7460 C.3       9 GLL5        0.0000 
      6 CA        275.2440  -21.5430   23.4480 C.3       6 GLP5        0.0000 
      7 CA        268.9860  -23.4985   22.2910 C.3       3 GLC5        0.0000 
      8 CA        270.5160  -24.4000   20.9780 C.3       9 GLL5        0.0000 
      9 CA        267.4560  -22.5970   23.6040 C.3       6 GLP5        0.0000 
     10 CA        270.5155  -24.6175   16.8665 C.3       3 GLC5        0.0000 
     11 CA        270.6510  -22.7970   17.2810 C.3       9 GLL5        0.0000 
     12 CA        270.3800  -26.4380   16.4520 C.3       6 GLP5        0.0000 
     13 CA        271.8800  -22.6620   16.1935 C.3       3 GLC5        0.0000 
     14 CA        273.1090  -22.5270   15.1060 C.3       6 GLP5        0.0000 
     15 CA        270.5995  -21.2520   18.4060 C.3       3 GLC5        0.0000 
     16 CA        270.5480  -19.7070   19.5310 C.3       6 GLP5        0.0000 
     17 CA        269.8395  -18.1500   24.8335 C.3       3 GLC5        0.0000 
     18 CA        270.2410  -19.7520   24.4260 C.3       9 GLL5        0.0000 
     19 CA        269.4380  -16.5480   25.2410 C.3       6 GLP5        0.0000 
     20 CA        269.0425  -20.2765   23.1705 C.3       3 GLC5        0.0000 
     21 CA        267.8440  -20.8010   21.9150 C.3       6 GLP5        0.0000 
     22 CA        270.9120  -19.5950   22.4160 C.3       3 GLC5        0.0000 
     23 CA        271.5830  -19.4380   20.4060 C.3       6 GLP5        0.0000 
     24 CA        272.3850  -19.8175   24.8185 C.3       3 GLC5        0.0000 
     25 CA        274.5290  -19.8830   25.2110 C.3       6 GLP5        0.0000 
     26 CA        269.9480  -19.3445   26.2260 C.3       3 GLC5        0.0000 
     27 CA        269.6550  -18.9370   28.0260 C.3       6 GLP5        0.0000 
     28 CA        272.4605  -22.1540   28.9980 C.3       3 GLC5        0.0000 
     29 CA        273.0270  -22.8510   27.4910 C.3       9 GLL5        0.0000 
     30 CA        271.8940  -21.4570   30.5050 C.3       6 GLP5        0.0000 
     31 CA        267.0045  -27.1190   23.6425 C.3       3 GLC5        0.0000 
     32 CA        268.5460  -26.8680   23.0310 C.3       9 GLL5        0.0000 
     33 CA        265.4630  -27.3700   24.2540 C.3       6 GLP5        0.0000 
     34 O         269.7135  -30.3490   19.6445 O.2       1 ALC1        0.0000 
     35 O         269.4750  -29.9400   21.2040 O.2       7 ALL1        0.0000 
     36 O         269.9520  -30.7580   18.0850 O.2       4 ALP1        0.0000 
     37 CA        272.0595  -29.0510   22.4975 C.3       3 GLC5        0.0000 
     38 CA        270.6340  -29.9380   23.2860 C.3       9 GLL5        0.0000 
     39 CA        273.4850  -28.1640   21.7090 C.3       6 GLP5        0.0000 
     40 CA        271.7885  -31.2965   24.6235 C.3       3 GLC5        0.0000 
     41 CA        272.9430  -32.6550   25.9610 C.3       6 GLP5        0.0000 
     42 CA        272.1040  -29.5450   24.5575 C.3       3 GLC5        0.0000 
     43 CA        273.5740  -29.1520   25.8290 C.3       6 GLP5        0.0000 
     44 CA        271.1865  -28.2610   22.1780 C.3       3 GLC5        0.0000 
     45 CA        270.0380  -28.7490   23.5670 C.3       9 GLL5        0.0000 
     46 CA        272.3350  -27.7730   20.7890 C.3       6 GLP5        0.0000 
     47 CA        271.3385  -28.8180   25.1895 C.3       3 GLC5        0.0000 
     48 CA        272.6390  -28.8870   26.8120 C.3       6 GLP5        0.0000 
     49 N         268.2435  -28.4225   19.0255 N.am      2 SEC2        0.0000 
     50 N         268.0860  -28.2810   20.5960 N.am      8 SEL2        0.0000 
     51 N         268.4010  -28.5640   17.4550 N.am      5 SEP2        0.0000 
     52 CA        274.1185  -26.0775   28.0690 C.3       3 GLC5        0.0000 
     53 CA        273.8540  -23.8590   27.8110 C.3       9 GLL5        0.0000 
     54 CA        274.3830  -28.2960   28.3270 C.3       6 GLP5        0.0000 
     55 CA        270.5145  -25.0295   17.8595 C.3       3 GLC5        0.0000 
     56 CA        270.2100  -24.0190   19.6490 C.3       9 GLL5        0.0000 
     57 CA        271.3490  -25.9913   20.5513 C.3       3 GLC5        0.0000 
     58 CA        272.4038  -22.7635   17.1315 C.3       3 GLC5        0.0000 
     59 CA        271.0880  -23.2230   18.8850 C.3       9 GLL5        0.0000 
     60 CA        273.0135  -25.2877   21.9008 C.3       3 GLC5        0.0000 
     61 CA        273.8220  -27.0330   22.6620 C.3       6 GLP5        0.0000 
     62 CA        273.0612  -25.2410   23.5570 C.3       3 GLC5        0.0000 
     63 CA        272.0060  -23.3130   23.8220 C.3       9 GLL5        0.0000 
     64 CA        273.4423  -22.1275   23.5907 C.3       3 GLC5        0.0000 
     65 CA        269.3305  -22.1250   23.8875 C.3       3 GLC5        0.0000 
     66 CA        271.2750  -22.1110   23.6450 C.3       9 GLL5        0.0000 
     67 CA        273.3370  -21.4398   24.3850 C.3       3 GLC5        0.0000 
     68 CA        271.1350  -21.1950   24.6970 C.3       9 GLL5        0.0000 
     69 CA        273.8870  -22.3347   24.5365 C.3       3 GLC5        0.0000 
     70 CA        272.4650  -22.6680   26.1680 C.3       9 GLL5        0.0000 
     71 CA        271.0175  -23.6670   26.7554 C.3       3 GLC5        0.0000 
     72 CA        272.5950  -23.5850   25.0820 C.3       9 GLL5        0.0000 
     73 CA        269.6900  -24.5050   27.9410 C.3       6 GLP5        0.0000 
     74 CA        271.5652  -23.9300   27.7960 C.3       3 GLC5        0.0000 
     75 CA        268.2525  -24.4447   23.2745 C.3       3 GLC5        0.0000 
     76 CA        269.5520  -25.7170   22.8590 C.3       9 GLL5        0.0000 
     77 CA        270.6920  -27.0328   21.8670 C.3       3 GLC5        0.0000 
     78 CA        269.1385  -30.8657   23.4828 C.3       3 GLC5        0.0000 
     79 CA        267.9410  -32.3880   23.5390 C.3       6 GLP5        0.0000 
     80 CA        275.4340  -24.6383   27.4548 C.3       3 GLC5        0.0000 
     81 CA        276.6060  -25.4310   26.5140 C.3       6 GLP5        0.0000 
     82 CA        273.0035  -23.3422   29.7353 C.3       3 GLC5        0.0000 
     83 CA        271.7450  -22.8390   31.0750 C.3       6 GLP5        0.0000 
     84 CA        275.0966  -22.3327   27.7112 C.3       3 GLC5        0.0000 
     85 CA        274.6700  -23.8320   28.9800 C.3       9 GLL5        0.0000 
     86 CA        276.1380  -21.0720   27.1070 C.3       6 GLP5        0.0000 
@<TRIPOS>BOND
@<TRIPOS>SUBSTRUCTURE
     1 ALC1       34 GROUP        1 X    ALC  0     ROOT ALC X 1
     2 SEC2       49 GROUP        1 X    SEC  0     **** SEC X 2
     3 GLC5        1 GROUP        1 X    GLC  0     **** GLC X 6
     4 ALP1       36 GROUP        1 Y    ALP  0     ROOT ALP Y 8
     5 SEP2       51 GROUP        1 Y    SEP  0     **** SEP Y 9
     6 GLP5        3 GROUP        1 Y    GLP  0     **** GLP Y 13
     7 ALL1       35 GROUP        1 Z    ALL  0     ROOT ALL Z 15
     8 SEL2       50 GROUP        1 Z    SEL  0     **** SEL Z 16
     9 GLL5        2 GROUP        1 Z    GLL  0     **** GLL Z 20
@<TRIPOS>SET

