#    Name: 4h4m_494_1_ligand
#    Modification time : Tue Mar 25 00:20:18 2014

@<TRIPOS>MOLECULE
4h4m_494_1_ligand
   45    47     1     0     0
SMALL
NO_CHARGES


@<TRIPOS>ATOM
      1 C00       270.2100  -24.0190   19.6490 C.ar      1 494601      0.0000 
      2 C01       271.0880  -23.2230   18.8850 C.ar      1 494601      0.0000 
      3 C02       272.3090  -22.7770   19.4290 C.ar      1 494601      0.0000 
      4 C03       272.6400  -23.1390   20.7460 C.ar      1 494601      0.0000 
      5 C04       271.7700  -23.9460   21.5330 C.ar      1 494601      0.0000 
      6 C05       270.5160  -24.4000   20.9780 C.ar      1 494601      0.0000 
      7 CL7       270.6510  -22.7970   17.2810 Cl        1 494601      0.0000 
      8 O0A       272.1740  -24.2400   22.8170 O.3       1 494601      0.0000 
      9 O0B       269.5100  -25.1810   21.5400 O.3       1 494601      0.0000 
     10 C0C       272.0060  -23.3130   23.8220 C.ar      1 494601      0.0000 
     11 C0D       271.2750  -22.1110   23.6450 C.ar      1 494601      0.0000 
     12 C0E       271.1350  -21.1950   24.6970 C.ar      1 494601      0.0000 
     13 C0F       271.7250  -21.4780   25.9470 C.ar      1 494601      0.0000 
     14 C0G       272.4650  -22.6680   26.1680 C.ar      1 494601      0.0000 
     15 C0H       272.5950  -23.5850   25.0820 C.ar      1 494601      0.0000 
     16 CL0       270.2410  -19.7520   24.4260 Cl        1 494601      0.0000 
     17 C0M       273.0270  -22.8510   27.4910 C.2       1 494601      0.0000 
     18 C0O       269.5520  -25.7170   22.8590 C.3       1 494601      0.0000 
     19 C0P       268.5460  -26.8680   23.0310 C.3       1 494601      0.0000 
     20 N0S       269.1440  -28.1570   22.6350 N.am      1 494601      0.0000 
     21 C0V       268.8540  -28.7560   21.4330 C.2       1 494601      0.0000 
     22 N0W       269.4750  -29.9400   21.2040 N.am      1 494601      0.0000 
     23 C0X       270.3460  -30.6030   22.0070 C.2       1 494601      0.0000 
     24 C0Y       270.6340  -29.9380   23.2860 C.2       1 494601      0.0000 
     25 C0Z       270.0380  -28.7490   23.5670 C.2       1 494601      0.0000 
     26 O10       268.0860  -28.2810   20.5960 O.2       1 494601      0.0000 
     27 O12       270.8370  -31.6800   21.6650 O.2       1 494601      0.0000 
     28 C15       273.8540  -23.8590   27.8110 C.2       1 494601      0.0000 
     29 C17       274.6700  -23.8320   28.9800 C.1       1 494601      0.0000 
     30 N19       275.3300  -23.8100   29.9290 N.1       1 494601      0.0000 
     31 H         269.3194  -24.3338   19.2304 H         1 494601      0.0000 
     32 H         272.9387  -22.2031   18.8767 H         1 494601      0.0000 
     33 H         273.5279  -22.8181   21.1574 H         1 494601      0.0000 
     34 H         270.8455  -21.9154   22.7324 H         1 494601      0.0000 
     35 H         271.6175  -20.8049   26.7217 H         1 494601      0.0000 
     36 H         273.1234  -24.4525   25.2199 H         1 494601      0.0000 
     37 H         272.7459  -22.1337   28.2075 H         1 494601      0.0000 
     38 H         269.3108  -24.9552   23.6190 H         1 494601      0.0000 
     39 H         270.5499  -26.1145   23.1084 H         1 494601      0.0000 
     40 H         267.6662  -26.6460   22.4189 H         1 494601      0.0000 
     41 H         268.2330  -26.8932   24.0795 H         1 494601      0.0000 
     42 H         269.2439  -30.4246   20.2467 H         1 494601      0.0000 
     43 H         271.2788  -30.4026   23.9199 H         1 494601      0.0000 
     44 H         270.2178  -28.2532   24.4529 H         1 494601      0.0000 
     45 H         273.9278  -24.7092   27.2046 H         1 494601      0.0000 
@<TRIPOS>BOND
     1    2    1 ar   
     2    6    1 ar   
     3   31    1 1    
     4    3    2 ar   
     5    7    2 1    
     6    4    3 ar   
     7   32    3 1    
     8    5    4 ar   
     9   33    4 1    
    10    6    5 ar   
    11    8    5 1    
    12    9    6 1    
    13   10    8 1    
    14   18    9 1    
    15   11   10 ar   
    16   15   10 ar   
    17   12   11 ar   
    18   34   11 1    
    19   13   12 ar   
    20   16   12 1    
    21   14   13 ar   
    22   35   13 1    
    23   15   14 ar   
    24   17   14 1    
    25   36   15 1    
    26   28   17 2    
    27   37   17 1    
    28   19   18 1    
    29   38   18 1    
    30   39   18 1    
    31   20   19 1    
    32   40   19 1    
    33   41   19 1    
    34   21   20 am   
    35   25   20 1    
    36   22   21 am   
    37   26   21 2    
    38   23   22 am   
    39   42   22 1    
    40   24   23 1    
    41   27   23 2    
    42   25   24 2    
    43   43   24 1    
    44   44   25 1    
    45   29   28 1    
    46   45   28 1    
    47   30   29 3    
@<TRIPOS>SUBSTRUCTURE
     1 494601      1 GROUP   
@<TRIPOS>SET

