#    Name: 1JSZ_2_CAVITY_N1_6.mol2
#    Modification time : Tue Mar 11 11:21:17 2014

@<TRIPOS>MOLECULE
1JSZ_2_CAVITY_N1_6.mol2
   56     0     5     0     0
SMALL
NO_CHARGES


@<TRIPOS>ATOM
      1 CZ         18.7867   12.6096   20.7732 C.ar      3 PHE5        0.0000 
      2 CZ         19.0880   13.4771   19.5872 C.ar      3 PHE5        0.0000 
      3 CZ         18.2565   11.5447   19.8596 C.ar      3 PHE5        0.0000 
      4 CZ         18.2479   15.1448   20.5936 C.ar      3 PHE5        0.0000 
      5 OG         17.1150   12.3449   22.0520 O.2       1 SER1        0.0000 
      6 CZ         17.4163   13.2124   20.8660 C.ar      3 PHE5        0.0000 
      7 CZ         17.7176   14.0799   19.6800 C.ar      3 PHE5        0.0000 
      8 CZ         16.5848   11.2799   21.1384 C.ar      3 PHE5        0.0000 
      9 CA         16.2025   13.3424   26.3441 C.3       4 GLY6        0.0000 
     10 OG         16.5038   14.2100   25.1581 O.2       1 SER1        0.0000 
     11 CZ         16.8051   15.0775   23.9721 C.ar      3 PHE5        0.0000 
     12 CZ         17.4077   16.8125   21.6001 C.ar      3 PHE5        0.0000 
     13 CA         17.7090   17.6801   20.4141 C.3       4 GLY6        0.0000 
     14 CA         15.3710   11.4100   26.6165 C.3       4 GLY6        0.0000 
     15 CA         15.6723   12.2775   25.4305 C.3       4 GLY6        0.0000 
     16 OG         15.9735   13.1450   24.2444 O.2       1 SER1        0.0000 
     17 OG         16.2748   14.0126   23.0584 O.2       1 SER1        0.0000 
     18 CZ         16.5761   14.8801   21.8724 C.ar      3 PHE5        0.0000 
     19 CZ         16.8774   15.7476   20.6864 C.ar      3 PHE5        0.0000 
     20 CA         17.1787   16.6151   19.5004 C.3       4 GLY6        0.0000 
     21 OG         15.4433   12.0801   23.3308 O.2       1 SER1        0.0000 
     22 CZ         15.7446   12.9476   22.1448 C.ar      3 PHE5        0.0000 
     23 CA         15.0610   14.1426   28.5366 C.3       4 GLY6        0.0000 
     24 CA         14.5308   13.0777   27.6229 C.3       4 GLY6        0.0000 
     25 CA         14.8321   13.9452   26.4369 C.3       4 GLY6        0.0000 
     26 N          15.1334   14.8127   25.2509 N.2       2 ALA2        0.0000 
     27 N          15.7360   16.5478   22.8788 N.2       2 ALA2        0.0000 
     28 CZ         16.0373   17.4153   21.6928 C.ar      3 PHE5        0.0000 
     29 N          16.3385   18.2828   20.5068 N.2       2 ALA2        0.0000 
     30 DU         14.0005   12.0128   26.7092 H         5 CUB7        0.0000 
     31 DU         14.3018   12.8803   25.5232 H         5 CUB7        0.0000 
     32 N          14.6031   13.7478   24.3372 N.2       2 ALA2        0.0000 
     33 N          14.9044   14.6153   23.1512 N.2       2 ALA2        0.0000 
     34 CZ         15.2057   15.4829   21.9652 C.ar      3 PHE5        0.0000 
     35 CZ         15.5070   16.3504   20.7792 C.ar      3 PHE5        0.0000 
     36 CZ         15.8083   17.2179   19.5932 C.ar      3 PHE5        0.0000 
     37 CZ         14.0729   12.6829   23.4236 C.ar      3 PHE5        0.0000 
     38 CZ         14.3742   13.5504   22.2375 C.ar      3 PHE5        0.0000 
     39 CZ         13.5426   11.6180   22.5099 C.ar      3 PHE5        0.0000 
     40 CA         13.1604   13.6805   27.7157 C.3       4 GLY6        0.0000 
     41 CA         13.4617   14.5480   26.5296 C.3       4 GLY6        0.0000 
     42 DU         12.6301   12.6155   26.8020 H         5 CUB7        0.0000 
     43 N          12.9314   13.4831   25.6160 N.2       2 ALA2        0.0000 
     44 N          13.2327   14.3506   24.4300 N.2       2 ALA2        0.0000 
     45 CA         13.8353   16.0856   22.0580 C.3       4 GLY6        0.0000 
     46 DU         12.4012   12.4181   24.7023 H         5 CUB7        0.0000 
     47 DU         12.7025   13.2857   23.5163 H         5 CUB7        0.0000 
     48 CZ         13.0037   14.1532   22.3303 C.ar      3 PHE5        0.0000 
     49 CZ         12.1722   12.2207   22.6027 C.ar      3 PHE5        0.0000 
     50 CA         11.5610   14.0858   25.7088 C.3       4 GLY6        0.0000 
     51 DU         11.0307   13.0209   24.7951 H         5 CUB7        0.0000 
     52 CA         11.3320   13.8884   23.6091 C.3       4 GLY6        0.0000 
     53 O          11.6333   14.7560   22.4231 O.2       2 ALA2        0.0000 
     54 CA         10.8018   12.8235   22.6954 C.3       4 GLY6        0.0000 
     55 CA         11.1031   13.6910   21.5094 C.3       4 GLY6        0.0000 
     56 OG          9.9616   14.4912   23.7019 O.2       1 SER1        0.0000 
@<TRIPOS>BOND
@<TRIPOS>SUBSTRUCTURE
     1 SER1        5 GROUP   
     2 ALA2       26 GROUP   
     3 PHE5        1 GROUP   
     4 GLY6        9 GROUP   
     5 CUB7       30 GROUP   
@<TRIPOS>SET

