#    Name: 1jsz_NDM_2_INTS_M
#    Modification time : Tue Mar 25 09:25:14 2014

@<TRIPOS>MOLECULE
1jsz_NDM_2_INTS_M
   19     0     6     0     0
SMALL
NO_CHARGES


@<TRIPOS>ATOM
      1 CA         15.8595   11.1045   20.7380 C.3       2 GLC5        0.0000 
      2 CA         17.3730   10.2110   22.1030 C.3       6 GLL5        0.0000 
      3 CA         14.3460   11.9980   19.3730 C.3       4 GLP5        0.0000 
      4 CA         19.6570   13.4895   20.6540 C.3       2 GLC5        0.0000 
      5 CA         18.7860   12.9050   19.1750 C.3       6 GLL5        0.0000 
      6 CA         20.5280   14.0740   22.1330 C.3       4 GLP5        0.0000 
      7 CA         17.2470   12.8545   18.3600 C.3       2 GLC5        0.0000 
      8 CA         15.7080   12.8040   17.5450 C.3       4 GLP5        0.0000 
      9 O          19.6640   11.8400   17.0610 O.2       1 ALC1        0.0000 
     10 O          19.5880   12.5780   18.1400 O.2       5 ALL1        0.0000 
     11 O          19.7400   11.1020   15.9820 O.2       3 ALP1        0.0000 
     12 O          19.1230   14.9965   18.4805 O.2       1 ALC1        0.0000 
     13 O          18.3790   14.2530   19.3060 O.2       5 ALL1        0.0000 
     14 O          19.8670   15.7400   17.6550 O.2       3 ALP1        0.0000 
     15 CA         17.2615   15.2560   23.0225 C.3       2 GLC5        0.0000 
     16 CA         15.3450   14.8910   22.6740 C.3       6 GLL5        0.0000 
     17 CA         19.1780   15.6210   23.3710 C.3       4 GLP5        0.0000 
     18 CA         14.6545   14.1005   21.1765 C.3       2 GLC5        0.0000 
     19 CA         13.9640   13.3100   19.6790 C.3       4 GLP5        0.0000 
@<TRIPOS>BOND
@<TRIPOS>SUBSTRUCTURE
     1 ALC1        9 GROUP        1 X    ALC  0     ROOT ALC X 1
     2 GLC5        1 GROUP        1 X    GLC  0     **** GLC X 6
     3 ALP1       11 GROUP        1 Y    ALP  0     ROOT ALP Y 8
     4 GLP5        3 GROUP        1 Y    GLP  0     **** GLP Y 13
     5 ALL1       10 GROUP        1 Z    ALL  0     ROOT ALL Z 15
     6 GLL5        2 GROUP        1 Z    GLL  0     **** GLL Z 20
@<TRIPOS>SET

