#    Name: 1jsz_NDM_2_ligand
#    Modification time : Tue Mar 25 09:25:14 2014

@<TRIPOS>MOLECULE
1jsz_NDM_2_ligand
   23    24     1     0     0
SMALL
NO_CHARGES


@<TRIPOS>ATOM
      1 CN9        17.3730   10.2110   22.1030 C.3       1 NDM600      0.0000 
      2 N9         17.0310   11.6560   21.9680 N.pl3     1 NDM600      0.0000 
      3 C4         17.5590   12.4560   20.9860 C.ar      1 NDM600      0.0000 
      4 N3         18.3920   11.9210   20.0100 N.ar      1 NDM600      0.0000 
      5 C2         18.7860   12.9050   19.1750 C.2       1 NDM600      0.0000 
      6 N2         19.5880   12.5780   18.1400 N.pl3     1 NDM600      0.0000 
      7 N1         18.3790   14.2530   19.3060 N.am      1 NDM600      0.0000 
      8 C6         17.4800   14.7650   20.3310 C.2       1 NDM600      0.0000 
      9 O6         16.8930   16.0920   20.3080 O.2       1 NDM600      0.0000 
     10 C5         17.0940   13.7510   21.1990 C.ar      1 NDM600      0.0000 
     11 N7         16.2510   13.8350   22.3050 N.pl3     1 NDM600      0.0000 
     12 CN7        15.3450   14.8910   22.6740 C.3       1 NDM600      0.0000 
     13 C8         16.2410   12.4470   22.7530 C.2       1 NDM600      0.0000 
     14 H          19.2240   11.9040   17.4971 H         1 NDM600      0.0000 
     15 H          20.4750   13.0388   18.1080 H         1 NDM600      0.0000 
     16 H          18.7467   14.9560   18.6145 H         1 NDM600      0.0000 
     17 H          15.7224   12.1701   23.5177 H         1 NDM600      0.0000 
     18 H          18.3519   10.0736   22.2545 H         1 NDM600      0.0000 
     19 H          16.8950    9.7865   22.8720 H         1 NDM600      0.0000 
     20 H          17.1277    9.6931   21.2835 H         1 NDM600      0.0000 
     21 H          15.8225   15.7588   22.8116 H         1 NDM600      0.0000 
     22 H          14.6504   15.0468   21.9716 H         1 NDM600      0.0000 
     23 H          14.8609   14.6848   23.5243 H         1 NDM600      0.0000 
@<TRIPOS>BOND
     1    2    1 1    
     2   18    1 1    
     3   19    1 1    
     4   20    1 1    
     5    3    2 1    
     6   13    2 2    
     7    4    3 ar   
     8   10    3 ar   
     9    5    4 2    
    10    6    5 1    
    11    7    5 am   
    12   14    6 1    
    13   15    6 1    
    14    8    7 am   
    15   16    7 1    
    16    9    8 2    
    17   10    8 1    
    18   11   10 1    
    19   12   11 1    
    20   13   11 1    
    21   21   12 1    
    22   22   12 1    
    23   23   12 1    
    24   17   13 1    
@<TRIPOS>SUBSTRUCTURE
     1 NDM600      1 GROUP   
@<TRIPOS>SET

