#    Name: 3myh_BIT_1_INTS_M
#    Modification time : Tue Mar 25 00:18:25 2014

@<TRIPOS>MOLECULE
3myh_BIT_1_INTS_M
   60     0     9     0     0
SMALL
NO_CHARGES


@<TRIPOS>ATOM
      1 N          21.3880  -35.4965   34.5395 N.am      2 SEC2        0.0000 
      2 N          20.9210  -35.7100   36.1480 N.am      8 SEL2        0.0000 
      3 N          21.8550  -35.2830   32.9310 N.am      5 SEP2        0.0000 
      4 CA         16.4460  -36.7310   37.6590 C.3       3 GLC5        0.0000 
      5 CA         16.8940  -38.3920   38.2190 C.3       9 GLL5        0.0000 
      6 CA         15.9980  -35.0700   37.0990 C.3       6 GLP5        0.0000 
      7 CA         16.4025  -39.5835   39.8405 C.3       3 GLC5        0.0000 
      8 CA         15.9110  -40.7750   41.4620 C.3       6 GLP5        0.0000 
      9 CA         15.8845  -39.3760   37.1870 C.3       3 GLC5        0.0000 
     10 CA         14.8750  -40.3600   36.1550 C.3       6 GLP5        0.0000 
     11 CA         17.1120  -39.1335   40.7960 C.3       3 GLC5        0.0000 
     12 CA         18.3130  -37.4920   40.1300 C.3       9 GLL5        0.0000 
     13 CA         20.3540  -33.7920   36.3910 C.3       3 GLC5        0.0000 
     14 CA         21.7330  -34.3080   37.9620 C.3       9 GLL5        0.0000 
     15 CA         18.9750  -33.2760   34.8200 C.3       6 GLP5        0.0000 
     16 CA         19.5905  -34.1090   38.4070 C.3       3 GLC5        0.0000 
     17 CA         17.4480  -33.9100   38.8520 C.3       6 GLP5        0.0000 
     18 N          20.2920  -32.8470   36.8795 N.am      2 SEC2        0.0000 
     19 N          20.7560  -33.2370   38.1410 N.am      8 SEL2        0.0000 
     20 N          19.8280  -32.4570   35.6180 N.am      5 SEP2        0.0000 
     21 O          21.1355  -32.3605   38.9195 O.2       1 ALC1        0.0000 
     22 O          20.7560  -33.2370   38.1410 O.2       7 ALL1        0.0000 
     23 O          21.5150  -31.4840   39.6980 O.2       4 ALP1        0.0000 
     24 CA         23.5145  -34.1975   35.5955 C.3       3 GLC5        0.0000 
     25 CA         23.0160  -33.8430   37.2850 C.3       9 GLL5        0.0000 
     26 CA         24.0130  -34.5520   33.9060 C.3       6 GLP5        0.0000 
     27 CA         18.4682  -35.2523   38.4257 C.3       3 GLC5        0.0000 
     28 CA         20.0480  -36.2330   38.2270 C.3       9 GLL5        0.0000 
     29 CA         19.8197  -38.4338   37.2137 C.3       3 GLC5        0.0000 
     30 CA         20.1510  -40.2730   36.4280 C.3       6 GLP5        0.0000 
     31 CA         17.8210  -35.7197   39.1392 C.3       3 GLC5        0.0000 
     32 CA         18.0750  -37.5670   38.7230 C.3       9 GLL5        0.0000 
     33 CA         18.8178  -39.1262   37.4495 C.3       3 GLC5        0.0000 
     34 CA         17.3125  -36.8397   41.5890 C.3       3 GLC5        0.0000 
     35 CA         15.7490  -36.5650   42.8400 C.3       6 GLP5        0.0000 
     36 CA         18.6448  -35.1642   39.4647 C.3       3 GLC5        0.0000 
     37 CA         19.4390  -36.7370   40.5460 C.3       9 GLL5        0.0000 
     38 CA         24.7360  -34.8007   37.5012 C.3       3 GLC5        0.0000 
     39 CA         26.0860  -36.1200   37.1440 C.3       6 GLP5        0.0000 
     40 CA         22.1771  -32.0694   37.0149 C.3       3 GLC5        0.0000 
     41 CA         23.7560  -33.1200   38.4320 C.3       9 GLL5        0.0000 
     42 CA         21.2890  -30.5410   36.0020 C.3       6 GLP5        0.0000 
     43 CA         22.3837  -33.4175   41.9462 C.3       3 GLC5        0.0000 
     44 CA         23.9410  -33.7260   40.9270 C.3       9 GLL5        0.0000 
     45 CA         20.8620  -32.5500   42.5180 C.3       6 GLP5        0.0000 
     46 CA         24.6475  -36.5093   42.2045 C.3       3 GLC5        0.0000 
     47 CA         23.8700  -34.8440   41.8220 C.3       9 GLL5        0.0000 
     48 CA         25.1300  -38.2280   41.9380 C.3       6 GLP5        0.0000 
     49 CA         22.9222  -34.2000   43.9070 C.3       3 GLC5        0.0000 
     50 CA         24.4600  -34.7370   43.1200 C.3       9 GLL5        0.0000 
     51 CA         21.0490  -34.2440   44.4810 C.3       6 GLP5        0.0000 
     52 CA         24.2632  -33.9545   45.2325 C.3       3 GLC5        0.0000 
     53 CA         23.7310  -33.7530   47.1320 C.3       6 GLP5        0.0000 
     54 CA         22.8997  -32.5415   42.2585 C.3       3 GLC5        0.0000 
     55 CA         25.2450  -32.4760   42.6220 C.3       9 GLL5        0.0000 
     56 CA         25.4678  -30.8020   41.0500 C.3       3 GLC5        0.0000 
     57 CA         24.6300  -32.5900   41.3760 C.3       9 GLL5        0.0000 
     58 CA         25.9980  -29.0710   40.1010 C.3       6 GLP5        0.0000 
     59 CA         26.7855  -32.6824   42.1800 C.3       3 GLC5        0.0000 
     60 CA         28.6620  -32.5570   42.1300 C.3       6 GLP5        0.0000 
@<TRIPOS>BOND
@<TRIPOS>SUBSTRUCTURE
     1 ALC1       21 GROUP        1 X    ALC  0     ROOT ALC X 1
     2 SEC2        1 GROUP        1 X    SEC  0     **** SEC X 2
     3 GLC5        4 GROUP        1 X    GLC  0     **** GLC X 6
     4 ALP1       23 GROUP        1 Y    ALP  0     ROOT ALP Y 8
     5 SEP2        3 GROUP        1 Y    SEP  0     **** SEP Y 9
     6 GLP5        6 GROUP        1 Y    GLP  0     **** GLP Y 13
     7 ALL1       22 GROUP        1 Z    ALL  0     ROOT ALL Z 15
     8 SEL2        2 GROUP        1 Z    SEL  0     **** SEL Z 16
     9 GLL5        5 GROUP        1 Z    GLL  0     **** GLL Z 20
@<TRIPOS>SET

