#    Name: 3myh_BIT_1_ligand
#    Modification time : Tue Mar 25 00:18:26 2014

@<TRIPOS>MOLECULE
3myh_BIT_1_ligand
   38    41     1     0     0
SMALL
NO_CHARGES


@<TRIPOS>ATOM
      1 O2         20.9210  -35.7100   36.1480 O.2       1 BIT800      0.0000 
      2 C4         20.9160  -35.5190   37.3460 C.2       1 BIT800      0.0000 
      3 C5         20.0480  -36.2330   38.2270 C.ar      1 BIT800      0.0000 
      4 C6         18.9290  -36.9560   37.7720 C.ar      1 BIT800      0.0000 
      5 C7         18.0750  -37.5670   38.7230 C.ar      1 BIT800      0.0000 
      6 C18        16.8940  -38.3920   38.2190 C.3       1 BIT800      0.0000 
      7 C8         18.3130  -37.4920   40.1300 C.ar      1 BIT800      0.0000 
      8 C10        20.2440  -36.1000   39.6090 C.ar      1 BIT800      0.0000 
      9 C9         19.4390  -36.7370   40.5460 C.ar      1 BIT800      0.0000 
     10 C3         21.7330  -34.3080   37.9620 C.3       1 BIT800      0.0000 
     11 C11        22.2670  -34.6900   39.3440 C.2       1 BIT800      0.0000 
     12 N2         21.3370  -35.3880   40.1200 N.2       1 BIT800      0.0000 
     13 O1         20.7560  -33.2370   38.1410 O.3       1 BIT800      0.0000 
     14 C2         23.0160  -33.8430   37.2850 C.3       1 BIT800      0.0000 
     15 C1         23.7560  -33.1200   38.4320 C.3       1 BIT800      0.0000 
     16 N1         23.3740  -33.9580   39.6300 N.pl3     1 BIT800      0.0000 
     17 C12        23.9410  -33.7260   40.9270 C.ar      1 BIT800      0.0000 
     18 C13        23.8700  -34.8440   41.8220 C.ar      1 BIT800      0.0000 
     19 C14        24.4600  -34.7370   43.1200 C.ar      1 BIT800      0.0000 
     20 C15        25.1310  -33.5750   43.5460 C.ar      1 BIT800      0.0000 
     21 C16        25.2450  -32.4760   42.6220 C.ar      1 BIT800      0.0000 
     22 C17        24.6300  -32.5900   41.3760 C.ar      1 BIT800      0.0000 
     23 H          18.7340  -37.0404   36.7811 H         1 BIT800      0.0000 
     24 H          17.7161  -37.9481   40.7805 H         1 BIT800      0.0000 
     25 H          19.6504  -36.6680   41.5484 H         1 BIT800      0.0000 
     26 H          22.7953  -33.1517   36.5207 H         1 BIT800      0.0000 
     27 H          23.5842  -34.6732   36.9707 H         1 BIT800      0.0000 
     28 H          23.3760  -32.1420   38.5276 H         1 BIT800      0.0000 
     29 H          24.7944  -33.1701   38.2606 H         1 BIT800      0.0000 
     30 H          23.4090  -35.6950   41.5376 H         1 BIT800      0.0000 
     31 H          24.3863  -35.5460   43.7611 H         1 BIT800      0.0000 
     32 H          25.5251  -33.4996   44.4671 H         1 BIT800      0.0000 
     33 H          25.7620  -31.6527   42.8900 H         1 BIT800      0.0000 
     34 H          24.6853  -31.7611   40.7191 H         1 BIT800      0.0000 
     35 H          17.1923  -39.1594   37.6515 H         1 BIT800      0.0000 
     36 H          16.3599  -38.7750   38.9727 H         1 BIT800      0.0000 
     37 H          16.2676  -37.8438   37.6648 H         1 BIT800      0.0000 
     38 H          21.3002  -32.4183   38.3240 H         1 BIT800      0.0000 
@<TRIPOS>BOND
     1    2    1 2    
     2    3    2 1    
     3   10    2 1    
     4    4    3 ar   
     5    8    3 ar   
     6    5    4 ar   
     7   23    4 1    
     8    6    5 1    
     9    7    5 ar   
    10   35    6 1    
    11   36    6 1    
    12   37    6 1    
    13    9    7 ar   
    14   24    7 1    
    15    9    8 ar   
    16   12    8 1    
    17   25    9 1    
    18   11   10 1    
    19   13   10 1    
    20   14   10 1    
    21   12   11 2    
    22   16   11 1    
    23   38   13 1    
    24   15   14 1    
    25   26   14 1    
    26   27   14 1    
    27   16   15 1    
    28   28   15 1    
    29   29   15 1    
    30   17   16 1    
    31   18   17 ar   
    32   22   17 ar   
    33   19   18 ar   
    34   30   18 1    
    35   20   19 ar   
    36   31   19 1    
    37   21   20 ar   
    38   32   20 1    
    39   22   21 ar   
    40   33   21 1    
    41   34   22 1    
@<TRIPOS>SUBSTRUCTURE
     1 BIT800      1 GROUP   
@<TRIPOS>SET

