#    Name: 3Q6Z_1_CAVITY_N1_ALL.mol2
#    Modification time : Mon Mar 10 16:38:10 2014

@<TRIPOS>MOLECULE
3Q6Z_1_CAVITY_N1_ALL.mol2
   84     0     6     0     0
SMALL
NO_CHARGES


@<TRIPOS>ATOM
      1 CA         14.9362   21.5888    4.9353 C.3       5 GLY6        0.0000 
      2 O          15.3600   22.0536    8.5553 O.2       2 ALA2        0.0000 
      3 CA         17.3530   21.7563    5.8740 C.3       5 GLY6        0.0000 
      4 CA         16.1314   21.4289    6.6806 C.3       5 GLY6        0.0000 
      5 N          19.3460   21.4590    3.1927 N.2       2 ALA2        0.0000 
      6 O          18.1245   21.1316    3.9992 O.2       2 ALA2        0.0000 
      7 CA         16.9029   20.8042    4.8058 C.3       5 GLY6        0.0000 
      8 CA         15.6813   20.4768    5.6124 C.3       5 GLY6        0.0000 
      9 O          18.8959   20.5069    2.1245 O.2       2 ALA2        0.0000 
     10 O          17.6743   20.1795    2.9311 O.2       2 ALA2        0.0000 
     11 DU         16.4528   19.8521    3.7377 H         6 CUB7        0.0000 
     12 CA         15.2312   19.5248    4.5443 C.3       5 GLY6        0.0000 
     13 DU         17.2242   19.2274    1.8630 H         6 CUB7        0.0000 
     14 DU         16.0026   18.9001    2.6695 H         6 CUB7        0.0000 
     15 CA         14.7811   18.5727    3.4761 C.3       5 GLY6        0.0000 
     16 CA         15.3336   21.5664   11.1071 C.3       5 GLY6        0.0000 
     17 CA         16.1050   20.9417    9.2324 C.3       5 GLY6        0.0000 
     18 CA         14.8835   20.6143   10.0390 C.3       5 GLY6        0.0000 
     19 O          13.6619   20.2869   10.8456 O.2       2 ALA2        0.0000 
     20 O          19.3197   20.9717    5.7445 O.2       2 ALA2        0.0000 
     21 N          18.0981   20.6444    6.5511 N.2       2 ALA2        0.0000 
     22 N          16.8765   20.3170    7.3577 N.2       2 ALA2        0.0000 
     23 CA         15.6549   19.9896    8.1643 C.3       5 GLY6        0.0000 
     24 CA         14.4333   19.6622    8.9708 C.3       5 GLY6        0.0000 
     25 O          18.8695   20.0197    4.6764 O.2       2 ALA2        0.0000 
     26 DU         17.6480   19.6923    5.4829 H         6 CUB7        0.0000 
     27 CA         16.4264   19.3649    6.2895 C.3       5 GLY6        0.0000 
     28 O          18.4194   19.0676    3.6082 O.2       2 ALA2        0.0000 
     29 CZ         17.1978   18.7402    4.4148 C.ar      4 PHE5        0.0000 
     30 CZ         15.9763   18.4128    5.2214 C.ar      4 PHE5        0.0000 
     31 O          17.9693   18.1155    2.5401 O.2       2 ALA2        0.0000 
     32 O          17.5192   17.1634    1.4719 O.2       2 ALA2        0.0000 
     33 CA         15.7573   22.0313   14.7271 C.3       5 GLY6        0.0000 
     34 NZ         14.5358   21.7039   15.5337 N.2       3 LYS4        0.0000 
     35 NZ         13.3142   21.3765   16.3403 N.2       3 LYS4        0.0000 
     36 O          15.3072   21.0792   13.6590 O.2       2 ALA2        0.0000 
     37 DU         14.0856   20.7518   14.4656 H         6 CUB7        0.0000 
     38 NZ         12.8641   20.4244   15.2721 N.2       3 LYS4        0.0000 
     39 OG         11.6425   20.0970   16.0787 O.2       1 SER1        0.0000 
     40 O          16.0787   20.4545   11.7843 O.2       2 ALA2        0.0000 
     41 CA         14.8571   20.1271   12.5908 C.3       5 GLY6        0.0000 
     42 CA         13.6355   19.7997   13.3974 C.3       5 GLY6        0.0000 
     43 CA         12.4139   19.4723   14.2040 C.3       5 GLY6        0.0000 
     44 OG         11.1924   19.1450   15.0106 O.2       1 SER1        0.0000 
     45 N          18.0717   20.1571    9.1029 N.2       2 ALA2        0.0000 
     46 O          16.8501   19.8298    9.9095 O.2       2 ALA2        0.0000 
     47 DU         15.6285   19.5024   10.7161 H         6 CUB7        0.0000 
     48 CA         14.4070   19.1750   11.5227 C.3       5 GLY6        0.0000 
     49 N          18.8432   19.5324    7.2282 N.2       2 ALA2        0.0000 
     50 N          17.6216   19.2051    8.0348 N.2       2 ALA2        0.0000 
     51 N          16.4000   18.8777    8.8414 N.2       2 ALA2        0.0000 
     52 O          15.1784   18.5503    9.6480 O.2       2 ALA2        0.0000 
     53 O          13.9568   18.2229   10.4545 O.2       2 ALA2        0.0000 
     54 O          18.3930   18.5804    6.1601 O.2       2 ALA2        0.0000 
     55 CZ         17.1715   18.2530    6.9666 C.ar      4 PHE5        0.0000 
     56 CA         15.9499   17.9256    7.7732 C.3       5 GLY6        0.0000 
     57 O          14.7283   17.5982    8.5798 O.2       2 ALA2        0.0000 
     58 CA         17.9429   17.6283    5.0919 C.3       5 GLY6        0.0000 
     59 CA         16.5024   20.9193   15.4042 C.3       5 GLY6        0.0000 
     60 NZ         15.2808   20.5920   16.2108 N.2       3 LYS4        0.0000 
     61 CA         16.0523   19.9673   14.3361 C.3       5 GLY6        0.0000 
     62 NZ         14.8307   19.6399   15.1427 N.2       3 LYS4        0.0000 
     63 NZ         13.6091   19.3125   15.9493 N.2       3 LYS4        0.0000 
     64 NZ         12.3876   18.9851   16.7558 N.2       3 LYS4        0.0000 
     65 CA         16.8237   19.3425   12.4614 C.3       5 GLY6        0.0000 
     66 DU         15.6022   19.0152   13.2679 H         6 CUB7        0.0000 
     67 N          14.3806   18.6878   14.0745 N.2       2 ALA2        0.0000 
     68 OG         13.1590   18.3604   14.8811 O.2       1 SER1        0.0000 
     69 N          17.5952   18.7178   10.5866 N.2       2 ALA2        0.0000 
     70 CA         16.3736   18.3905   11.3932 C.3       5 GLY6        0.0000 
     71 O          15.1520   18.0631   12.1998 O.2       2 ALA2        0.0000 
     72 O          13.9305   17.7357   13.0064 O.2       2 ALA2        0.0000 
     73 N          17.1451   17.7658    9.5185 N.2       2 ALA2        0.0000 
     74 CA         15.9235   17.4384   10.3251 C.3       5 GLY6        0.0000 
     75 O          14.7019   17.1110   11.1317 O.2       2 ALA2        0.0000 
     76 N          17.9165   17.1411    7.6438 N.2       2 ALA2        0.0000 
     77 N          16.6950   16.8137    8.4503 N.2       2 ALA2        0.0000 
     78 CZ         15.4734   16.4863    9.2569 C.ar      4 PHE5        0.0000 
     79 NZ         16.0259   19.4800   16.8879 N.2       3 LYS4        0.0000 
     80 CA         16.7974   18.8553   15.0132 C.3       5 GLY6        0.0000 
     81 NZ         15.5758   18.5280   15.8198 N.2       3 LYS4        0.0000 
     82 N          15.1257   17.5759   14.7516 N.2       2 ALA2        0.0000 
     83 N          17.4400   15.7018    9.1275 N.2       2 ALA2        0.0000 
     84 O          16.2184   15.3744    9.9340 O.2       2 ALA2        0.0000 
@<TRIPOS>BOND
@<TRIPOS>SUBSTRUCTURE
     1 SER1       39 GROUP   
     2 ALA2        2 GROUP   
     3 LYS4       34 GROUP   
     4 PHE5       29 GROUP   
     5 GLY6        1 GROUP   
     6 CUB7       11 GROUP   
@<TRIPOS>SET

