#    Name: 3q6z_APR_1_INTS_M
#    Modification time : Tue Mar 25 09:01:57 2014

@<TRIPOS>MOLECULE
3q6z_APR_1_INTS_M
   51     0     9     0     0
SMALL
NO_CHARGES


@<TRIPOS>ATOM
      1 CA         19.2680   23.0330   16.1675 C.3       3 GLC5        0.0000 
      2 CA         17.9270   24.4720   16.4920 C.3       9 GLL5        0.0000 
      3 CA         20.6090   21.5940   15.8430 C.3       6 GLP5        0.0000 
      4 CA         16.6585   24.7050   17.9365 C.3       3 GLC5        0.0000 
      5 CA         15.3900   24.9380   19.3810 C.3       6 GLP5        0.0000 
      6 CA         16.7045   24.0135   12.2880 C.3       3 GLC5        0.0000 
      7 CA         16.3360   24.5230   14.2850 C.3       9 GLL5        0.0000 
      8 CA         17.0730   23.5040   10.2910 C.3       6 GLP5        0.0000 
      9 CA         19.3670   25.9770   14.2060 C.3       3 GLC5        0.0000 
     10 CA         17.2510   25.5890   14.5370 C.3       9 GLL5        0.0000 
     11 CA         21.4830   26.3650   13.8750 C.3       6 GLP5        0.0000 
     12 O          13.8915   19.8290   17.7280 O.2       1 ALC1        0.0000 
     13 O          13.2640   19.3480   16.6760 O.2       7 ALL1        0.0000 
     14 O          14.5190   20.3100   18.7800 O.2       4 ALP1        0.0000 
     15 CA         17.0625   17.2405   13.0000 C.3       3 GLC5        0.0000 
     16 CA         15.4020   18.3070   13.7740 C.3       9 GLL5        0.0000 
     17 CA         18.7230   16.1740   12.2260 C.3       6 GLP5        0.0000 
     18 N          17.5410   21.1955   11.7305 N.am      2 SEC2        0.0000 
     19 N          16.6810   19.9870   11.4840 N.am      8 SEL2        0.0000 
     20 N          18.4010   22.4040   11.9770 N.am      5 SEP2        0.0000 
     21 N          13.1945   19.3820    9.6425 N.am      2 SEC2        0.0000 
     22 N          14.4720   19.8250   10.2880 N.am      8 SEL2        0.0000 
     23 N          11.9170   18.9390    8.9970 N.am      5 SEP2        0.0000 
     24 N          12.6960   16.9455   11.0985 N.am      2 SEC2        0.0000 
     25 N          13.7660   16.7060   10.3370 N.am      8 SEL2        0.0000 
     26 N          11.6260   17.1850   11.8600 N.am      5 SEP2        0.0000 
     27 N          12.8685   16.5825    8.9380 N.am      2 SEC2        0.0000 
     28 N          11.9710   16.4590    7.5390 N.am      5 SEP2        0.0000 
     29 N          15.4900   14.4905   11.2615 N.am      2 SEC2        0.0000 
     30 N          16.0510   15.3940   10.3620 N.am      8 SEL2        0.0000 
     31 N          14.9290   13.5870   12.1610 N.am      5 SEP2        0.0000 
     32 CA         17.9670   22.1090    6.8520 C.3       3 GLC5        0.0000 
     33 CA         17.6910   20.1980    6.9610 C.3       9 GLL5        0.0000 
     34 CA         18.2430   24.0200    6.7430 C.3       6 GLP5        0.0000 
     35 CA         20.3645   19.9795    7.9100 C.3       3 GLC5        0.0000 
     36 CA         18.9150   19.2790    6.8060 C.3       9 GLL5        0.0000 
     37 CA         21.8140   20.6800    9.0140 C.3       6 GLP5        0.0000 
     38 N          19.4255   18.3385    4.0075 N.am      2 SEC2        0.0000 
     39 N          17.9780   18.5080    4.6610 N.am      8 SEL2        0.0000 
     40 N          20.8730   18.1690    3.3540 N.am      5 SEP2        0.0000 
     41 CA         19.1060   17.0190    4.8305 C.3       3 GLC5        0.0000 
     42 CA         18.2350   18.1310    6.0500 C.3       9 GLL5        0.0000 
     43 CA         19.9770   15.9070    3.6110 C.3       6 GLP5        0.0000 
     44 CA         14.9060   18.7675    6.7860 C.3       3 GLC5        0.0000 
     45 CA         16.8990   17.9980    6.7850 C.3       9 GLL5        0.0000 
     46 CA         12.9130   19.5370    6.7870 C.3       6 GLP5        0.0000 
     47 CA         18.1274   23.5396   13.7925 C.3       3 GLC5        0.0000 
     48 CA         19.4730   22.2890   12.9430 C.3       6 GLP5        0.0000 
     49 CA         16.5520   16.6165    5.8392 C.3       3 GLC5        0.0000 
     50 CA         16.8150   17.0280    7.9370 C.3       9 GLL5        0.0000 
     51 CA         15.5580   15.4110    4.9730 C.3       6 GLP5        0.0000 
@<TRIPOS>BOND
@<TRIPOS>SUBSTRUCTURE
     1 ALC1       12 GROUP        1 X    ALC  0     ROOT ALC X 1
     2 SEC2       18 GROUP        1 X    SEC  0     **** SEC X 2
     3 GLC5        1 GROUP        1 X    GLC  0     **** GLC X 6
     4 ALP1       14 GROUP        1 Y    ALP  0     ROOT ALP Y 8
     5 SEP2       20 GROUP        1 Y    SEP  0     **** SEP Y 9
     6 GLP5        3 GROUP        1 Y    GLP  0     **** GLP Y 13
     7 ALL1       13 GROUP        1 Z    ALL  0     ROOT ALL Z 15
     8 SEL2       19 GROUP        1 Z    SEL  0     **** SEL Z 16
     9 GLL5        2 GROUP        1 Z    GLL  0     **** GLL Z 20
@<TRIPOS>SET

