#    Name: 3q6z_APR_1_ligand
#    Modification time : Tue Mar 25 09:01:57 2014

@<TRIPOS>MOLECULE
3q6z_APR_1_ligand
   57    60     1     0     0
SMALL
NO_CHARGES


@<TRIPOS>ATOM
      1 N1         18.0150   25.5180   15.6540 N.ar      1 APR1        0.0000 
      2 C2         17.9270   24.4720   16.4920 C.ar      1 APR1        0.0000 
      3 N3         17.0890   23.4510   16.2850 N.ar      1 APR1        0.0000 
      4 C4         16.2890   23.4600   15.2090 C.ar      1 APR1        0.0000 
      5 C5         16.3360   24.5230   14.2850 C.ar      1 APR1        0.0000 
      6 C6         17.2510   25.5890   14.5370 C.ar      1 APR1        0.0000 
      7 N6         17.4000   26.6520   13.7260 N.pl3     1 APR1        0.0000 
      8 N7         15.4300   24.2200   13.3120 N.2       1 APR1        0.0000 
      9 C8         14.8540   23.0470   13.6260 C.2       1 APR1        0.0000 
     10 N9         15.3810   22.5840   14.7770 N.pl3     1 APR1        0.0000 
     11 C1'        15.0320   21.3330   15.5130 C.3       1 APR1        0.0000 
     12 C2'        13.6880   20.9140   14.9430 C.3       1 APR1        0.0000 
     13 O2'        12.6590   21.6580   15.6060 O.3       1 APR1        0.0000 
     14 C3'        13.6520   19.4450   15.3210 C.3       1 APR1        0.0000 
     15 O3'        13.2640   19.3480   16.6760 O.3       1 APR1        0.0000 
     16 O4'        15.9240   20.2410   15.2660 O.3       1 APR1        0.0000 
     17 C4'        15.1200   19.0080   15.1460 C.3       1 APR1        0.0000 
     18 C5'        15.4020   18.3070   13.7740 C.3       1 APR1        0.0000 
     19 O5'        14.7700   19.0290   12.6870 O.3       1 APR1        0.0000 
     20 PA         15.4290   19.2230   11.2560 P.3       1 APR1        0.0000 
     21 O1A        16.6810   19.9870   11.4840 O.co2     1 APR1        0.0000 
     22 O2A        14.4720   19.8250   10.2880 O.co2     1 APR1        0.0000 
     23 O3A        15.8680   17.5870   10.8840 O.3       1 APR1        0.0000 
     24 PB         15.1420   16.4690    9.8170 P.3       1 APR1        0.0000 
     25 O1B        13.7660   16.7060   10.3370 O.co2     1 APR1        0.0000 
     26 O2B        16.0510   15.3940   10.3620 O.co2     1 APR1        0.0000 
     27 O5D        15.6730   17.3990    8.6690 O.3       1 APR1        0.0000 
     28 C5D        16.8150   17.0280    7.9370 C.3       1 APR1        0.0000 
     29 O4D        16.6290   19.2720    7.3780 O.3       1 APR1        0.0000 
     30 O1D        17.1240   20.7250    5.7280 O.3       1 APR1        0.0000 
     31 C1D        17.6910   20.1980    6.9610 C.3       1 APR1        0.0000 
     32 O2D        19.9810   19.8330    5.9950 O.3       1 APR1        0.0000 
     33 C2D        18.9150   19.2790    6.8060 C.3       1 APR1        0.0000 
     34 O3D        17.9780   18.5080    4.6610 O.3       1 APR1        0.0000 
     35 C3D        18.2350   18.1310    6.0500 C.3       1 APR1        0.0000 
     36 C4D        16.8990   17.9980    6.7850 C.3       1 APR1        0.0000 
     37 H          18.5496   24.4578   17.3534 H         1 APR1        0.0000 
     38 H          18.0571   27.3443   14.0242 H         1 APR1        0.0000 
     39 H          16.8404   26.6550   12.8972 H         1 APR1        0.0000 
     40 H          14.1641   22.5999   13.1053 H         1 APR1        0.0000 
     41 H          14.8946   21.5334   16.5422 H         1 APR1        0.0000 
     42 H          13.7123   21.0132   13.9108 H         1 APR1        0.0000 
     43 H          13.0575   18.9285   14.6462 H         1 APR1        0.0000 
     44 H          15.3720   18.3340   15.9406 H         1 APR1        0.0000 
     45 H          15.0256   17.2827   13.8530 H         1 APR1        0.0000 
     46 H          16.4885   18.2624   13.6532 H         1 APR1        0.0000 
     47 H          16.7386   16.0244    7.5311 H         1 APR1        0.0000 
     48 H          17.7263   17.1135    8.5201 H         1 APR1        0.0000 
     49 H          17.8395   20.9086    7.6918 H         1 APR1        0.0000 
     50 H          19.1945   18.9250    7.7428 H         1 APR1        0.0000 
     51 H          18.7814   17.2608    6.1648 H         1 APR1        0.0000 
     52 H          16.1197   17.7760    6.0720 H         1 APR1        0.0000 
     53 H          12.3664   21.0755   16.3643 H         1 APR1        0.0000 
     54 H          14.0529   19.6769   17.1952 H         1 APR1        0.0000 
     55 H          17.3213   20.0313    5.0353 H         1 APR1        0.0000 
     56 H          19.6378   19.7963    5.0565 H         1 APR1        0.0000 
     57 H          17.7994   17.6454    4.1877 H         1 APR1        0.0000 
@<TRIPOS>BOND
     1    2    1 ar   
     2    6    1 ar   
     3    3    2 ar   
     4   37    2 1    
     5    4    3 ar   
     6    5    4 ar   
     7   10    4 1    
     8    6    5 ar   
     9    8    5 1    
    10    7    6 1    
    11   38    7 1    
    12   39    7 1    
    13    9    8 2    
    14   10    9 1    
    15   40    9 1    
    16   11   10 1    
    17   12   11 1    
    18   16   11 1    
    19   41   11 1    
    20   13   12 1    
    21   14   12 1    
    22   42   12 1    
    23   53   13 1    
    24   15   14 1    
    25   17   14 1    
    26   43   14 1    
    27   54   15 1    
    28   17   16 1    
    29   18   17 1    
    30   44   17 1    
    31   19   18 1    
    32   45   18 1    
    33   46   18 1    
    34   20   19 1    
    35   21   20 ar   
    36   22   20 ar   
    37   23   20 1    
    38   24   23 1    
    39   25   24 ar   
    40   26   24 ar   
    41   27   24 1    
    42   28   27 1    
    43   36   28 1    
    44   47   28 1    
    45   48   28 1    
    46   31   29 1    
    47   36   29 1    
    48   31   30 1    
    49   55   30 1    
    50   33   31 1    
    51   49   31 1    
    52   33   32 1    
    53   56   32 1    
    54   35   33 1    
    55   50   33 1    
    56   35   34 1    
    57   57   34 1    
    58   36   35 1    
    59   51   35 1    
    60   52   36 1    
@<TRIPOS>SUBSTRUCTURE
     1 APR1        1 GROUP   
@<TRIPOS>SET

