#    Name: 1w5b_GTP_1_INTS_M
#    Modification time : Tue Mar 25 08:38:09 2014

@<TRIPOS>MOLECULE
1w5b_GTP_1_INTS_M
   59     0     9     0     0
SMALL
NO_CHARGES


@<TRIPOS>ATOM
      1 N          55.6745   11.3385   43.5345 N.am      2 SEC2        0.0000 
      2 N          54.9380   11.8890   42.6140 N.am      8 SEL2        0.0000 
      3 N          56.4110   10.7880   44.4550 N.am      5 SEP2        0.0000 
      4 N          55.7785   11.4545   41.5555 N.am      2 SEC2        0.0000 
      5 N          56.6190   11.0200   40.4970 N.am      5 SEP2        0.0000 
      6 N          52.8590   13.0570   43.9385 N.am      2 SEC2        0.0000 
      7 N          53.1040   13.6640   42.6250 N.am      8 SEL2        0.0000 
      8 N          52.6140   12.4500   45.2520 N.am      5 SEP2        0.0000 
      9 N          52.1915   10.4980   42.7505 N.am      2 SEC2        0.0000 
     10 N          52.5880   11.3890   41.7970 N.am      8 SEL2        0.0000 
     11 N          51.7950    9.6070   43.7040 N.am      5 SEP2        0.0000 
     12 N          53.4575   10.7150   40.4385 N.am      2 SEC2        0.0000 
     13 N          54.3270   10.0410   39.0800 N.am      5 SEP2        0.0000 
     14 N          52.0410   10.6825   40.7430 N.am      2 SEC2        0.0000 
     15 N          51.4940    9.9760   39.6890 N.am      5 SEP2        0.0000 
     16 N          54.2660   11.4330   39.7125 N.am      2 SEC2        0.0000 
     17 N          54.2050   12.8250   40.3450 N.am      8 SEL2        0.0000 
     18 N          51.4110   15.1180   38.6310 N.am      2 SEC2        0.0000 
     19 N          52.2860   14.3560   39.4920 N.am      8 SEL2        0.0000 
     20 N          50.5360   15.8800   37.7700 N.am      5 SEP2        0.0000 
     21 N          54.0210   12.3270   37.1225 N.am      2 SEC2        0.0000 
     22 N          54.0600   13.4070   37.9150 N.am      8 SEL2        0.0000 
     23 N          53.9820   11.2470   36.3300 N.am      5 SEP2        0.0000 
     24 N          52.8310   17.5355   37.1970 N.am      2 SEC2        0.0000 
     25 N          53.8080   16.7430   37.7170 N.am      8 SEL2        0.0000 
     26 N          51.8540   18.3280   36.6770 N.am      5 SEP2        0.0000 
     27 CA         57.3325   14.8540   39.0485 C.3       3 GLC5        0.0000 
     28 CA         56.8990   16.6210   38.1600 C.3       9 GLL5        0.0000 
     29 CA         57.7660   13.0870   39.9370 C.3       6 GLP5        0.0000 
     30 CA         59.9295   17.5910   40.2000 C.3       3 GLC5        0.0000 
     31 CA         58.4470   18.4930   38.9050 C.3       9 GLL5        0.0000 
     32 CA         61.4120   16.6890   41.4950 C.3       6 GLP5        0.0000 
     33 N          59.1775   16.9450   40.3195 N.am      2 SEC2        0.0000 
     34 N          59.6820   17.8840   39.2360 N.am      8 SEL2        0.0000 
     35 N          58.6730   16.0060   41.4030 N.am      5 SEP2        0.0000 
     36 O          60.2820   18.8390   39.9110 O.2       1 ALC1        0.0000 
     37 O          59.6820   17.8840   39.2360 O.2       7 ALL1        0.0000 
     38 O          60.8820   19.7940   40.5860 O.2       4 ALP1        0.0000 
     39 O          60.7505   20.5225   38.2935 O.2       1 ALC1        0.0000 
     40 O          59.8570   19.8970   37.5410 O.2       7 ALL1        0.0000 
     41 O          61.6440   21.1480   39.0460 O.2       4 ALP1        0.0000 
     42 CA         55.6665   19.6150   36.4240 C.3       3 GLC5        0.0000 
     43 CA         57.4910   20.0490   37.3710 C.3       9 GLL5        0.0000 
     44 CA         53.8420   19.1810   35.4770 C.3       6 GLP5        0.0000 
     45 CA         55.3800   24.2075   38.1850 C.3       3 GLC5        0.0000 
     46 CA         54.5660   22.1210   38.0060 C.3       9 GLL5        0.0000 
     47 CA         56.1940   26.2940   38.3640 C.3       6 GLP5        0.0000 
     48 O          53.5925   24.3955   35.3445 O.2       1 ALC1        0.0000 
     49 O          53.9510   23.5010   36.2040 O.2       7 ALL1        0.0000 
     50 O          53.2340   25.2900   34.4850 O.2       4 ALP1        0.0000 
     51 O          54.2810   24.5265   34.4325 O.2       1 ALC1        0.0000 
     52 O          55.3280   23.7630   34.3800 O.2       7 ALL1        0.0000 
     53 CA         57.1485   17.2075   35.8907 C.3       3 GLC5        0.0000 
     54 CA         57.8050   17.7550   37.7230 C.3       9 GLL5        0.0000 
     55 CA         56.9450   17.2270   33.8400 C.3       6 GLP5        0.0000 
     56 CA         58.3843   21.7067   38.3182 C.3       3 GLC5        0.0000 
     57 CA         58.6830   23.4410   38.7820 C.3       6 GLP5        0.0000 
     58 CA         54.4645   20.5460   36.5247 C.3       3 GLC5        0.0000 
     59 CA         55.6080   21.7010   37.1390 C.3       9 GLL5        0.0000 
@<TRIPOS>BOND
@<TRIPOS>SUBSTRUCTURE
     1 ALC1       36 GROUP        1 X    ALC  0     ROOT ALC X 1
     2 SEC2        1 GROUP        1 X    SEC  0     **** SEC X 2
     3 GLC5       27 GROUP        1 X    GLC  0     **** GLC X 6
     4 ALP1       38 GROUP        1 Y    ALP  0     ROOT ALP Y 8
     5 SEP2        3 GROUP        1 Y    SEP  0     **** SEP Y 9
     6 GLP5       29 GROUP        1 Y    GLP  0     **** GLP Y 13
     7 ALL1       37 GROUP        1 Z    ALL  0     ROOT ALL Z 15
     8 SEL2        2 GROUP        1 Z    SEL  0     **** SEL Z 16
     9 GLL5       28 GROUP        1 Z    GLL  0     **** GLL Z 20
@<TRIPOS>SET

