#    Name: 1w5b_GTP_1_ligand
#    Modification time : Tue Mar 25 08:38:09 2014

@<TRIPOS>MOLECULE
1w5b_GTP_1_ligand
   44    46     1     0     0
SMALL
NO_CHARGES


@<TRIPOS>ATOM
      1 PG         53.7030   12.4460   41.8820 P.3       1 GTP500      0.0000 
      2 O1G        54.9380   11.8890   42.6140 O.co2     1 GTP500      0.0000 
      3 O2G        53.1040   13.6640   42.6250 O.co2     1 GTP500      0.0000 
      4 O3G        52.5880   11.3890   41.7970 O.co2     1 GTP500      0.0000 
      5 O3B        54.2050   12.8250   40.3450 O.3       1 GTP500      0.0000 
      6 PB         53.6770   13.9580   39.2850 P.3       1 GTP500      0.0000 
      7 O1B        52.2860   14.3560   39.4920 O.co2     1 GTP500      0.0000 
      8 O2B        54.0600   13.4070   37.9150 O.co2     1 GTP500      0.0000 
      9 O3A        54.5400   15.2200   39.5290 O.3       1 GTP500      0.0000 
     10 PA         54.3740   16.6810   39.0650 P.3       1 GTP500      0.0000 
     11 O1A        53.7340   17.4920   40.1410 O.co2     1 GTP500      0.0000 
     12 O2A        53.8080   16.7430   37.7170 O.co2     1 GTP500      0.0000 
     13 O5'        55.9410   17.1150   39.1030 O.3       1 GTP500      0.0000 
     14 C5'        56.8990   16.6210   38.1600 C.3       1 GTP500      0.0000 
     15 C4'        57.8050   17.7550   37.7230 C.3       1 GTP500      0.0000 
     16 O4'        57.0120   18.7470   37.0390 O.3       1 GTP500      0.0000 
     17 C3'        58.4470   18.4930   38.9050 C.3       1 GTP500      0.0000 
     18 O3'        59.6820   17.8840   39.2360 O.3       1 GTP500      0.0000 
     19 C2'        58.6800   19.8960   38.3380 C.3       1 GTP500      0.0000 
     20 O2'        59.8570   19.8970   37.5410 O.3       1 GTP500      0.0000 
     21 C1'        57.4910   20.0490   37.3710 C.3       1 GTP500      0.0000 
     22 N9         56.3760   20.8580   37.8820 N.pl3     1 GTP500      0.0000 
     23 C8         55.6990   20.6910   39.0940 C.2       1 GTP500      0.0000 
     24 N7         54.5870   21.3910   39.1780 N.2       1 GTP500      0.0000 
     25 C5         54.5660   22.1210   38.0060 C.2       1 GTP500      0.0000 
     26 C6         53.6160   23.0380   37.4910 C.2       1 GTP500      0.0000 
     27 O6         52.6880   23.5650   38.0940 O.2       1 GTP500      0.0000 
     28 N1         53.9510   23.5010   36.2040 N.am      1 GTP500      0.0000 
     29 C2         55.0830   23.1260   35.4910 C.2       1 GTP500      0.0000 
     30 N2         55.3280   23.7630   34.3800 N.pl3     1 GTP500      0.0000 
     31 N3         55.9250   22.2000   35.9110 N.2       1 GTP500      0.0000 
     32 C4         55.6080   21.7010   37.1390 C.2       1 GTP500      0.0000 
     33 H          56.4115   16.2111   37.2690 H         1 GTP500      0.0000 
     34 H          57.5235   15.8341   38.5962 H         1 GTP500      0.0000 
     35 H          58.5762   17.3887   37.0883 H         1 GTP500      0.0000 
     36 H          57.7542   18.5501   39.6825 H         1 GTP500      0.0000 
     37 H          58.6229   20.5982   39.0697 H         1 GTP500      0.0000 
     38 H          57.8873   20.5206   36.4560 H         1 GTP500      0.0000 
     39 H          56.0596   20.0884   39.8019 H         1 GTP500      0.0000 
     40 H          53.2825   24.1893   35.7499 H         1 GTP500      0.0000 
     41 H          54.6531   24.4490   34.1081 H         1 GTP500      0.0000 
     42 H          56.1683   23.5069   33.9021 H         1 GTP500      0.0000 
     43 H          60.1905   18.5852   39.7357 H         1 GTP500      0.0000 
     44 H          60.3664   20.7065   37.8329 H         1 GTP500      0.0000 
@<TRIPOS>BOND
     1    2    1 ar   
     2    3    1 ar   
     3    4    1 ar   
     4    5    1 1    
     5    6    5 1    
     6    7    6 ar   
     7    8    6 ar   
     8    9    6 1    
     9   10    9 1    
    10   11   10 ar   
    11   12   10 ar   
    12   13   10 1    
    13   14   13 1    
    14   15   14 1    
    15   33   14 1    
    16   34   14 1    
    17   16   15 1    
    18   17   15 1    
    19   35   15 1    
    20   21   16 1    
    21   18   17 1    
    22   19   17 1    
    23   36   17 1    
    24   43   18 1    
    25   20   19 1    
    26   21   19 1    
    27   37   19 1    
    28   44   20 1    
    29   22   21 1    
    30   38   21 1    
    31   23   22 1    
    32   32   22 1    
    33   24   23 2    
    34   39   23 1    
    35   25   24 1    
    36   26   25 1    
    37   32   25 2    
    38   27   26 2    
    39   28   26 am   
    40   29   28 1    
    41   40   28 1    
    42   30   29 1    
    43   31   29 2    
    44   41   30 1    
    45   42   30 1    
    46   32   31 1    
@<TRIPOS>SUBSTRUCTURE
     1 GTP500      1 GROUP   
@<TRIPOS>SET

