#    Name: 1e9h_INR_1_INTS_M
#    Modification time : Mon Mar 24 23:18:32 2014

@<TRIPOS>MOLECULE
1e9h_INR_1_INTS_M
   66     0    12     0     0
SMALL
NO_CHARGES


@<TRIPOS>ATOM
      1 CA          6.8020   39.7900   48.0150 C.3       4 GLC5        0.0000 
      2 CA          5.2510   41.3070   48.5890 C.3      12 GLL5        0.0000 
      3 CA          8.3530   38.2730   47.4410 C.3       8 GLP5        0.0000 
      4 O           7.5265   41.9270   49.1785 O.2       1 ALC1        0.0000 
      5 O           6.5960   42.9910   49.8150 O.2       9 ALL1        0.0000 
      6 O           8.4570   40.8630   48.5420 O.2       5 ALP1        0.0000 
      7 CA          1.7860   40.3515   50.7085 C.3       4 GLC5        0.0000 
      8 CA          3.1850   42.0410   50.4880 C.3      12 GLL5        0.0000 
      9 CA          0.3870   38.6620   50.9290 C.3       8 GLP5        0.0000 
     10 CA          1.3565   40.1610   49.5795 C.3       4 GLC5        0.0000 
     11 CA          2.9390   41.0520   49.4890 C.3      12 GLL5        0.0000 
     12 CA         -0.2260   39.2700   49.6700 C.3       8 GLP5        0.0000 
     13 CA          5.1585   44.4635   49.5925 C.3       4 GLC5        0.0000 
     14 CA          6.5140   43.8280   50.8300 C.3      12 GLL5        0.0000 
     15 CA          3.8030   45.0990   48.3550 C.3       8 GLP5        0.0000 
     16 CA          6.7755   42.8415   52.2915 C.3       4 GLC5        0.0000 
     17 CA          7.0370   41.8550   53.7530 C.3       8 GLP5        0.0000 
     18 N          10.0750   42.9240   49.2255 N.am      2 SEC2        0.0000 
     19 N           9.1670   43.8860   49.5430 N.am     10 SEL2        0.0000 
     20 N          10.9830   41.9620   48.9080 N.am      6 SEP2        0.0000 
     21 O          11.1575   45.3860   50.6960 O.2       1 ALC1        0.0000 
     22 O           9.6940   45.4290   51.1040 O.2       9 ALL1        0.0000 
     23 O          12.6210   45.3430   50.2880 O.2       5 ALP1        0.0000 
     24 CA          6.4005   47.2550   51.5250 C.3       4 GLC5        0.0000 
     25 CA          6.9910   46.1870   53.3550 C.3      12 GLL5        0.0000 
     26 CA          5.8100   48.3230   49.6950 C.3       8 GLP5        0.0000 
     27 CA          8.1330   44.5665   53.6885 C.3       4 GLC5        0.0000 
     28 CA          9.2750   42.9460   54.0220 C.3       8 GLP5        0.0000 
     29 CA          8.0585   45.7825   55.7785 C.3       4 GLC5        0.0000 
     30 CA          7.5910   47.1560   54.2230 C.3      12 GLL5        0.0000 
     31 CA          8.5260   44.4090   57.3340 C.3       8 GLP5        0.0000 
     32 CA         10.9245   45.6390   54.0025 C.3       4 GLC5        0.0000 
     33 CA          9.7160   47.0060   52.9840 C.3      12 GLL5        0.0000 
     34 CA         12.1330   44.2720   55.0210 C.3       8 GLP5        0.0000 
     35 NZ          6.9505   50.0625   56.3015 N.4       3 LYC4        0.0000 
     36 NZ          7.4830   48.7510   56.2540 N.4      11 LYL4        0.0000 
     37 NZ          6.4180   51.3740   56.3490 N.4       7 LYP4        0.0000 
     38 N           6.9505   50.0625   56.3015 N.am      2 SEC2        0.0000 
     39 N           7.4830   48.7510   56.2540 N.am     10 SEL2        0.0000 
     40 N           6.4180   51.3740   56.3490 N.am      6 SEP2        0.0000 
     41 N           7.6920   47.7675   57.5705 N.am      2 SEC2        0.0000 
     42 N           7.9010   46.7840   58.8870 N.am      6 SEP2        0.0000 
     43 NZ          5.9905   50.0005   55.6200 N.4       3 LYC4        0.0000 
     44 NZ          5.5630   48.6270   54.8910 N.4      11 LYL4        0.0000 
     45 N           5.9905   50.0005   55.6200 N.am      2 SEC2        0.0000 
     46 N           5.5630   48.6270   54.8910 N.am     10 SEL2        0.0000 
     47 CA          4.3898   43.7822   49.2020 C.3       4 GLC5        0.0000 
     48 CA          4.4740   42.6430   50.5070 C.3      12 GLL5        0.0000 
     49 CA          5.5185   39.8323   49.5940 C.3       4 GLC5        0.0000 
     50 CA          5.4790   42.2880   49.5910 C.3      12 GLL5        0.0000 
     51 CA          5.6720   37.8670   50.0980 C.3       8 GLP5        0.0000 
     52 CA          6.0068   42.1602   51.9010 C.3       4 GLC5        0.0000 
     53 CA          4.2048   43.0483   48.4620 C.3       4 GLC5        0.0000 
     54 CA          3.4325   43.3227   49.1717 C.3       4 GLC5        0.0000 
     55 CA          4.5613   39.3685   49.5585 C.3       4 GLC5        0.0000 
     56 CA          6.7427   46.7218   50.7197 C.3       4 GLC5        0.0000 
     57 CA          7.5750   44.6090   51.1860 C.3      12 GLL5        0.0000 
     58 CA          8.7363   46.2632   50.2357 C.3       4 GLC5        0.0000 
     59 CA          7.7760   45.6320   52.3030 C.3      12 GLL5        0.0000 
     60 CA          9.7970   47.4060   48.7270 C.3       8 GLP5        0.0000 
     61 CA          8.4753   44.0333   52.8832 C.3       4 GLC5        0.0000 
     62 CA          9.6052   46.9663   50.6430 C.3       4 GLC5        0.0000 
     63 CA          9.1110   46.0470   52.1340 C.3      12 GLL5        0.0000 
     64 CA          9.3443   44.7362   53.2905 C.3       4 GLC5        0.0000 
     65 CA         10.7571   47.8996   52.5213 C.3       4 GLC5        0.0000 
     66 CA         12.3370   48.7570   51.7430 C.3       8 GLP5        0.0000 
@<TRIPOS>BOND
@<TRIPOS>SUBSTRUCTURE
     1 ALC1        4 GROUP        1 X    ALC  0     ROOT ALC X 1
     2 SEC2       18 GROUP        1 X    SEC  0     **** SEC X 2
     3 LYC4       35 GROUP        1 X    LYC  0     **** LYC X 4
     4 GLC5        1 GROUP        1 X    GLC  0     **** GLC X 6
     5 ALP1        6 GROUP        1 Y    ALP  0     ROOT ALP Y 8
     6 SEP2       20 GROUP        1 Y    SEP  0     **** SEP Y 9
     7 LYP4       37 GROUP        1 Y    LYP  0     **** LYP Y 11
     8 GLP5        3 GROUP        1 Y    GLP  0     **** GLP Y 13
     9 ALL1        5 GROUP        1 Z    ALL  0     ROOT ALL Z 15
    10 SEL2       19 GROUP        1 Z    SEL  0     **** SEL Z 16
    11 LYL4       36 GROUP        1 Z    LYL  0     **** LYL Z 18
    12 GLL5        2 GROUP        1 Z    GLL  0     **** GLL Z 20
@<TRIPOS>SET

