#    Name: 1e9h_INR_1_ligand
#    Modification time : Mon Mar 24 23:18:32 2014

@<TRIPOS>MOLECULE
1e9h_INR_1_ligand
   33    36     1     0     0
SMALL
NO_CHARGES


@<TRIPOS>ATOM
      1 C1          5.4790   42.2880   49.5910 C.ar      1 INR1298     0.0000 
      2 C2          4.4740   42.6430   50.5070 C.ar      1 INR1298     0.0000 
      3 C6          5.2510   41.3070   48.5890 C.ar      1 INR1298     0.0000 
      4 N7          6.5960   42.9910   49.8150 N.pl3     1 INR1298     0.0000 
      5 C3          3.1850   42.0410   50.4880 C.ar      1 INR1298     0.0000 
      6 C8          5.1390   43.6880   51.3530 C.2       1 INR1298     0.0000 
      7 C4          2.9390   41.0520   49.4890 C.ar      1 INR1298     0.0000 
      8 C5          3.9620   40.6880   48.5490 C.ar      1 INR1298     0.0000 
      9 O10         4.6080   44.2600   52.2820 O.2       1 INR1298     0.0000 
     10 C9          6.5140   43.8280   50.8300 C.2       1 INR1298     0.0000 
     11 C11         7.5750   44.6090   51.1860 C.2       1 INR1298     0.0000 
     12 C12         8.8950   44.5920   50.5140 C.2       1 INR1298     0.0000 
     13 C15         7.7760   45.6320   52.3030 C.ar      1 INR1298     0.0000 
     14 O13         9.1670   43.8860   49.5430 O.2       1 INR1298     0.0000 
     15 N14         9.6940   45.4290   51.1040 N.am      1 INR1298     0.0000 
     16 C16         9.1110   46.0470   52.1340 C.ar      1 INR1298     0.0000 
     17 C20         6.9910   46.1870   53.3550 C.ar      1 INR1298     0.0000 
     18 C19         7.5910   47.1560   54.2230 C.ar      1 INR1298     0.0000 
     19 C18         8.9410   47.5580   54.0400 C.ar      1 INR1298     0.0000 
     20 S21         6.5850   47.8190   55.5250 S.o2      1 INR1298     0.0000 
     21 C17         9.7160   47.0060   52.9840 C.ar      1 INR1298     0.0000 
     22 O24         7.4830   48.7510   56.2540 O.co2     1 INR1298     0.0000 
     23 O23         6.1900   46.7450   56.4090 O.co2     1 INR1298     0.0000 
     24 O22         5.5630   48.6270   54.8910 O.co2     1 INR1298     0.0000 
     25 H           5.9624   41.0553   47.9337 H         1 INR1298     0.0000 
     26 H           7.4259   42.8815   49.2482 H         1 INR1298     0.0000 
     27 H           2.4803   42.2984   51.1455 H         1 INR1298     0.0000 
     28 H           2.0279   40.5964   49.4388 H         1 INR1298     0.0000 
     29 H           3.7641   39.9774   47.8435 H         1 INR1298     0.0000 
     30 H          10.6434   45.6050   50.8321 H         1 INR1298     0.0000 
     31 H           6.0342   45.9061   53.4883 H         1 INR1298     0.0000 
     32 H           9.3564   48.2455   54.6687 H         1 INR1298     0.0000 
     33 H          10.6721   47.2910   52.8449 H         1 INR1298     0.0000 
@<TRIPOS>BOND
     1    2    1 ar   
     2    3    1 ar   
     3    4    1 1    
     4    5    2 ar   
     5    6    2 1    
     6    8    3 ar   
     7   25    3 1    
     8   10    4 1    
     9   26    4 1    
    10    7    5 ar   
    11   27    5 1    
    12    9    6 2    
    13   10    6 1    
    14    8    7 ar   
    15   28    7 1    
    16   29    8 1    
    17   11   10 2    
    18   12   11 1    
    19   13   11 1    
    20   14   12 2    
    21   15   12 am   
    22   16   13 ar   
    23   17   13 ar   
    24   16   15 1    
    25   30   15 1    
    26   21   16 ar   
    27   18   17 ar   
    28   31   17 1    
    29   19   18 ar   
    30   20   18 1    
    31   21   19 ar   
    32   32   19 1    
    33   22   20 ar   
    34   23   20 ar   
    35   24   20 ar   
    36   33   21 1    
@<TRIPOS>SUBSTRUCTURE
     1 INR1298     1 GROUP   
@<TRIPOS>SET

