#    Name: 3tfn_2CJ_1_INTS_M
#    Modification time : Mon Mar 24 20:00:51 2014

@<TRIPOS>MOLECULE
3tfn_2CJ_1_INTS_M
   74     0     9     0     0
SMALL
NO_CHARGES


@<TRIPOS>ATOM
      1 NZ          5.7945   20.2325    6.9145 N.4       2 LYC4        0.0000 
      2 NZ          6.0010   21.1640    5.6370 N.4       8 LYL4        0.0000 
      3 NZ          4.7110   18.2770    8.0320 N.4       5 LYP4        0.0000 
      4 N           5.7945   20.2325    6.9145 N.am      1 SEC2        0.0000 
      5 N           6.0010   21.1640    5.6370 N.am      7 SEL2        0.0000 
      6 N           5.5880   19.3010    8.1920 N.am      4 SEP2        0.0000 
      7 N           2.3990   22.6480    8.5670 N.am      1 SEC2        0.0000 
      8 N           2.0990   23.8690    7.6700 N.am      7 SEL2        0.0000 
      9 N           2.6990   21.4270    9.4640 N.am      4 SEP2        0.0000 
     10 N           6.4345   20.6475    7.6885 N.am      1 SEC2        0.0000 
     11 N           7.2810   21.9940    7.1850 N.am      7 SEL2        0.0000 
     12 CA         -0.3590   25.4405    9.6660 C.3       3 GLC5        0.0000 
     13 CA          1.4420   26.2840    8.7390 C.3       9 GLL5        0.0000 
     14 CA         -2.1600   24.5970   10.5930 C.3       6 GLP5        0.0000 
     15 CA          0.9525   28.4290   10.5220 C.3       3 GLC5        0.0000 
     16 CA          0.7630   27.6380    8.5700 C.3       9 GLL5        0.0000 
     17 CA          1.1420   29.2200   12.4740 C.3       6 GLP5        0.0000 
     18 CA         -3.6845   31.0470    6.8240 C.3       3 GLC5        0.0000 
     19 CA         -3.4110   30.1130    8.8770 C.3       9 GLL5        0.0000 
     20 CA         -3.4370   32.2790    5.0810 C.3       6 GLP5        0.0000 
     21 CA         -6.1265   28.4970    8.2472 C.3       3 GLC5        0.0000 
     22 CA         -4.4530   29.5170    8.2570 C.3       9 GLL5        0.0000 
     23 CA         -7.9190   27.8980    8.7600 C.3       6 GLP5        0.0000 
     24 CA         -4.0855   27.3630    8.3343 C.3       3 GLC5        0.0000 
     25 CA         -3.8370   25.6300    8.9340 C.3       6 GLP5        0.0000 
     26 CA         -1.1837   28.5577    1.4785 C.3       3 GLC5        0.0000 
     27 CA         -1.8510   28.8670    3.3480 C.3       9 GLL5        0.0000 
     28 CA         -0.8190   27.6870   -0.1370 C.3       6 GLP5        0.0000 
     29 CA         -2.3078   30.3708    1.4775 C.3       3 GLC5        0.0000 
     30 CA         -1.2460   29.9900    2.8400 C.3       9 GLL5        0.0000 
     31 CA         -3.0670   31.3130   -0.1390 C.3       6 GLP5        0.0000 
     32 CA          0.6090   30.7645    2.0057 C.3       3 GLC5        0.0000 
     33 CA          2.0370   31.1640    0.7880 C.3       6 GLP5        0.0000 
     34 CA         -2.4928   30.8538    4.0875 C.3       3 GLC5        0.0000 
     35 CA         -3.5105   30.4183    6.0317 C.3       3 GLC5        0.0000 
     36 CA         -2.9530   28.4400    6.7530 C.3       9 GLL5        0.0000 
     37 CA         -1.4287   26.7885    3.0743 C.3       3 GLC5        0.0000 
     38 CA         -1.6200   28.4690    4.6410 C.3       9 GLL5        0.0000 
     39 CA         -1.1220   24.9090    2.1540 C.3       6 GLP5        0.0000 
     40 CA         -0.0075   31.6430    5.6463 C.3       3 GLC5        0.0000 
     41 CA         -0.3920   30.7400    3.6070 C.3       9 GLL5        0.0000 
     42 CA          0.2640   32.7410    7.0420 C.3       6 GLP5        0.0000 
     43 CA         -1.8580   31.4120    4.6658 C.3       3 GLC5        0.0000 
     44 CA         -0.1660   30.3500    4.8940 C.3       9 GLL5        0.0000 
     45 CA         -0.8835   31.0885    7.4780 C.3       3 GLC5        0.0000 
     46 CA         -1.9100   29.0070    7.4090 C.3       9 GLL5        0.0000 
     47 CA         -3.5075   31.6470    9.1030 C.3       3 GLC5        0.0000 
     48 CA         -2.1520   29.8650    8.4190 C.3       9 GLL5        0.0000 
     49 CA         -3.9730   33.4540    9.7130 C.3       6 GLP5        0.0000 
     50 CA         -2.7340   30.8575    6.4975 C.3       3 GLC5        0.0000 
     51 CA         -3.0980   29.3595   10.2595 C.3       3 GLC5        0.0000 
     52 CA         -3.1540   28.8790   12.0260 C.3       6 GLP5        0.0000 
     53 CA         -3.1342   27.1767    8.0075 C.3       3 GLC5        0.0000 
     54 CA         -2.3105   30.5560    5.0543 C.3       3 GLC5        0.0000 
     55 CA          1.3232   23.0542    5.6348 C.3       3 GLC5        0.0000 
     56 CA          2.6910   21.3420    4.8520 C.3       9 GLL5        0.0000 
     57 CA         -0.1360   24.4350    5.7350 C.3       6 GLP5        0.0000 
     58 CA          1.1067   21.3567    6.2503 C.3       3 GLC5        0.0000 
     59 CA          2.8740   22.0050    6.2170 C.3       9 GLL5        0.0000 
     60 CA         -0.5690   21.0400    6.9660 C.3       6 GLP5        0.0000 
     61 CA          1.0345   26.0315    6.2145 C.3       3 GLC5        0.0000 
     62 CA          2.8360   27.2930    6.9880 C.3       9 GLL5        0.0000 
     63 CA          2.6355   27.7825    4.6205 C.3       3 GLC5        0.0000 
     64 CA          1.5740   27.9630    6.4000 C.3       9 GLL5        0.0000 
     65 CA          3.0660   27.9370    2.5470 C.3       6 GLP5        0.0000 
     66 CA          0.4833   25.6980    7.1947 C.3       3 GLC5        0.0000 
     67 CA          3.3733   22.7747    3.3425 C.3       3 GLC5        0.0000 
     68 CA          4.5510   22.6410    4.6520 C.3       9 GLL5        0.0000 
     69 CA          2.7750   23.5890    2.0550 C.3       6 GLP5        0.0000 
     70 CA          3.1219   23.5448    4.0337 C.3       3 GLC5        0.0000 
     71 CA          1.8062   24.0933    5.8435 C.3       3 GLC5        0.0000 
     72 CA          3.5040   24.4940    5.9290 C.3       9 GLL5        0.0000 
     73 CA         -0.1770   30.8873    6.5992 C.3       3 GLC5        0.0000 
     74 CA         -0.4880   28.8700    6.8990 C.3       9 GLL5        0.0000 
@<TRIPOS>BOND
@<TRIPOS>SUBSTRUCTURE
     1 SEC2        4 GROUP        1 X    SEC  0     ROOT SEC X 2
     2 LYC4        1 GROUP        1 X    LYC  0     **** LYC X 4
     3 GLC5       12 GROUP        1 X    GLC  0     **** GLC X 6
     4 SEP2        6 GROUP        1 Y    SEP  0     ROOT SEP Y 9
     5 LYP4        3 GROUP        1 Y    LYP  0     **** LYP Y 11
     6 GLP5       14 GROUP        1 Y    GLP  0     **** GLP Y 13
     7 SEL2        5 GROUP        1 Z    SEL  0     ROOT SEL Z 16
     8 LYL4        2 GROUP        1 Z    LYL  0     **** LYL Z 18
     9 GLL5       13 GROUP        1 Z    GLL  0     **** GLL Z 20
@<TRIPOS>SET

