#    Name: 3tfn_2CJ_1_ligand
#    Modification time : Mon Mar 24 20:00:51 2014

@<TRIPOS>MOLECULE
3tfn_2CJ_1_ligand
   63    66     1     0     0
SMALL
NO_CHARGES


@<TRIPOS>ATOM
      1 OAA         6.0010   21.1640    5.6370 O.co2     1 2CJ301      0.0000 
      2 OAB         2.0990   23.8690    7.6700 O.2       1 2CJ301      0.0000 
      3 OAC         7.2810   21.9940    7.1850 O.co2     1 2CJ301      0.0000 
      4 CAD        -4.4530   29.5170    8.2570 C.ar      1 2CJ301      0.0000 
      5 CAE        -1.2460   29.9900    2.8400 C.ar      1 2CJ301      0.0000 
      6 CAF        -3.4110   30.1130    8.8770 C.ar      1 2CJ301      0.0000 
      7 CAG        -4.2150   28.6750    7.2120 C.ar      1 2CJ301      0.0000 
      8 CAH        -1.8510   28.8670    3.3480 C.ar      1 2CJ301      0.0000 
      9 CAI        -0.3920   30.7400    3.6070 C.ar      1 2CJ301      0.0000 
     10 CAJ        -2.1520   29.8650    8.4190 C.ar      1 2CJ301      0.0000 
     11 CAK        -2.9530   28.4400    6.7530 C.ar      1 2CJ301      0.0000 
     12 CAL        -1.6200   28.4690    4.6410 C.ar      1 2CJ301      0.0000 
     13 CAM        -0.1660   30.3500    4.8940 C.ar      1 2CJ301      0.0000 
     14 CAN         2.6910   21.3420    4.8520 C.3       1 2CJ301      0.0000 
     15 CAO         4.0930   21.2180    4.3640 C.3       1 2CJ301      0.0000 
     16 CAP         2.8360   27.2930    6.9880 C.3       1 2CJ301      0.0000 
     17 CAQ         1.4420   26.2840    8.7390 C.3       1 2CJ301      0.0000 
     18 CAR         1.5740   27.9630    6.4000 C.3       1 2CJ301      0.0000 
     19 CAS         0.7630   27.6380    8.5700 C.3       1 2CJ301      0.0000 
     20 CAT         2.8740   22.0050    6.2170 C.3       1 2CJ301      0.0000 
     21 CAU         4.5510   22.6410    4.6520 C.3       1 2CJ301      0.0000 
     22 CAV         5.0620   22.7740    7.0270 C.3       1 2CJ301      0.0000 
     23 CAW         3.5040   24.4940    5.9290 C.3       1 2CJ301      0.0000 
     24 CAX         6.2160   21.9270    6.5630 C.2       1 2CJ301      0.0000 
     25 CAY         2.6110   24.8150    7.1140 C.2       1 2CJ301      0.0000 
     26 CAZ        -1.9100   29.0070    7.4090 C.ar      1 2CJ301      0.0000 
     27 CBA        -0.7480   29.1970    5.4140 C.ar      1 2CJ301      0.0000 
     28 CBB        -0.4880   28.8700    6.8990 C.3       1 2CJ301      0.0000 
     29 NBC         2.3530   26.0470    7.5970 N.am      1 2CJ301      0.0000 
     30 NBD         0.3370   27.6960    7.1750 N.4       1 2CJ301      0.0000 
     31 CBE         3.9930   23.0090    5.9750 C.3       1 2CJ301      0.0000 
     32 H          -5.4239   29.6944    8.5682 H         1 2CJ301      0.0000 
     33 H          -1.4391   30.2757    1.8575 H         1 2CJ301      0.0000 
     34 H          -3.5595   30.7419    9.6787 H         1 2CJ301      0.0000 
     35 H          -5.0247   28.1947    6.7482 H         1 2CJ301      0.0000 
     36 H          -2.4915   28.3119    2.7460 H         1 2CJ301      0.0000 
     37 H           0.0633   31.5721    3.2196 H         1 2CJ301      0.0000 
     38 H          -1.3425   30.3658    8.8757 H         1 2CJ301      0.0000 
     39 H          -2.7987   27.8460    5.9280 H         1 2CJ301      0.0000 
     40 H          -2.0904   27.6414    5.0248 H         1 2CJ301      0.0000 
     41 H           0.4527   30.9178    5.5106 H         1 2CJ301      0.0000 
     42 H           2.2509   20.3870    4.9831 H         1 2CJ301      0.0000 
     43 H           2.1279   21.9835    4.2241 H         1 2CJ301      0.0000 
     44 H           4.1165   21.0436    3.3340 H         1 2CJ301      0.0000 
     45 H           4.6366   20.5483    4.9539 H         1 2CJ301      0.0000 
     46 H           3.2568   27.9500    7.7200 H         1 2CJ301      0.0000 
     47 H           3.5191   27.0994    6.1878 H         1 2CJ301      0.0000 
     48 H           0.6761   25.5120    8.7824 H         1 2CJ301      0.0000 
     49 H           1.9968   26.2857    9.6753 H         1 2CJ301      0.0000 
     50 H           1.4570   27.6094    5.3597 H         1 2CJ301      0.0000 
     51 H           1.7630   29.0503    6.3447 H         1 2CJ301      0.0000 
     52 H           1.4762   28.4123    8.7943 H         1 2CJ301      0.0000 
     53 H          -0.0787   27.6881    9.2390 H         1 2CJ301      0.0000 
     54 H           3.1835   21.2824    6.9271 H         1 2CJ301      0.0000 
     55 H           1.9853   22.5126    6.4902 H         1 2CJ301      0.0000 
     56 H           4.1714   23.2947    3.8839 H         1 2CJ301      0.0000 
     57 H           5.6281   22.6661    4.6732 H         1 2CJ301      0.0000 
     58 H           5.4445   23.7555    7.3705 H         1 2CJ301      0.0000 
     59 H           4.5925   22.2987    7.9109 H         1 2CJ301      0.0000 
     60 H           4.3789   25.1401    5.9359 H         1 2CJ301      0.0000 
     61 H           2.9585   24.6434    5.0000 H         1 2CJ301      0.0000 
     62 H           0.0279   29.8183    7.2643 H         1 2CJ301      0.0000 
     63 H          -0.1009   26.8170    6.8451 H         1 2CJ301      0.0000 
@<TRIPOS>BOND
     1   24    1 ar   
     2   25    2 2    
     3   24    3 ar   
     4    6    4 ar   
     5    7    4 ar   
     6   32    4 1    
     7    8    5 ar   
     8    9    5 ar   
     9   33    5 1    
    10   10    6 ar   
    11   34    6 1    
    12   11    7 ar   
    13   35    7 1    
    14   12    8 ar   
    15   36    8 1    
    16   13    9 ar   
    17   37    9 1    
    18   26   10 ar   
    19   38   10 1    
    20   26   11 ar   
    21   39   11 1    
    22   27   12 ar   
    23   40   12 1    
    24   27   13 ar   
    25   41   13 1    
    26   15   14 1    
    27   20   14 1    
    28   42   14 1    
    29   43   14 1    
    30   21   15 1    
    31   44   15 1    
    32   45   15 1    
    33   18   16 1    
    34   29   16 1    
    35   46   16 1    
    36   47   16 1    
    37   19   17 1    
    38   29   17 1    
    39   48   17 1    
    40   49   17 1    
    41   30   18 1    
    42   50   18 1    
    43   51   18 1    
    44   30   19 1    
    45   52   19 1    
    46   53   19 1    
    47   31   20 1    
    48   54   20 1    
    49   55   20 1    
    50   31   21 1    
    51   56   21 1    
    52   57   21 1    
    53   24   22 1    
    54   31   22 1    
    55   58   22 1    
    56   59   22 1    
    57   25   23 1    
    58   31   23 1    
    59   60   23 1    
    60   61   23 1    
    61   29   25 am   
    62   28   26 1    
    63   28   27 1    
    64   30   28 1    
    65   62   28 1    
    66   63   30 1    
@<TRIPOS>SUBSTRUCTURE
     1 2CJ301      1 GROUP   
@<TRIPOS>SET

