#    Name: 1q4x_G24_1_INTS_M
#    Modification time : Mon Mar 24 23:05:27 2014

@<TRIPOS>MOLECULE
1q4x_G24_1_INTS_M
   81     0     6     0     0
SMALL
NO_CHARGES


@<TRIPOS>ATOM
      1 CA         10.5370   21.5765   42.1575 C.3       2 GLC5        0.0000 
      2 CA         10.4950   23.5450   41.1850 C.3       6 GLL5        0.0000 
      3 CA         10.5790   19.6080   43.1300 C.3       4 GLP5        0.0000 
      4 CA         12.5845   28.4710   42.3450 C.3       2 GLC5        0.0000 
      5 CA         11.7900   26.9620   43.5630 C.3       6 GLL5        0.0000 
      6 CA         13.3790   29.9800   41.1270 C.3       4 GLP5        0.0000 
      7 CA         13.6610   27.6295   45.7655 C.3       2 GLC5        0.0000 
      8 CA         13.3650   26.0290   45.2950 C.3       6 GLL5        0.0000 
      9 CA         13.9570   29.2300   46.2360 C.3       4 GLP5        0.0000 
     10 N           9.1230   27.4195   46.6350 N.am      1 SEC2        0.0000 
     11 N           9.8160   26.8060   45.6220 N.am      5 SEL2        0.0000 
     12 N           8.4300   28.0330   47.6480 N.am      3 SEP2        0.0000 
     13 CA         11.1195   26.1830   49.1065 C.3       2 GLC5        0.0000 
     14 CA         11.3450   25.8400   47.2250 C.3       6 GLL5        0.0000 
     15 CA         10.8940   26.5260   50.9880 C.3       4 GLP5        0.0000 
     16 CA         12.3370   26.6430   49.0200 C.3       2 GLC5        0.0000 
     17 CA         12.6590   25.4070   47.5420 C.3       6 GLL5        0.0000 
     18 CA         12.0150   27.8790   50.4980 C.3       4 GLP5        0.0000 
     19 CA         16.5115   26.3160   46.2165 C.3       2 GLC5        0.0000 
     20 CA         15.1510   25.1080   46.8520 C.3       6 GLL5        0.0000 
     21 CA         17.8720   27.5240   45.5810 C.3       4 GLP5        0.0000 
     22 CA         14.9675   26.9395   47.1400 C.3       2 GLC5        0.0000 
     23 CA         14.7840   28.7710   47.4280 C.3       4 GLP5        0.0000 
     24 CA         17.3090   24.6435   51.0945 C.3       2 GLC5        0.0000 
     25 CA         15.8330   25.2290   49.7750 C.3       6 GLL5        0.0000 
     26 CA         18.7850   24.0580   52.4140 C.3       4 GLP5        0.0000 
     27 CA         15.3085   27.0000   48.6015 C.3       2 GLC5        0.0000 
     28 CA         15.7775   27.0650   50.6210 C.3       2 GLC5        0.0000 
     29 CA         15.7220   28.9010   51.4670 C.3       4 GLP5        0.0000 
     30 CA         14.2645   22.5675   51.2185 C.3       2 GLC5        0.0000 
     31 CA         15.8420   22.7100   49.8270 C.3       6 GLL5        0.0000 
     32 CA         12.6870   22.4250   52.6100 C.3       4 GLP5        0.0000 
     33 CA         17.3135   23.3840   51.1205 C.3       2 GLC5        0.0000 
     34 CA         14.9445   22.8210   43.5725 C.3       2 GLC5        0.0000 
     35 CA         14.8310   22.3710   45.6230 C.3       6 GLL5        0.0000 
     36 CA         15.0580   23.2710   41.5220 C.3       4 GLP5        0.0000 
     37 CA         15.6570   20.6155   44.8025 C.3       2 GLC5        0.0000 
     38 CA         16.4830   18.8600   43.9820 C.3       4 GLP5        0.0000 
     39 N          17.2905   19.3860   49.5060 N.am      1 SEC2        0.0000 
     40 N          15.8690   20.2840   49.9540 N.am      5 SEL2        0.0000 
     41 N          18.7120   18.4880   49.0580 N.am      3 SEP2        0.0000 
     42 CA         17.8200   22.2440   51.7100 C.3       2 GLC5        0.0000 
     43 CA         16.8550   20.4300   51.0060 C.3       6 GLL5        0.0000 
     44 CA         18.3525   20.4995   49.7630 C.3       2 GLC5        0.0000 
     45 CA         19.8500   20.5690   48.5200 C.3       4 GLP5        0.0000 
     46 CA         17.6335   18.7400   49.9935 C.3       2 GLC5        0.0000 
     47 CA         18.4120   17.0500   48.9810 C.3       4 GLP5        0.0000 
     48 N          19.0790   17.8420   52.7060 N.am      1 SEC2        0.0000 
     49 N          17.9490   18.4970   51.8570 N.am      5 SEL2        0.0000 
     50 N          20.2090   17.1870   53.5550 N.am      3 SEP2        0.0000 
     51 N          18.3305   18.4925   50.4575 N.am      1 SEC2        0.0000 
     52 CA         13.5565   23.8758   41.5567 C.3       2 GLC5        0.0000 
     53 CA         12.2610   25.0350   41.9740 C.3       6 GLL5        0.0000 
     54 CA         11.3200   22.8948   39.6325 C.3       2 GLC5        0.0000 
     55 CA         11.8490   23.9260   41.2090 C.3       6 GLL5        0.0000 
     56 CA         11.4680   22.0540   38.0680 C.3       4 GLP5        0.0000 
     57 CA          8.9490   22.2112   40.9175 C.3       2 GLC5        0.0000 
     58 CA          7.8750   20.5120   40.2760 C.3       4 GLP5        0.0000 
     59 CA         12.2080   28.0270   45.4340 C.3       2 GLC5        0.0000 
     60 CA         12.4920   29.3450   46.5970 C.3       4 GLP5        0.0000 
     61 CA         11.1273   24.0505   46.3385 C.3       2 GLC5        0.0000 
     62 CA         11.0620   26.3660   45.9430 C.3       6 GLL5        0.0000 
     63 CA         11.0510   21.9980   46.0930 C.3       4 GLP5        0.0000 
     64 CA         11.8478   27.7240   46.5905 C.3       2 GLC5        0.0000 
     65 CA         10.0503   27.6745   47.3325 C.3       2 GLC5        0.0000 
     66 CA          8.8970   29.2460   48.0810 C.3       4 GLP5        0.0000 
     67 CA         12.1085   23.7270   46.5745 C.3       2 GLC5        0.0000 
     68 CA         13.9750   27.1135   47.2420 C.3       2 GLC5        0.0000 
     69 CA         17.0690   24.0187   46.7678 C.3       2 GLC5        0.0000 
     70 CA         18.8970   23.5750   46.2640 C.3       4 GLP5        0.0000 
     71 CA         17.5856   23.5838   49.1805 C.3       2 GLC5        0.0000 
     72 CA         15.6600   23.8770   49.0750 C.3       6 GLL5        0.0000 
     73 CA         19.3770   23.5360   48.7350 C.3       4 GLP5        0.0000 
     74 CA         13.0320   22.2222   46.2298 C.3       2 GLC5        0.0000 
     75 CA         15.1950   22.5220   47.1100 C.3       6 GLL5        0.0000 
     76 CA         16.9550   23.0107   46.3152 C.3       2 GLC5        0.0000 
     77 CA         14.4603   19.7355   48.6560 C.3       2 GLC5        0.0000 
     78 CA         15.3830   21.3550   47.8790 C.3       6 GLL5        0.0000 
     79 CA         13.3770   18.0730   48.7560 C.3       4 GLP5        0.0000 
     80 CA         17.3668   21.3905   47.9860 C.3       2 GLC5        0.0000 
     81 CA         19.1900   21.3830   47.4160 C.3       4 GLP5        0.0000 
@<TRIPOS>BOND
@<TRIPOS>SUBSTRUCTURE
     1 SEC2       10 GROUP        1 X    SEC  0     ROOT SEC X 2
     2 GLC5        1 GROUP        1 X    GLC  0     **** GLC X 6
     3 SEP2       12 GROUP        1 Y    SEP  0     ROOT SEP Y 9
     4 GLP5        3 GROUP        1 Y    GLP  0     **** GLP Y 13
     5 SEL2       11 GROUP        1 Z    SEL  0     ROOT SEL Z 16
     6 GLL5        2 GROUP        1 Z    GLL  0     **** GLL Z 20
@<TRIPOS>SET

