#    Name: 1q4x_G24_1_ligand
#    Modification time : Mon Mar 24 23:05:28 2014

@<TRIPOS>MOLECULE
1q4x_G24_1_ligand
   51    53     1     0     0
SMALL
NO_CHARGES


@<TRIPOS>ATOM
      1 CAF        12.2610   25.0350   41.9740 C.ar      1 G24462      0.0000 
      2 CAB        11.8490   23.9260   41.2090 C.ar      1 G24462      0.0000 
      3 CAC        10.4950   23.5450   41.1850 C.ar      1 G24462      0.0000 
      4 CAD         9.5510   24.2760   41.9330 C.ar      1 G24462      0.0000 
      5 CAH         9.9600   25.3880   42.7010 C.ar      1 G24462      0.0000 
      6 CAG        11.3220   25.7660   42.7210 C.ar      1 G24462      0.0000 
      7 CAQ        11.7900   26.9620   43.5630 C.3       1 G24462      0.0000 
      8 CAP        12.0580   26.4560   44.9790 C.ar      1 G24462      0.0000 
      9 CAO        13.3650   26.0290   45.2950 C.ar      1 G24462      0.0000 
     10 CBA        11.0620   26.3660   45.9430 C.ar      1 G24462      0.0000 
     11 OBC         9.8160   26.8060   45.6220 O.3       1 G24462      0.0000 
     12 CAZ        11.3450   25.8400   47.2250 C.ar      1 G24462      0.0000 
     13 CAY        12.6590   25.4070   47.5420 C.ar      1 G24462      0.0000 
     14 CAN        13.6730   25.5050   46.5700 C.ar      1 G24462      0.0000 
     15 CAM        15.1510   25.1080   46.8520 C.3       1 G24462      0.0000 
     16 CAL        15.3310   23.8170   47.6910 C.ar      1 G24462      0.0000 
     17 CAX        15.6600   23.8770   49.0750 C.ar      1 G24462      0.0000 
     18 CBB        15.8330   25.2290   49.7750 C.3       1 G24462      0.0000 
     19 CAW        15.8420   22.7100   49.8270 C.ar      1 G24462      0.0000 
     20 CAK        15.1950   22.5220   47.1100 C.ar      1 G24462      0.0000 
     21 CAE        14.8310   22.3710   45.6230 C.3       1 G24462      0.0000 
     22 CAJ        15.3830   21.3550   47.8790 C.ar      1 G24462      0.0000 
     23 CAV        15.7040   21.4410   49.2330 C.ar      1 G24462      0.0000 
     24 OAU        15.8690   20.2840   49.9540 O.3       1 G24462      0.0000 
     25 CAT        16.8550   20.4300   51.0060 C.3       1 G24462      0.0000 
     26 CAS        16.8960   19.1740   51.8690 C.2       1 G24462      0.0000 
     27 OAR        15.8770   18.8900   52.5430 O.co2     1 G24462      0.0000 
     28 OAI        17.9490   18.4970   51.8570 O.co2     1 G24462      0.0000 
     29 H          13.2481   25.3078   41.9845 H         1 G24462      0.0000 
     30 H          12.5388   23.3956   40.6684 H         1 G24462      0.0000 
     31 H          10.1970   22.7432   40.6288 H         1 G24462      0.0000 
     32 H           8.5654   24.0012   41.9206 H         1 G24462      0.0000 
     33 H           9.2753   25.9175   43.2400 H         1 G24462      0.0000 
     34 H          11.0152   27.7067   43.5853 H         1 G24462      0.0000 
     35 H          12.6959   27.3601   43.1434 H         1 G24462      0.0000 
     36 H          14.1068   26.1002   44.5853 H         1 G24462      0.0000 
     37 H          10.6055   25.7708   47.9242 H         1 G24462      0.0000 
     38 H          12.8611   25.0302   48.4642 H         1 G24462      0.0000 
     39 H          15.6432   25.9420   47.3759 H         1 G24462      0.0000 
     40 H          15.6683   24.9790   45.8886 H         1 G24462      0.0000 
     41 H          16.0796   22.7771   50.8263 H         1 G24462      0.0000 
     42 H          15.2808   20.4349   47.4302 H         1 G24462      0.0000 
     43 H          16.6187   21.2815   51.6541 H         1 G24462      0.0000 
     44 H          17.8561   20.5909   50.5902 H         1 G24462      0.0000 
     45 H          16.0582   25.1198   50.7432 H         1 G24462      0.0000 
     46 H          16.5663   25.7696   49.3626 H         1 G24462      0.0000 
     47 H          15.0003   25.7807   49.7282 H         1 G24462      0.0000 
     48 H          15.5118   22.7991   45.0287 H         1 G24462      0.0000 
     49 H          14.7677   21.4106   45.3518 H         1 G24462      0.0000 
     50 H          13.9499   22.7940   45.4115 H         1 G24462      0.0000 
     51 H           9.9082   27.1993   44.7072 H         1 G24462      0.0000 
@<TRIPOS>BOND
     1    2    1 ar   
     2    6    1 ar   
     3   29    1 1    
     4    3    2 ar   
     5   30    2 1    
     6    4    3 ar   
     7   31    3 1    
     8    5    4 ar   
     9   32    4 1    
    10    6    5 ar   
    11   33    5 1    
    12    7    6 1    
    13    8    7 1    
    14   34    7 1    
    15   35    7 1    
    16    9    8 ar   
    17   10    8 ar   
    18   14    9 ar   
    19   36    9 1    
    20   11   10 1    
    21   12   10 ar   
    22   51   11 1    
    23   13   12 ar   
    24   37   12 1    
    25   14   13 ar   
    26   38   13 1    
    27   15   14 1    
    28   16   15 1    
    29   39   15 1    
    30   40   15 1    
    31   17   16 ar   
    32   20   16 ar   
    33   18   17 1    
    34   19   17 ar   
    35   45   18 1    
    36   46   18 1    
    37   47   18 1    
    38   23   19 ar   
    39   41   19 1    
    40   21   20 1    
    41   22   20 ar   
    42   48   21 1    
    43   49   21 1    
    44   50   21 1    
    45   23   22 ar   
    46   42   22 1    
    47   24   23 1    
    48   25   24 1    
    49   26   25 1    
    50   43   25 1    
    51   44   25 1    
    52   27   26 ar   
    53   28   26 ar   
@<TRIPOS>SUBSTRUCTURE
     1 G24462      1 GROUP   
@<TRIPOS>SET

