#    Name: 2c1z_U2F_2_INTS_M
#    Modification time : Mon Mar 24 22:14:28 2014

@<TRIPOS>MOLECULE
2c1z_U2F_2_INTS_M
   98     0     9     0     0
SMALL
NO_CHARGES


@<TRIPOS>ATOM
      1 CA          4.5215  -11.1395   26.0825 C.3       3 GLC5        0.0000 
      2 CA          3.0310  -10.4010   24.8830 C.3       9 GLL5        0.0000 
      3 CA          6.0120  -11.8780   27.2820 C.3       6 GLP5        0.0000 
      4 N           5.7935   -7.7295   26.6800 N.am      2 SEC2        0.0000 
      5 N           5.6410   -8.4660   25.5790 N.am      8 SEL2        0.0000 
      6 N           5.9460   -6.9930   27.7810 N.am      5 SEP2        0.0000 
      7 N           6.8345   -9.1245   25.7240 N.am      2 SEC2        0.0000 
      8 N           8.0280   -9.7830   25.8690 N.am      5 SEP2        0.0000 
      9 N           7.1965   -9.0695   23.2825 N.am      2 SEC2        0.0000 
     10 N           5.5820   -9.5040   23.1920 N.am      8 SEL2        0.0000 
     11 N           8.8110   -8.6350   23.3730 N.am      5 SEP2        0.0000 
     12 N           5.1325   -8.8475   21.9490 N.am      2 SEC2        0.0000 
     13 N           4.6830   -8.1910   20.7060 N.am      5 SEP2        0.0000 
     14 N           4.6200   -7.6810   22.1595 N.am      2 SEC2        0.0000 
     15 N           4.5570   -7.1710   23.6130 N.am      8 SEL2        0.0000 
     16 N           1.2750   -5.2435   24.7335 N.am      2 SEC2        0.0000 
     17 N           2.3720   -6.3550   24.8540 N.am      8 SEL2        0.0000 
     18 N           0.1780   -4.1320   24.6130 N.am      5 SEP2        0.0000 
     19 N           1.8280   -5.9500   26.1235 N.am      2 SEC2        0.0000 
     20 N           1.2840   -5.5450   27.3930 N.am      5 SEP2        0.0000 
     21 N           2.8225   -3.7695   23.1810 N.am      2 SEC2        0.0000 
     22 N           3.5430   -5.0590   22.9820 N.am      8 SEL2        0.0000 
     23 N           2.1020   -2.4800   23.3800 N.am      5 SEP2        0.0000 
     24 N           4.1045   -3.9930   22.4275 N.am      2 SEC2        0.0000 
     25 N           4.6660   -2.9270   21.8730 N.am      5 SEP2        0.0000 
     26 CA          5.3315   -6.0470   26.7455 C.3       3 GLC5        0.0000 
     27 CA          5.9810   -4.8900   25.0630 C.3       9 GLL5        0.0000 
     28 CA          4.6820   -7.2040   28.4280 C.3       6 GLP5        0.0000 
     29 CA          6.9855   -5.9775   23.3970 C.3       3 GLC5        0.0000 
     30 CA          7.9900   -7.0650   21.7310 C.3       6 GLP5        0.0000 
     31 CA          7.5190   -6.2465   25.6210 C.3       3 GLC5        0.0000 
     32 CA          9.0570   -7.6030   26.1790 C.3       6 GLP5        0.0000 
     33 CA          5.3200   -4.9250   27.6800 C.3       3 GLC5        0.0000 
     34 CA          6.3650   -3.9460   26.2050 C.3       9 GLL5        0.0000 
     35 CA          4.2750   -5.9040   29.1550 C.3       6 GLP5        0.0000 
     36 CA          9.9470   -3.2415   26.7120 C.3       3 GLC5        0.0000 
     37 CA          8.2150   -2.4570   26.1560 C.3       9 GLL5        0.0000 
     38 CA         11.6790   -4.0260   27.2680 C.3       6 GLP5        0.0000 
     39 CA          8.0215   -0.2285   24.4890 C.3       3 GLC5        0.0000 
     40 CA          7.0410   -1.8250   25.3990 C.3       9 GLL5        0.0000 
     41 CA          9.0020    1.3680   23.5790 C.3       6 GLP5        0.0000 
     42 CA          3.7745   -2.9620   26.1935 C.3       3 GLC5        0.0000 
     43 CA          5.8280   -2.5420   25.9610 C.3       9 GLL5        0.0000 
     44 CA          1.7210   -3.3820   26.4260 C.3       6 GLP5        0.0000 
     45 O           4.7855   -0.7460   26.9615 O.2       1 ALC1        0.0000 
     46 O           5.4560   -1.9490   27.2120 O.2       7 ALL1        0.0000 
     47 O           4.1150    0.4570   26.7110 O.2       4 ALP1        0.0000 
     48 O           5.9325    0.1650   25.1480 O.2       1 ALC1        0.0000 
     49 O           6.9830   -0.4240   25.6440 O.2       7 ALL1        0.0000 
     50 O           4.8820    0.7540   24.6520 O.2       4 ALP1        0.0000 
     51 O          12.1615   -0.0070   25.0850 O.2       1 ALC1        0.0000 
     52 O          11.4960   -1.2370   24.8850 O.2       7 ALL1        0.0000 
     53 O          12.8270    1.2230   25.2850 O.2       4 ALP1        0.0000 
     54 N          13.3000   -2.4150   22.0440 N.am      2 SEC2        0.0000 
     55 N          12.7860   -1.9040   23.1760 N.am      8 SEL2        0.0000 
     56 N          13.8140   -2.9260   20.9120 N.am      5 SEP2        0.0000 
     57 N          13.8180   -0.8450   23.4965 N.am      2 SEC2        0.0000 
     58 N          14.8500    0.2140   23.8170 N.am      5 SEP2        0.0000 
     59 CA         11.6830   -3.8085   24.9140 C.3       3 GLC5        0.0000 
     60 CA         10.8080   -3.0660   23.5360 C.3       9 GLL5        0.0000 
     61 CA         12.5580   -4.5510   26.2920 C.3       6 GLP5        0.0000 
     62 CA         10.6660   -3.6020   25.7955 C.3       3 GLC5        0.0000 
     63 CA          9.6530   -3.1780   24.3230 C.3       9 GLL5        0.0000 
     64 CA          2.9105  -12.8965   22.5975 C.3       3 GLC5        0.0000 
     65 CA          2.4800  -11.0770   23.6320 C.3       9 GLL5        0.0000 
     66 CA          3.3410  -14.7160   21.5630 C.3       6 GLP5        0.0000 
     67 CA          4.1240  -10.1150   21.1445 C.3       3 GLC5        0.0000 
     68 CA          3.5020  -11.2760   22.7280 C.3       9 GLL5        0.0000 
     69 CA          4.7460   -8.9540   19.5610 C.3       6 GLP5        0.0000 
     70 CA          4.0335  -12.6735   22.0320 C.3       3 GLC5        0.0000 
     71 CA          4.5650  -14.0710   21.3360 C.3       6 GLP5        0.0000 
     72 CA          1.1695  -10.3945   20.8425 C.3       3 GLC5        0.0000 
     73 CA          1.3660  -10.2280   23.0100 C.3       9 GLL5        0.0000 
     74 CA          0.9730  -10.5610   18.6750 C.3       6 GLP5        0.0000 
     75 N           1.8285  -11.2920   20.8995 N.am      2 SEC2        0.0000 
     76 N           0.8270  -10.9990   21.9350 N.am      8 SEL2        0.0000 
     77 N           2.8300  -11.5850   19.8640 N.am      5 SEP2        0.0000 
     78 O          -0.3970  -11.0955   21.7360 O.2       1 ALC1        0.0000 
     79 O           0.8270  -10.9990   21.9350 O.2       7 ALL1        0.0000 
     80 O          -1.6210  -11.1920   21.5370 O.2       4 ALP1        0.0000 
     81 N          -0.5895   -7.5560   23.0395 N.am      2 SEC2        0.0000 
     82 N          -0.6710   -8.9610   23.4640 N.am      8 SEL2        0.0000 
     83 N          -0.5080   -6.1510   22.6150 N.am      5 SEP2        0.0000 
     84 O          -1.1460  -10.0765   22.5005 O.2       1 ALC1        0.0000 
     85 O          -0.6710   -8.9610   23.4640 O.2       7 ALL1        0.0000 
     86 O          -1.8915   -9.4105   22.9380 O.2       1 ALC1        0.0000 
     87 O          -3.1120   -9.8600   22.4120 O.2       4 ALP1        0.0000 
     88 CA         -2.0385   -9.2695   26.0225 C.3       3 GLC5        0.0000 
     89 CA          0.0140   -8.8470   26.3970 C.3       9 GLL5        0.0000 
     90 CA         -4.0910   -9.6920   25.6480 C.3       6 GLP5        0.0000 
     91 CA         -1.1840   -7.4405   25.3095 C.3       3 GLC5        0.0000 
     92 CA         -2.3820   -6.0340   24.2220 C.3       6 GLP5        0.0000 
     93 O          -0.8690   -9.9870   28.4010 O.2       1 ALC1        0.0000 
     94 O          -0.2190  -10.0090   27.1930 O.2       7 ALL1        0.0000 
     95 O          -1.5190   -9.9650   29.6090 O.2       4 ALP1        0.0000 
     96 CA          1.0272   -8.4213   22.2858 C.3       3 GLC5        0.0000 
     97 CA          0.2830   -9.8670   24.0390 C.3       9 GLL5        0.0000 
     98 CA          1.2300   -6.7950   21.0470 C.3       6 GLP5        0.0000 
@<TRIPOS>BOND
@<TRIPOS>SUBSTRUCTURE
     1 ALC1       45 GROUP        1 X    ALC  0     ROOT ALC X 1
     2 SEC2        4 GROUP        1 X    SEC  0     **** SEC X 2
     3 GLC5        1 GROUP        1 X    GLC  0     **** GLC X 6
     4 ALP1       47 GROUP        1 Y    ALP  0     ROOT ALP Y 8
     5 SEP2        6 GROUP        1 Y    SEP  0     **** SEP Y 9
     6 GLP5        3 GROUP        1 Y    GLP  0     **** GLP Y 13
     7 ALL1       46 GROUP        1 Z    ALL  0     ROOT ALL Z 15
     8 SEL2        5 GROUP        1 Z    SEL  0     **** SEL Z 16
     9 GLL5        2 GROUP        1 Z    GLL  0     **** GLL Z 20
@<TRIPOS>SET

