#    Name: 2c1z_U2F_2_ligand
#    Modification time : Mon Mar 24 22:14:28 2014

@<TRIPOS>MOLECULE
2c1z_U2F_2_ligand
   57    59     1     0     0
SMALL
NO_CHARGES


@<TRIPOS>ATOM
      1 C1          3.0310  -10.4010   24.8830 C.3       1 U2F1457     0.0000 
      2 O1          3.4610   -9.1200   24.4930 O.3       1 U2F1457     0.0000 
      3 PB          4.9570   -8.6040   24.2480 P.3       1 U2F1457     0.0000 
      4 O1B         5.6410   -8.4660   25.5790 O.co2     1 U2F1457     0.0000 
      5 O2B         5.5820   -9.5040   23.1920 O.co2     1 U2F1457     0.0000 
      6 O3A         4.5570   -7.1710   23.6130 O.3       1 U2F1457     0.0000 
      7 PA          3.6620   -5.9380   24.1900 P.3       1 U2F1457     0.0000 
      8 O1A         2.3720   -6.3550   24.8540 O.co2     1 U2F1457     0.0000 
      9 O2A         3.5430   -5.0590   22.9820 O.co2     1 U2F1457     0.0000 
     10 O5'         4.6160   -5.2470   25.2900 O.3       1 U2F1457     0.0000 
     11 C5'         5.9810   -4.8900   25.0630 C.3       1 U2F1457     0.0000 
     12 C4'         6.3650   -3.9460   26.2050 C.3       1 U2F1457     0.0000 
     13 O4'         7.7890   -3.8220   26.3250 O.3       1 U2F1457     0.0000 
     14 C1'         8.2150   -2.4570   26.1560 C.3       1 U2F1457     0.0000 
     15 C2'         7.0410   -1.8250   25.3990 C.3       1 U2F1457     0.0000 
     16 C3'         5.8280   -2.5420   25.9610 C.3       1 U2F1457     0.0000 
     17 O3'         5.4560   -1.9490   27.2120 O.3       1 U2F1457     0.0000 
     18 O2'         6.9830   -0.4240   25.6440 O.3       1 U2F1457     0.0000 
     19 N1          9.4530   -2.3320   25.3470 N.am      1 U2F1457     0.0000 
     20 C6'        10.3540   -1.3560   25.6070 C.2       1 U2F1457     0.0000 
     21 O6'        10.1820   -0.5480   26.5500 O.2       1 U2F1457     0.0000 
     22 N3         11.4960   -1.2370   24.8850 N.am      1 U2F1457     0.0000 
     23 C7'        11.7330   -2.0590   23.8440 C.2       1 U2F1457     0.0000 
     24 O7'        12.7860   -1.9040   23.1760 O.2       1 U2F1457     0.0000 
     25 C8'        10.8080   -3.0660   23.5360 C.2       1 U2F1457     0.0000 
     26 C9'         9.6530   -3.1780   24.3230 C.2       1 U2F1457     0.0000 
     27 C2          2.4800  -11.0770   23.6320 C.3       1 U2F1457     0.0000 
     28 F1          3.5020  -11.2760   22.7280 F         1 U2F1457     0.0000 
     29 C3          1.3660  -10.2280   23.0100 C.3       1 U2F1457     0.0000 
     30 O3          0.8270  -10.9990   21.9350 O.3       1 U2F1457     0.0000 
     31 C4          0.2830   -9.8670   24.0390 C.3       1 U2F1457     0.0000 
     32 O4         -0.6710   -8.9610   23.4640 O.3       1 U2F1457     0.0000 
     33 C5          0.9620   -9.2430   25.2700 C.3       1 U2F1457     0.0000 
     34 C6          0.0140   -8.8470   26.3970 C.3       1 U2F1457     0.0000 
     35 O6         -0.2190  -10.0090   27.1930 O.3       1 U2F1457     0.0000 
     36 O5          1.9490  -10.1640   25.7910 O.3       1 U2F1457     0.0000 
     37 H           3.7863  -10.9782   25.2967 H         1 U2F1457     0.0000 
     38 H           6.1145   -4.3595   24.1311 H         1 U2F1457     0.0000 
     39 H           6.6387   -5.7465   25.1014 H         1 U2F1457     0.0000 
     40 H           5.9340   -4.3113   27.1217 H         1 U2F1457     0.0000 
     41 H           8.2991   -1.9592   27.0871 H         1 U2F1457     0.0000 
     42 H           7.1403   -2.0793   24.3739 H         1 U2F1457     0.0000 
     43 H           5.0772   -2.5749   25.2496 H         1 U2F1457     0.0000 
     44 H          12.1929   -0.5030   25.1404 H         1 U2F1457     0.0000 
     45 H          10.9703   -3.6998   22.7610 H         1 U2F1457     0.0000 
     46 H           8.9706   -3.9211   24.0935 H         1 U2F1457     0.0000 
     47 H           2.0287  -12.0197   23.9482 H         1 U2F1457     0.0000 
     48 H           1.8146   -9.3184   22.6423 H         1 U2F1457     0.0000 
     49 H          -0.1871  -10.7884   24.3549 H         1 U2F1457     0.0000 
     50 H           1.4795   -8.3309   24.9331 H         1 U2F1457     0.0000 
     51 H          -0.9026   -8.4700   25.9489 H         1 U2F1457     0.0000 
     52 H           0.4847   -8.0500   26.9682 H         1 U2F1457     0.0000 
     53 H           4.9761   -1.1068   26.9665 H         1 U2F1457     0.0000 
     54 H           6.4805   -0.0460   24.8664 H         1 U2F1457     0.0000 
     55 H          -0.0508  -10.5693   21.7233 H         1 U2F1457     0.0000 
     56 H          -1.1470   -9.4955   22.7656 H         1 U2F1457     0.0000 
     57 H          -0.6829   -9.6725   28.0124 H         1 U2F1457     0.0000 
@<TRIPOS>BOND
     1    2    1 1    
     2   27    1 1    
     3   36    1 1    
     4   37    1 1    
     5    3    2 1    
     6    4    3 ar   
     7    5    3 ar   
     8    6    3 1    
     9    7    6 1    
    10    8    7 ar   
    11    9    7 ar   
    12   10    7 1    
    13   11   10 1    
    14   12   11 1    
    15   38   11 1    
    16   39   11 1    
    17   13   12 1    
    18   16   12 1    
    19   40   12 1    
    20   14   13 1    
    21   15   14 1    
    22   19   14 1    
    23   41   14 1    
    24   16   15 1    
    25   18   15 1    
    26   42   15 1    
    27   17   16 1    
    28   43   16 1    
    29   53   17 1    
    30   54   18 1    
    31   20   19 1    
    32   26   19 1    
    33   21   20 2    
    34   22   20 1    
    35   23   22 1    
    36   44   22 1    
    37   24   23 2    
    38   25   23 1    
    39   26   25 2    
    40   45   25 1    
    41   46   26 1    
    42   28   27 1    
    43   29   27 1    
    44   47   27 1    
    45   30   29 1    
    46   31   29 1    
    47   48   29 1    
    48   55   30 1    
    49   32   31 1    
    50   33   31 1    
    51   49   31 1    
    52   56   32 1    
    53   34   33 1    
    54   36   33 1    
    55   50   33 1    
    56   35   34 1    
    57   51   34 1    
    58   52   34 1    
    59   57   35 1    
@<TRIPOS>SUBSTRUCTURE
     1 U2F1457     1 GROUP   
@<TRIPOS>SET

