#    Name: 1t84_WSK_1_INTS_M
#    Modification time : Tue Mar 25 04:28:06 2014

@<TRIPOS>MOLECULE
1t84_WSK_1_INTS_M
   74     0     3     0     0
SMALL
NO_CHARGES


@<TRIPOS>ATOM
      1 CA         -9.5905    8.5335    1.2435 C.3       1 GLC5        0.0000 
      2 CA         -7.4390    8.6850    1.6380 C.3       3 GLL5        0.0000 
      3 CA        -11.7420    8.3820    0.8490 C.3       2 GLP5        0.0000 
      4 CA         -6.1175   10.5520    0.1600 C.3       1 GLC5        0.0000 
      5 CA         -6.8560    8.6690    0.3180 C.3       3 GLL5        0.0000 
      6 CA         -5.3790   12.4350    0.0020 C.3       2 GLP5        0.0000 
      7 CA         -1.3900    6.2585   -2.6280 C.3       1 GLC5        0.0000 
      8 CA         -1.3840    5.8270   -0.6850 C.3       3 GLL5        0.0000 
      9 CA         -1.3960    6.6900   -4.5710 C.3       2 GLP5        0.0000 
     10 CA         -2.9290    4.2015    1.4730 C.3       1 GLC5        0.0000 
     11 CA         -2.6510    5.9880    1.4930 C.3       3 GLL5        0.0000 
     12 CA         -3.2070    2.4150    1.4530 C.3       2 GLP5        0.0000 
     13 CA         -6.5765    7.3570   -2.6500 C.3       1 GLC5        0.0000 
     14 CA         -5.0140    8.2550   -2.3270 C.3       3 GLL5        0.0000 
     15 CA         -8.1390    6.4590   -2.9730 C.3       2 GLP5        0.0000 
     16 CA         -6.4945   11.7825   -3.5800 C.3       1 GLC5        0.0000 
     17 CA         -5.2030   10.3740   -3.7110 C.3       3 GLL5        0.0000 
     18 CA         -7.7860   13.1910   -3.4490 C.3       2 GLP5        0.0000 
     19 CA         -4.5805   11.3435   -2.1515 C.3       1 GLC5        0.0000 
     20 CA         -3.9580   12.3130   -0.5920 C.3       2 GLP5        0.0000 
     21 CA         -7.0160   11.4710   -4.6330 C.3       1 GLC5        0.0000 
     22 CA         -6.2460    9.7510   -5.8170 C.3       3 GLL5        0.0000 
     23 CA         -7.1880    7.8550   -6.2695 C.3       1 GLC5        0.0000 
     24 CA         -8.1300    5.9590   -6.7220 C.3       2 GLP5        0.0000 
     25 CA         -3.7855   12.1205   -4.9900 C.3       1 GLC5        0.0000 
     26 CA         -4.0870   10.7370   -5.8100 C.3       3 GLL5        0.0000 
     27 CA         -3.4840   13.5040   -4.1700 C.3       2 GLP5        0.0000 
     28 CA         -2.6825    9.3925   -5.5265 C.3       1 GLC5        0.0000 
     29 CA         -1.2780    8.0480   -5.2430 C.3       2 GLP5        0.0000 
     30 CA          0.5070    6.0280    2.3635 C.3       1 GLC5        0.0000 
     31 CA         -0.2000    4.5430    1.6950 C.3       3 GLL5        0.0000 
     32 CA          1.2140    7.5130    3.0320 C.3       2 GLP5        0.0000 
     33 CA         -0.1200    3.1370    2.4140 C.3       1 GLC5        0.0000 
     34 CA         -0.0400    1.7310    3.1330 C.3       2 GLP5        0.0000 
     35 CA         -1.7035    3.4790    1.5740 C.3       1 GLC5        0.0000 
     36 CA         -6.3525    9.5025    3.9720 C.3       1 GLC5        0.0000 
     37 CA         -7.5890    8.0800    4.4860 C.3       3 GLL5        0.0000 
     38 CA         -5.1160   10.9250    3.4580 C.3       2 GLP5        0.0000 
     39 CA         -8.4055    6.8505    3.9230 C.3       1 GLC5        0.0000 
     40 CA         -9.2220    5.6210    3.3600 C.3       2 GLP5        0.0000 
     41 CA         -6.1115    9.6418    2.8335 C.3       1 GLC5        0.0000 
     42 CA         -6.7750    8.0320    2.7800 C.3       3 GLL5        0.0000 
     43 CA         -7.3665    6.6647    1.8820 C.3       1 GLC5        0.0000 
     44 CA         -7.6260    4.9710    1.5550 C.3       2 GLP5        0.0000 
     45 CA         -5.6630    9.6255    1.8425 C.3       1 GLC5        0.0000 
     46 CA         -7.1745    7.3925   -1.3730 C.3       1 GLC5        0.0000 
     47 CA         -6.9180    6.6485    0.8910 C.3       1 GLC5        0.0000 
     48 CA         -5.1630    9.1342    2.7003 C.3       1 GLC5        0.0000 
     49 CA         -4.9070    7.3340    1.2710 C.3       3 GLL5        0.0000 
     50 CA         -5.3883    5.6365    0.8372 C.3       1 GLC5        0.0000 
     51 CA         -3.6890    6.7550    0.7970 C.3       3 GLL5        0.0000 
     52 CA         -5.3310    3.4860   -0.2740 C.3       2 GLP5        0.0000 
     53 CA         -6.4180    6.1572    1.7487 C.3       1 GLC5        0.0000 
     54 CA         -3.7635    5.1715   -0.3455 C.3       1 GLC5        0.0000 
     55 CA         -3.5790    7.0430   -0.6290 C.3       3 GLL5        0.0000 
     56 CA         -3.8930    3.4440   -0.7750 C.3       2 GLP5        0.0000 
     57 CA         -2.5053    7.7909    1.3392 C.3       1 GLC5        0.0000 
     58 CA         -1.0720    8.5380    2.4760 C.3       2 GLP5        0.0000 
     59 CA         -2.9105    6.4902   -2.7492 C.3       1 GLC5        0.0000 
     60 CA         -2.8320    6.1660   -4.4910 C.3       2 GLP5        0.0000 
     61 CA         -0.0742    5.8942   -0.9347 C.3       1 GLC5        0.0000 
     62 CA         -2.3990    6.5860   -1.3860 C.3       3 GLL5        0.0000 
     63 CA          1.7430    5.5820   -0.8340 C.3       2 GLP5        0.0000 
     64 CA          0.4425    5.3107    0.1965 C.3       1 GLC5        0.0000 
     65 CA         -1.5160    5.5360    0.7590 C.3       3 GLL5        0.0000 
     66 CA         -2.7984    4.6576   -0.4566 C.3       1 GLC5        0.0000 
     67 CA         -1.5613    7.1864    1.6205 C.3       1 GLC5        0.0000 
     68 CA         -3.9777    9.9750   -1.2803 C.3       1 GLC5        0.0000 
     69 CA         -3.2720   11.0410   -0.1030 C.3       2 GLP5        0.0000 
     70 CA         -3.7577    7.5375   -3.4742 C.3       1 GLC5        0.0000 
     71 CA         -4.3530    9.5630   -2.5880 C.3       3 GLL5        0.0000 
     72 CA         -4.1310   11.7363   -3.6597 C.3       1 GLC5        0.0000 
     73 CA         -3.8534    9.1599    0.1454 C.3       1 GLC5        0.0000 
     74 CA         -5.5640    7.9830    0.1360 C.3       3 GLL5        0.0000 
@<TRIPOS>BOND
@<TRIPOS>SUBSTRUCTURE
     1 GLC5        1 GROUP        1 X    GLC  0     ROOT GLC X 6
     2 GLP5        3 GROUP        1 Y    GLP  0     ROOT GLP Y 13
     3 GLL5        2 GROUP        1 Z    GLL  0     ROOT GLL Z 20
@<TRIPOS>SET

