#    Name: 1t84_WSK_1_ligand
#    Modification time : Tue Mar 25 04:28:06 2014

@<TRIPOS>MOLECULE
1t84_WSK_1_ligand
   41    43     1     0     0
SMALL
NO_CHARGES


@<TRIPOS>ATOM
      1 C0         -6.7750    8.0320    2.7800 C.ar      1 WSK108      0.0000 
      2 N0         -4.7210    7.7790   -0.9580 N.pl3     1 WSK108      0.0000 
      3 O0         -3.0640    9.3170   -3.2650 O.3       1 WSK108      0.0000 
      4 C1         -7.4390    8.6850    1.6380 C.ar      1 WSK108      0.0000 
      5 N1         -4.9990    9.8730   -5.0680 N.4       1 WSK108      0.0000 
      6 C2         -6.8560    8.6690    0.3180 C.ar      1 WSK108      0.0000 
      7 C3         -5.5640    7.9830    0.1360 C.ar      1 WSK108      0.0000 
      8 C4         -4.9070    7.3340    1.2710 C.ar      1 WSK108      0.0000 
      9 C5         -5.5130    7.3530    2.6140 C.ar      1 WSK108      0.0000 
     10 C6         -3.6890    6.7550    0.7970 C.ar      1 WSK108      0.0000 
     11 C7         -3.5790    7.0430   -0.6290 C.ar      1 WSK108      0.0000 
     12 C8         -2.3990    6.5860   -1.3860 C.ar      1 WSK108      0.0000 
     13 C9         -1.3840    5.8270   -0.6850 C.ar      1 WSK108      0.0000 
     14 C10        -1.5160    5.5360    0.7590 C.ar      1 WSK108      0.0000 
     15 C11        -2.6510    5.9880    1.4930 C.ar      1 WSK108      0.0000 
     16 C12        -5.0140    8.2550   -2.3270 C.3       1 WSK108      0.0000 
     17 C13        -4.3530    9.5630   -2.5880 C.3       1 WSK108      0.0000 
     18 C14        -5.2030   10.3740   -3.7110 C.3       1 WSK108      0.0000 
     19 C15        -6.2460    9.7510   -5.8170 C.3       1 WSK108      0.0000 
     20 C16        -4.0870   10.7370   -5.8100 C.3       1 WSK108      0.0000 
     21 BR1        -0.2000    4.5430    1.6950 Br        1 WSK108      0.0000 
     22 BR2        -7.5890    8.0800    4.4860 Br        1 WSK108      0.0000 
     23 H          -8.3270    9.1537    1.7968 H         1 WSK108      0.0000 
     24 H          -4.5357    8.8702   -5.0074 H         1 WSK108      0.0000 
     25 H          -7.3013    9.1036   -0.4550 H         1 WSK108      0.0000 
     26 H          -5.0553    6.9076    3.3729 H         1 WSK108      0.0000 
     27 H          -2.3135    6.7993   -2.3516 H         1 WSK108      0.0000 
     28 H          -0.5701    5.4860   -1.1773 H         1 WSK108      0.0000 
     29 H          -2.7553    5.7939    2.4714 H         1 WSK108      0.0000 
     30 H          -6.0997    8.3618   -2.4595 H         1 WSK108      0.0000 
     31 H          -4.6635    7.5160   -3.0610 H         1 WSK108      0.0000 
     32 H          -4.2625   10.1636   -1.7676 H         1 WSK108      0.0000 
     33 H          -6.2534   10.3008   -3.3969 H         1 WSK108      0.0000 
     34 H          -4.9005   11.4254   -3.6087 H         1 WSK108      0.0000 
     35 H          -6.0911    9.4049   -6.7423 H         1 WSK108      0.0000 
     36 H          -6.8862    9.1241   -5.3729 H         1 WSK108      0.0000 
     37 H          -6.7125   10.6309   -5.9074 H         1 WSK108      0.0000 
     38 H          -3.1904   10.7948   -5.3709 H         1 WSK108      0.0000 
     39 H          -3.9364   10.4054   -6.7413 H         1 WSK108      0.0000 
     40 H          -4.4377   11.6705   -5.8844 H         1 WSK108      0.0000 
     41 H          -2.4303    9.9507   -2.8214 H         1 WSK108      0.0000 
@<TRIPOS>BOND
     1    4    1 ar   
     2    9    1 ar   
     3   22    1 1    
     4    7    2 1    
     5   11    2 1    
     6   16    2 1    
     7   17    3 1    
     8   41    3 1    
     9    6    4 ar   
    10   23    4 1    
    11   18    5 1    
    12   19    5 1    
    13   20    5 1    
    14   24    5 1    
    15    7    6 ar   
    16   25    6 1    
    17    8    7 ar   
    18    9    8 ar   
    19   10    8 1    
    20   26    9 1    
    21   11   10 ar   
    22   15   10 ar   
    23   12   11 ar   
    24   13   12 ar   
    25   27   12 1    
    26   14   13 ar   
    27   28   13 1    
    28   15   14 ar   
    29   21   14 1    
    30   29   15 1    
    31   17   16 1    
    32   30   16 1    
    33   31   16 1    
    34   18   17 1    
    35   32   17 1    
    36   33   18 1    
    37   34   18 1    
    38   35   19 1    
    39   36   19 1    
    40   37   19 1    
    41   38   20 1    
    42   39   20 1    
    43   40   20 1    
@<TRIPOS>SUBSTRUCTURE
     1 WSK108      1 GROUP   
@<TRIPOS>SET

