#    Name: 3vap_0FY_1_INTS_M
#    Modification time : Tue Mar 25 00:21:50 2014

@<TRIPOS>MOLECULE
3vap_0FY_1_INTS_M
   77     0     9     0     0
SMALL
NO_CHARGES


@<TRIPOS>ATOM
      1 CA          2.2040   37.2670    6.5770 C.3       3 GLC5        0.0000 
      2 CA          2.3940   35.8260    4.9610 C.3       9 GLL5        0.0000 
      3 CA          2.0140   38.7080    8.1930 C.3       6 GLP5        0.0000 
      4 CA         13.2540   22.4015    3.7540 C.3       3 GLC5        0.0000 
      5 CA         12.1970   23.1590    5.1710 C.3       9 GLL5        0.0000 
      6 CA         14.3110   21.6440    2.3370 C.3       6 GLP5        0.0000 
      7 CA          4.3760   32.9270   10.2765 C.3       3 GLC5        0.0000 
      8 CA          5.7560   32.0320    8.9780 C.3       9 GLL5        0.0000 
      9 CA          2.9960   33.8220   11.5750 C.3       6 GLP5        0.0000 
     10 CA          5.9600   34.1585    9.0400 C.3       3 GLC5        0.0000 
     11 CA          6.1640   36.2850    9.1020 C.3       6 GLP5        0.0000 
     12 CA          2.2720   32.9825    5.5755 C.3       3 GLC5        0.0000 
     13 CA          3.2030   34.7300    4.8330 C.3       9 GLL5        0.0000 
     14 CA          1.3410   31.2350    6.3180 C.3       6 GLP5        0.0000 
     15 CA          3.2545   31.8790    6.6160 C.3       3 GLC5        0.0000 
     16 CA          5.1680   32.5230    6.9140 C.3       9 GLL5        0.0000 
     17 CA          5.6660   34.4040    8.0080 C.3       3 GLC5        0.0000 
     18 CA          6.7555   33.3005    6.7905 C.3       3 GLC5        0.0000 
     19 CA          8.3430   34.0780    6.6670 C.3       6 GLP5        0.0000 
     20 CA          3.4400   39.7260    4.0410 C.3       3 GLC5        0.0000 
     21 CA          2.6170   39.0780    2.4840 C.3       9 GLL5        0.0000 
     22 CA          4.2630   40.3740    5.5980 C.3       6 GLP5        0.0000 
     23 CA          4.2190   38.0855    3.3795 C.3       3 GLC5        0.0000 
     24 CA          5.8210   37.0930    4.2750 C.3       6 GLP5        0.0000 
     25 CA          5.4015   29.5515    2.0840 C.3       3 GLC5        0.0000 
     26 CA          6.0990   30.9290    3.1290 C.3       9 GLL5        0.0000 
     27 CA          4.7040   28.1740    1.0390 C.3       6 GLP5        0.0000 
     28 CA          9.8910   26.5460    8.8590 C.3       3 GLC5        0.0000 
     29 CA         10.3670   28.3090    7.8390 C.3       9 GLL5        0.0000 
     30 CA          9.4150   24.7830    9.8790 C.3       6 GLP5        0.0000 
     31 CA         11.2580   29.5955    9.1130 C.3       3 GLC5        0.0000 
     32 CA         12.1490   30.8820   10.3870 C.3       6 GLP5        0.0000 
     33 N           0.8965   34.8270    2.3715 N.am      2 SEC2        0.0000 
     34 N           2.3520   35.4420    2.5990 N.am      8 SEL2        0.0000 
     35 N          -0.5590   34.2120    2.1440 N.am      5 SEP2        0.0000 
     36 O          12.1895   26.6760    7.1705 O.2       1 ALC1        0.0000 
     37 O          11.0540   26.3840    6.5700 O.2       7 ALL1        0.0000 
     38 O          13.3250   26.9680    7.7710 O.2       4 ALP1        0.0000 
     39 O           3.8725   35.4915    6.7220 O.2       1 ALC1        0.0000 
     40 O           3.8110   34.1780    5.8820 O.2       7 ALL1        0.0000 
     41 O           3.9340   36.8050    7.5620 O.2       4 ALP1        0.0000 
     42 CA         14.1405   25.9830    7.8585 C.3       3 GLC5        0.0000 
     43 CA         13.5110   24.8080    6.0590 C.3       9 GLL5        0.0000 
     44 CA         14.7700   27.1580    9.6580 C.3       6 GLP5        0.0000 
     45 CA          2.7685   32.3260    3.5730 C.3       3 GLC5        0.0000 
     46 CA          3.3980   34.2750    3.0950 C.3       9 GLL5        0.0000 
     47 CA          2.1390   30.3770    4.0510 C.3       6 GLP5        0.0000 
     48 CA          4.6095   35.6840    3.6850 C.3       3 GLC5        0.0000 
     49 CA          9.7465   23.8843    3.3205 C.3       3 GLC5        0.0000 
     50 CA          9.7650   24.4620    5.5840 C.3       9 GLL5        0.0000 
     51 CA          9.7080   23.9430    1.3530 C.3       6 GLP5        0.0000 
     52 CA          8.9780   22.3107    6.0815 C.3       3 GLC5        0.0000 
     53 CA          8.1710   20.7960    6.8750 C.3       6 GLP5        0.0000 
     54 CA          4.3097   36.1855    4.5860 C.3       3 GLC5        0.0000 
     55 CA          8.3923   30.8372    9.8720 C.3       3 GLC5        0.0000 
     56 CA          7.3680   30.1210    8.4410 C.3       9 GLL5        0.0000 
     57 CA          8.8210   31.6280   11.6550 C.3       6 GLP5        0.0000 
     58 CA          9.0828   31.6307    8.1235 C.3       3 GLC5        0.0000 
     59 CA         10.2020   33.2150    8.1580 C.3       6 GLP5        0.0000 
     60 CA          4.6940   30.6507    9.4958 C.3       3 GLC5        0.0000 
     61 CA          6.4080   31.1670    8.1410 C.3       9 GLL5        0.0000 
     62 CA          3.3060   29.7020   10.4320 C.3       6 GLP5        0.0000 
     63 CA          7.4515   31.6137   10.1073 C.3       3 GLC5        0.0000 
     64 CA          7.2125   32.8388    7.6132 C.3       3 GLC5        0.0000 
     65 CA          5.6040   29.0250    7.8840 C.3       3 GLC5        0.0000 
     66 CA          4.3200   27.4060    7.4770 C.3       6 GLP5        0.0000 
     67 CA          9.5608   24.1061    7.3320 C.3       3 GLC5        0.0000 
     68 CA         10.9960   25.0890    5.9840 C.3       9 GLL5        0.0000 
     69 CA          8.7310   23.7550    9.0280 C.3       6 GLP5        0.0000 
     70 CA          7.1677   32.5943    5.8545 C.3       3 GLC5        0.0000 
     71 CA          6.2650   30.8280    5.5900 C.3       9 GLL5        0.0000 
     72 CA          7.5997   32.3825    3.4932 C.3       3 GLC5        0.0000 
     73 CA          5.7200   31.3930    4.4940 C.3       9 GLL5        0.0000 
     74 CA          9.2900   33.6040    3.1750 C.3       6 GLP5        0.0000 
     75 CA          4.0924   30.6984    4.0682 C.3       3 GLC5        0.0000 
     76 CA          5.8384   29.1469    4.7272 C.3       3 GLC5        0.0000 
     77 CA          5.6310   27.2740    5.3690 C.3       6 GLP5        0.0000 
@<TRIPOS>BOND
@<TRIPOS>SUBSTRUCTURE
     1 ALC1       36 GROUP        1 X    ALC  0     ROOT ALC X 1
     2 SEC2       33 GROUP        1 X    SEC  0     **** SEC X 2
     3 GLC5        1 GROUP        1 X    GLC  0     **** GLC X 6
     4 ALP1       38 GROUP        1 Y    ALP  0     ROOT ALP Y 8
     5 SEP2       35 GROUP        1 Y    SEP  0     **** SEP Y 9
     6 GLP5        3 GROUP        1 Y    GLP  0     **** GLP Y 13
     7 ALL1       37 GROUP        1 Z    ALL  0     ROOT ALL Z 15
     8 SEL2       34 GROUP        1 Z    SEL  0     **** SEL Z 16
     9 GLL5        2 GROUP        1 Z    GLL  0     **** GLL Z 20
@<TRIPOS>SET

