#    Name: 3vap_0FY_1_ligand
#    Modification time : Tue Mar 25 00:21:50 2014

@<TRIPOS>MOLECULE
3vap_0FY_1_ligand
   72    77     1     0     0
SMALL
NO_CHARGES


@<TRIPOS>ATOM
      1 C34         9.7650   24.4620    5.5840 C.ar      1 0FY1        0.0000 
      2 C14         2.3940   35.8260    4.9610 C.2       1 0FY1        0.0000 
      3 C28         7.3380   29.1230    9.3820 C.2       1 0FY1        0.0000 
      4 C25         8.5590   29.9720    7.7370 C.2       1 0FY1        0.0000 
      5 C35         9.8050   23.1890    4.9920 C.ar      1 0FY1        0.0000 
      6 C37        12.1970   23.1590    5.1710 C.ar      1 0FY1        0.0000 
      7 C8          5.7560   32.0320    8.9780 C.2       1 0FY1        0.0000 
      8 C10         7.3680   30.1210    8.4410 C.2       1 0FY1        0.0000 
      9 C33        10.9960   25.0890    5.9840 C.ar      1 0FY1        0.0000 
     10 C38        12.2440   24.3790    5.7520 C.ar      1 0FY1        0.0000 
     11 C9          6.4080   31.1670    8.1410 C.2       1 0FY1        0.0000 
     12 C15         1.9280   36.1660    3.6520 C.2       1 0FY1        0.0000 
     13 C13         3.2030   34.7300    4.8330 C.2       1 0FY1        0.0000 
     14 C4          5.1680   32.5230    6.9140 C.2       1 0FY1        0.0000 
     15 C6          6.2650   30.8280    5.5900 C.2       1 0FY1        0.0000 
     16 C3          4.6740   33.0930    5.7140 C.2       1 0FY1        0.0000 
     17 C1          5.7200   31.3930    4.4940 C.2       1 0FY1        0.0000 
     18 C30         9.9730   27.1620    6.9330 C.2       1 0FY1        0.0000 
     19 C21         3.2330   39.6030    1.1670 C.3       1 0FY1        0.0000 
     20 C22         2.1350   39.9810    0.1350 C.3       1 0FY1        0.0000 
     21 C20         2.6170   39.0780    2.4840 C.3       1 0FY1        0.0000 
     22 C24         0.4640   38.6600    1.3870 C.3       1 0FY1        0.0000 
     23 C23         0.9720   38.9430   -0.0220 C.3       1 0FY1        0.0000 
     24 C11         6.0990   30.9290    3.1290 C.3       1 0FY1        0.0000 
     25 C40         1.1800   37.6040   -0.7900 C.3       1 0FY1        0.0000 
     26 C18         1.0780   37.3240    3.3970 C.3       1 0FY1        0.0000 
     27 C29        10.3670   28.3090    7.8390 C.3       1 0FY1        0.0000 
     28 N27         8.4290   28.3490    9.2640 N.2       1 0FY1        0.0000 
     29 N16         2.3520   35.4420    2.5990 N.2       1 0FY1        0.0000 
     30 N2          4.9700   32.5370    4.5400 N.2       1 0FY1        0.0000 
     31 N26         9.1310   28.9020    8.2810 N.pl3     1 0FY1        0.0000 
     32 N5          5.9480   31.4210    6.8410 N.pl3     1 0FY1        0.0000 
     33 N36        11.0000   22.6330    4.8150 N.pl3     1 0FY1        0.0000 
     34 N7          5.0830   32.8690    8.1780 N.pl3     1 0FY1        0.0000 
     35 N32        11.0540   26.3840    6.5700 N.am      1 0FY1        0.0000 
     36 N12         3.8110   34.1780    5.8820 N.pl3     1 0FY1        0.0000 
     37 N19         1.5670   38.0580    2.1950 N.4       1 0FY1        0.0000 
     38 O31         8.8160   26.9910    6.5910 O.2       1 0FY1        0.0000 
     39 F39        13.5110   24.8080    6.0590 F         1 0FY1        0.0000 
     40 S17         3.3980   34.2750    3.0950 S.3       1 0FY1        0.0000 
     41 H           8.8879   24.9451    5.7339 H         1 0FY1        0.0000 
     42 H           2.1652   36.2931    5.7432 H         1 0FY1        0.0000 
     43 H           6.6239   29.0071   10.0320 H         1 0FY1        0.0000 
     44 H           8.8563   30.5231    7.0415 H         1 0FY1        0.0000 
     45 H           8.9321   22.7384    4.7210 H         1 0FY1        0.0000 
     46 H          13.0715   22.6276    4.9982 H         1 0FY1        0.0000 
     47 H           5.7863   32.0248    9.9237 H         1 0FY1        0.0000 
     48 H           6.8724   30.0231    5.5597 H         1 0FY1        0.0000 
     49 H           3.8334   40.4837    1.3799 H         1 0FY1        0.0000 
     50 H           3.8683   38.8324    0.7380 H         1 0FY1        0.0000 
     51 H           2.6079   40.1215   -0.8507 H         1 0FY1        0.0000 
     52 H           1.6962   40.9503    0.4229 H         1 0FY1        0.0000 
     53 H           2.1893   39.9225    3.0220 H         1 0FY1        0.0000 
     54 H           3.4142   38.6437    3.0851 H         1 0FY1        0.0000 
     55 H          -0.3754   37.9733    1.3283 H         1 0FY1        0.0000 
     56 H           0.1351   39.5920    1.8374 H         1 0FY1        0.0000 
     57 H           0.1274   39.4910   -0.5196 H         1 0FY1        0.0000 
     58 H           1.0853   38.0014    4.2595 H         1 0FY1        0.0000 
     59 H           0.0413   37.0081    3.2283 H         1 0FY1        0.0000 
     60 H          10.9641   29.0079    7.2719 H         1 0FY1        0.0000 
     61 H          10.9385   27.9151    8.6665 H         1 0FY1        0.0000 
     62 H          11.0300   21.6547    4.3356 H         1 0FY1        0.0000 
     63 H           4.5787   33.6614    8.5174 H         1 0FY1        0.0000 
     64 H          12.0333   26.7771    6.7385 H         1 0FY1        0.0000 
     65 H           3.6601   34.5381    6.8477 H         1 0FY1        0.0000 
     66 H           2.0567   37.2879    1.5190 H         1 0FY1        0.0000 
     67 H           7.0783   31.0377    2.9584 H         1 0FY1        0.0000 
     68 H           5.8832   29.9622    2.9921 H         1 0FY1        0.0000 
     69 H           5.6188   31.4403    2.4163 H         1 0FY1        0.0000 
     70 H           1.4483   37.7590   -1.7408 H         1 0FY1        0.0000 
     71 H           1.8943   37.0430   -0.3716 H         1 0FY1        0.0000 
     72 H           0.3462   37.0522   -0.8070 H         1 0FY1        0.0000 
@<TRIPOS>BOND
     1    5    1 ar   
     2    9    1 ar   
     3   41    1 1    
     4   12    2 1    
     5   13    2 2    
     6   42    2 1    
     7    8    3 1    
     8   28    3 2    
     9   43    3 1    
    10    8    4 2    
    11   31    4 1    
    12   44    4 1    
    13   33    5 ar   
    14   45    5 1    
    15   10    6 ar   
    16   33    6 ar   
    17   46    6 1    
    18   11    7 2    
    19   34    7 1    
    20   47    7 1    
    21   11    8 1    
    22   10    9 ar   
    23   35    9 1    
    24   39   10 1    
    25   32   11 1    
    26   26   12 1    
    27   29   12 2    
    28   36   13 1    
    29   40   13 1    
    30   16   14 1    
    31   32   14 1    
    32   34   14 2    
    33   17   15 2    
    34   32   15 1    
    35   48   15 1    
    36   30   16 2    
    37   36   16 1    
    38   24   17 1    
    39   30   17 1    
    40   27   18 1    
    41   35   18 am   
    42   38   18 2    
    43   20   19 1    
    44   21   19 1    
    45   49   19 1    
    46   50   19 1    
    47   23   20 1    
    48   51   20 1    
    49   52   20 1    
    50   37   21 1    
    51   53   21 1    
    52   54   21 1    
    53   23   22 1    
    54   37   22 1    
    55   55   22 1    
    56   56   22 1    
    57   25   23 1    
    58   57   23 1    
    59   67   24 1    
    60   68   24 1    
    61   69   24 1    
    62   70   25 1    
    63   71   25 1    
    64   72   25 1    
    65   37   26 1    
    66   58   26 1    
    67   59   26 1    
    68   31   27 1    
    69   60   27 1    
    70   61   27 1    
    71   31   28 1    
    72   40   29 1    
    73   62   33 1    
    74   63   34 1    
    75   64   35 1    
    76   65   36 1    
    77   66   37 1    
@<TRIPOS>SUBSTRUCTURE
     1 0FY1        1 GROUP   
@<TRIPOS>SET

