#    Name: 3dpf_AXB_2_INTS_M
#    Modification time : Mon Mar 24 23:57:55 2014

@<TRIPOS>MOLECULE
3dpf_AXB_2_INTS_M
   80     0     9     0     0
SMALL
NO_CHARGES


@<TRIPOS>ATOM
      1 O         -19.7145   16.4650   19.5015 O.2       1 ALC1        0.0000 
      2 O         -19.5530   18.0160   19.0940 O.2       7 ALL1        0.0000 
      3 O         -19.8760   14.9140   19.9090 O.2       4 ALP1        0.0000 
      4 N         -22.0275   22.4435   17.1845 N.am      2 SEC2        0.0000 
      5 N         -22.4460   21.4660   17.8590 N.am      8 SEL2        0.0000 
      6 N         -21.6090   23.4210   16.5100 N.am      5 SEP2        0.0000 
      7 N         -23.3865   22.5330   17.5020 N.am      2 SEC2        0.0000 
      8 N         -24.3270   23.6000   17.1450 N.am      5 SEP2        0.0000 
      9 CA        -21.6755   19.5410   15.9395 C.3       3 GLC5        0.0000 
     10 CA        -21.5730   19.0630   18.0460 C.3       9 GLL5        0.0000 
     11 CA        -21.7780   20.0190   13.8330 C.3       6 GLP5        0.0000 
     12 CA        -24.9945   18.3320   14.6650 C.3       3 GLC5        0.0000 
     13 CA        -24.4760   17.7210   16.3760 C.3       9 GLL5        0.0000 
     14 CA        -25.5130   18.9430   12.9540 C.3       6 GLP5        0.0000 
     15 CA        -23.6130   16.7740   14.5330 C.3       3 GLC5        0.0000 
     16 CA        -22.7500   15.8270   12.6900 C.3       6 GLP5        0.0000 
     17 CA        -24.3280   16.4970   18.8610 C.3       3 GLC5        0.0000 
     18 CA        -22.2510   16.8570   18.1800 C.3       9 GLL5        0.0000 
     19 CA        -26.4050   16.1370   19.5420 C.3       6 GLP5        0.0000 
     20 CA        -20.7430   13.8930   17.7375 C.3       3 GLC5        0.0000 
     21 CA        -22.7590   14.4940   17.4940 C.3       9 GLL5        0.0000 
     22 CA        -18.7270   13.2920   17.9810 C.3       6 GLP5        0.0000 
     23 CA        -26.2055   16.5615   14.8305 C.3       3 GLC5        0.0000 
     24 CA        -24.8200   15.2920   15.8260 C.3       9 GLL5        0.0000 
     25 CA        -27.5910   17.8310   13.8350 C.3       6 GLP5        0.0000 
     26 CA        -26.2810   15.2915   16.6525 C.3       3 GLC5        0.0000 
     27 CA        -27.7420   15.2910   17.4790 C.3       6 GLP5        0.0000 
     28 CA        -22.5525   10.6345   18.1760 C.3       3 GLC5        0.0000 
     29 CA        -23.0680   12.0690   16.8750 C.3       9 GLL5        0.0000 
     30 CA        -22.0370    9.2000   19.4770 C.3       6 GLP5        0.0000 
     31 CA        -21.7405   13.0905   15.7740 C.3       3 GLC5        0.0000 
     32 CA        -20.4130   14.1120   14.6730 C.3       6 GLP5        0.0000 
     33 O         -25.0495   11.3920   17.0610 O.2       1 ALC1        0.0000 
     34 O         -23.8120   11.2520   15.9060 O.2       7 ALL1        0.0000 
     35 O         -26.2870   11.5320   18.2160 O.2       4 ALP1        0.0000 
     36 N         -21.4320   12.1910   13.4315 N.am      2 SEC2        0.0000 
     37 N         -22.4990   11.7330   14.1170 N.am      8 SEL2        0.0000 
     38 N         -20.3650   12.6490   12.7460 N.am      5 SEP2        0.0000 
     39 CA        -29.7580    6.2010   14.1050 C.3       3 GLC5        0.0000 
     40 CA        -29.3550    6.5770   12.4130 C.3       9 GLL5        0.0000 
     41 CA        -30.1610    5.8250   15.7970 C.3       6 GLP5        0.0000 
     42 N         -31.8535    5.3225   10.3685 N.am      2 SEC2        0.0000 
     43 N         -30.5290    5.3630   10.2650 N.am      8 SEL2        0.0000 
     44 N         -33.1780    5.2820   10.4720 N.am      5 SEP2        0.0000 
     45 CA        -28.4260    5.8875    8.3040 C.3       3 GLC5        0.0000 
     46 CA        -28.0630    6.5040    9.8310 C.3       9 GLL5        0.0000 
     47 CA        -28.7890    5.2710    6.7770 C.3       6 GLP5        0.0000 
     48 CA        -29.1820    7.3990    8.6385 C.3       3 GLC5        0.0000 
     49 CA        -30.3010    8.2940    7.4460 C.3       6 GLP5        0.0000 
     50 CA        -28.1945    8.1065    8.4765 C.3       3 GLC5        0.0000 
     51 CA        -27.2320    7.7090   10.2730 C.3       9 GLL5        0.0000 
     52 CA        -29.1570    8.5040    6.6800 C.3       6 GLP5        0.0000 
     53 N         -23.9805    9.1860    9.2990 N.am      2 SEC2        0.0000 
     54 N         -24.9800    9.2320   10.4770 N.am      8 SEL2        0.0000 
     55 N         -22.9810    9.1400    8.1210 N.am      5 SEP2        0.0000 
     56 O         -22.9130   10.2735   11.8355 O.2       1 ALC1        0.0000 
     57 O         -24.2050   10.1150   12.4190 O.2       7 ALL1        0.0000 
     58 O         -21.6210   10.4320   11.2520 O.2       4 ALP1        0.0000 
     59 CA        -22.9468   19.0810   15.3680 C.3       3 GLC5        0.0000 
     60 CA        -25.2602   17.1400   18.2225 C.3       3 GLC5        0.0000 
     61 CA        -23.7550   18.5650   17.4300 C.3       9 GLL5        0.0000 
     62 CA        -21.7390   15.9495   16.0467 C.3       3 GLC5        0.0000 
     63 CA        -23.0790   15.8430   17.3890 C.3       9 GLL5        0.0000 
     64 CA        -20.8130   15.5490   14.3090 C.3       6 GLP5        0.0000 
     65 CA        -25.1342   15.4659   17.7986 C.3       3 GLC5        0.0000 
     66 CA        -26.7530   15.2250   18.6010 C.3       6 GLP5        0.0000 
     67 CA        -22.6395   15.6588   15.2487 C.3       3 GLC5        0.0000 
     68 CA        -24.1120   16.2450   16.5510 C.3       9 GLL5        0.0000 
     69 CA        -25.8158   13.6860   14.3575 C.3       3 GLC5        0.0000 
     70 CA        -26.9720   12.7550   12.8380 C.3       6 GLP5        0.0000 
     71 CA        -25.3670   14.4838   17.4735 C.3       3 GLC5        0.0000 
     72 CA        -24.4990   13.9420   15.9280 C.3       9 GLL5        0.0000 
     73 CA        -22.1090   14.0461   15.6007 C.3       3 GLC5        0.0000 
     74 CA        -26.5888   10.7673   12.9372 C.3       3 GLC5        0.0000 
     75 CA        -26.2470    8.8640   13.7270 C.3       9 GLL5        0.0000 
     76 CA        -27.1352    8.9575   15.7538 C.3       3 GLC5        0.0000 
     77 CA        -27.3310    9.4800   17.5220 C.3       6 GLP5        0.0000 
     78 CA        -28.3178    6.4757   14.6245 C.3       3 GLC5        0.0000 
     79 CA        -27.6320    8.0060   14.2440 C.3       9 GLL5        0.0000 
     80 CA        -28.7600    5.2330   15.7730 C.3       6 GLP5        0.0000 
@<TRIPOS>BOND
@<TRIPOS>SUBSTRUCTURE
     1 ALC1        1 GROUP        1 X    ALC  0     ROOT ALC X 1
     2 SEC2        4 GROUP        1 X    SEC  0     **** SEC X 2
     3 GLC5        9 GROUP        1 X    GLC  0     **** GLC X 6
     4 ALP1        3 GROUP        1 Y    ALP  0     ROOT ALP Y 8
     5 SEP2        6 GROUP        1 Y    SEP  0     **** SEP Y 9
     6 GLP5       11 GROUP        1 Y    GLP  0     **** GLP Y 13
     7 ALL1        2 GROUP        1 Z    ALL  0     ROOT ALL Z 15
     8 SEL2        5 GROUP        1 Z    SEL  0     **** SEL Z 16
     9 GLL5       10 GROUP        1 Z    GLL  0     **** GLL Z 20
@<TRIPOS>SET

