#    Name: 3dpf_AXB_2_ligand
#    Modification time : Mon Mar 24 23:57:55 2014

@<TRIPOS>MOLECULE
3dpf_AXB_2_ligand
   57    62     1     0     0
SMALL
NO_CHARGES


@<TRIPOS>ATOM
      1 N1        -19.5530   18.0160   19.0940 N.pl3     1 AXB2        0.0000 
      2 CAZ       -20.3480   19.0100   18.7100 C.2       1 AXB2        0.0000 
      3 CBF       -20.3100   20.5100   18.8200 C.2       1 AXB2        0.0000 
      4 OAD       -19.4800   21.3300   19.2600 O.2       1 AXB2        0.0000 
      5 CBG       -21.6460   20.5870   18.1700 C.2       1 AXB2        0.0000 
      6 OAE       -22.4460   21.4660   17.8590 O.2       1 AXB2        0.0000 
      7 CBD       -21.5730   19.0630   18.0460 C.2       1 AXB2        0.0000 
      8 N2        -22.3470   18.1440   17.4760 N.3       1 AXB2        0.0000 
      9 CAM       -23.7550   18.5650   17.4300 C.3       1 AXB2        0.0000 
     10 CAK       -24.4760   17.7210   16.3760 C.3       1 AXB2        0.0000 
     11 CAP       -22.2510   16.8570   18.1800 C.3       1 AXB2        0.0000 
     12 CAY       -23.0790   15.8430   17.3890 C.ar      1 AXB2        0.0000 
     13 CAJ       -22.7590   14.4940   17.4940 C.ar      1 AXB2        0.0000 
     14 CAX       -24.1120   16.2450   16.5510 C.ar      1 AXB2        0.0000 
     15 CAI       -24.8200   15.2920   15.8260 C.ar      1 AXB2        0.0000 
     16 CAH       -24.4990   13.9420   15.9280 C.ar      1 AXB2        0.0000 
     17 CAW       -23.4630   13.5430   16.7640 C.ar      1 AXB2        0.0000 
     18 CAO       -23.0680   12.0690   16.8750 C.3       1 AXB2        0.0000 
     19 N3        -23.8120   11.2520   15.9060 N.am      1 AXB2        0.0000 
     20 CAV       -23.4520   11.1470   14.6290 C.2       1 AXB2        0.0000 
     21 OAB       -22.4990   11.7330   14.1170 O.2       1 AXB2        0.0000 
     22 CBB       -24.3650   10.2400   13.8030 C.2       1 AXB2        0.0000 
     23 N4        -25.3730    9.6080   14.4160 N.2       1 AXB2        0.0000 
     24 CBH       -26.2470    8.8640   13.7270 C.2       1 AXB2        0.0000 
     25 SAU       -27.6320    8.0060   14.2440 S.3       1 AXB2        0.0000 
     26 CBA       -28.1190    7.4310   12.7080 C.2       1 AXB2        0.0000 
     27 CAQ       -29.3550    6.5770   12.4130 C.3       1 AXB2        0.0000 
     28 SBK       -29.7090    6.5680   10.6210 S.o2      1 AXB2        0.0000 
     29 OAF       -30.5290    5.3630   10.2650 O.2       1 AXB2        0.0000 
     30 OAG       -30.4330    7.8250   10.2400 O.2       1 AXB2        0.0000 
     31 CAN       -28.0630    6.5040    9.8310 C.3       1 AXB2        0.0000 
     32 CAL       -27.2320    7.7090   10.2730 C.3       1 AXB2        0.0000 
     33 CBC       -27.1830    7.9160   11.7910 C.2       1 AXB2        0.0000 
     34 CBI       -26.1640    8.6950   12.3460 C.2       1 AXB2        0.0000 
     35 CBE       -25.1150    9.3360   11.6950 C.2       1 AXB2        0.0000 
     36 OAC       -24.9800    9.2320   10.4770 O.2       1 AXB2        0.0000 
     37 N5        -24.2050   10.1150   12.4190 N.am      1 AXB2        0.0000 
     38 H         -23.8384   19.6098   17.1504 H         1 AXB2        0.0000 
     39 H         -24.2387   18.4063   18.3879 H         1 AXB2        0.0000 
     40 H         -24.1767   18.0498   15.3870 H         1 AXB2        0.0000 
     41 H         -25.5475   17.8426   16.4906 H         1 AXB2        0.0000 
     42 H         -22.6572   16.9300   19.1788 H         1 AXB2        0.0000 
     43 H         -21.2277   16.5115   18.2189 H         1 AXB2        0.0000 
     44 H         -21.9933   14.1965   18.1184 H         1 AXB2        0.0000 
     45 H         -25.5906   15.5889   15.2066 H         1 AXB2        0.0000 
     46 H         -25.0247   13.2455   15.3887 H         1 AXB2        0.0000 
     47 H         -23.2707   11.7354   17.8987 H         1 AXB2        0.0000 
     48 H         -21.9893   11.9886   16.7013 H         1 AXB2        0.0000 
     49 H         -24.6481   10.7565   16.2917 H         1 AXB2        0.0000 
     50 H         -30.2543    6.9709   12.8167 H         1 AXB2        0.0000 
     51 H         -29.2217    5.5444   12.6198 H         1 AXB2        0.0000 
     52 H         -28.3098    6.5076    8.8013 H         1 AXB2        0.0000 
     53 H         -27.6874    5.5751   10.1735 H         1 AXB2        0.0000 
     54 H         -27.6425    8.6185    9.8035 H         1 AXB2        0.0000 
     55 H         -26.2020    7.5908    9.8972 H         1 AXB2        0.0000 
     56 H         -23.4356   10.5851   11.9434 H         1 AXB2        0.0000 
     57 H         -20.1590   17.2283   19.2052 H         1 AXB2        0.0000 
@<TRIPOS>BOND
     1    2    1 1    
     2   57    1 1    
     3    3    2 1    
     4    7    2 2    
     5    4    3 2    
     6    5    3 1    
     7    6    5 2    
     8    7    5 1    
     9    8    7 1    
    10    9    8 1    
    11   11    8 1    
    12   10    9 1    
    13   38    9 1    
    14   39    9 1    
    15   14   10 1    
    16   40   10 1    
    17   41   10 1    
    18   12   11 1    
    19   42   11 1    
    20   43   11 1    
    21   13   12 ar   
    22   14   12 ar   
    23   17   13 ar   
    24   44   13 1    
    25   15   14 ar   
    26   16   15 ar   
    27   45   15 1    
    28   17   16 ar   
    29   46   16 1    
    30   18   17 1    
    31   19   18 1    
    32   47   18 1    
    33   48   18 1    
    34   20   19 am   
    35   49   19 1    
    36   21   20 2    
    37   22   20 1    
    38   23   22 2    
    39   37   22 1    
    40   24   23 1    
    41   25   24 1    
    42   34   24 2    
    43   26   25 1    
    44   27   26 1    
    45   33   26 2    
    46   28   27 1    
    47   50   27 1    
    48   51   27 1    
    49   29   28 2    
    50   30   28 2    
    51   31   28 1    
    52   32   31 1    
    53   52   31 1    
    54   53   31 1    
    55   33   32 1    
    56   54   32 1    
    57   55   32 1    
    58   34   33 1    
    59   35   34 1    
    60   36   35 2    
    61   37   35 am   
    62   56   37 1    
@<TRIPOS>SUBSTRUCTURE
     1 AXB2        1 GROUP   
@<TRIPOS>SET

