#    Name: 4N8E_1_CAVITY_N1_6.mol2
#    Modification time : Tue Mar 11 16:17:11 2014

@<TRIPOS>MOLECULE
4N8E_1_CAVITY_N1_6.mol2
   73     0     7     0     0
SMALL
NO_CHARGES


@<TRIPOS>ATOM
      1 OD1        15.9437   30.6275   56.4661 O.3       3 ASP3        0.0000 
      2 N          17.3999   29.4894   55.4248 N.2       2 ALA2        0.0000 
      3 N          18.8562   28.3513   54.3836 N.2       2 ALA2        0.0000 
      4 DU         17.5592   29.0076   54.0133 H         7 CUB7        0.0000 
      5 DU         16.2622   29.6638   53.6429 H         7 CUB7        0.0000 
      6 N          19.0154   27.8695   52.9720 N.2       2 ALA2        0.0000 
      7 CZ         17.7184   28.5258   52.6017 C.ar      5 PHE5        0.0000 
      8 CZ         16.4214   29.1820   52.2314 C.ar      5 PHE5        0.0000 
      9 OG         14.5043   35.4233   57.8547 O.2       1 SER1        0.0000 
     10 OG         13.2073   36.0796   57.4844 O.2       1 SER1        0.0000 
     11 O          15.9605   34.2852   56.8134 O.2       2 ALA2        0.0000 
     12 DU         14.6636   34.9415   56.4431 H         7 CUB7        0.0000 
     13 OG         13.3666   35.5977   56.0728 O.2       1 SER1        0.0000 
     14 DU         12.0696   36.2540   55.7025 H         7 CUB7        0.0000 
     15 OG         18.8898   35.6668   55.0783 O.2       1 SER1        0.0000 
     16 DU         17.5928   36.3231   54.7080 H         7 CUB7        0.0000 
     17 O          16.2958   36.9793   54.3377 O.2       2 ALA2        0.0000 
     18 O          14.9988   37.6356   53.9674 O.2       2 ALA2        0.0000 
     19 CZ         19.0490   35.1850   53.6668 C.ar      5 PHE5        0.0000 
     20 OG         17.7521   35.8412   53.2965 O.2       1 SER1        0.0000 
     21 CZ         16.4551   36.4975   52.9261 C.ar      5 PHE5        0.0000 
     22 N          16.5378   36.0268   57.8781 N.2       2 ALA2        0.0000 
     23 OG         16.6634   28.2296   55.7718 O.2       1 SER1        0.0000 
     24 OG         16.8227   27.7478   54.3602 O.2       1 SER1        0.0000 
     25 OG         18.2789   26.6097   53.3189 O.2       1 SER1        0.0000 
     26 OG         16.9819   27.2659   52.9486 O.2       1 SER1        0.0000 
     27 CA         18.4381   26.1279   51.9074 C.3       6 GLY6        0.0000 
     28 CZ         15.8441   27.4404   51.1668 C.ar      5 PHE5        0.0000 
     29 CA         18.1701   38.0647   55.7726 C.3       6 GLY6        0.0000 
     30 OG         19.6263   36.9266   54.7314 O.2       1 SER1        0.0000 
     31 O          18.3293   37.5829   54.3611 O.2       2 ALA2        0.0000 
     32 OG         17.1748   34.0996   52.2318 O.2       1 SER1        0.0000 
     33 NZ         17.9941   34.8888   56.8368 N.2       4 LYS4        0.0000 
     34 O          16.6971   35.5450   56.4665 O.2       2 ALA2        0.0000 
     35 CA         15.4001   36.2013   56.0962 C.3       6 GLY6        0.0000 
     36 CA         14.1031   36.8576   55.7259 C.3       6 GLY6        0.0000 
     37 CA         12.8061   37.5138   55.3556 C.3       6 GLY6        0.0000 
     38 NZ         19.4503   33.7507   55.7956 N.2       4 LYS4        0.0000 
     39 NZ         18.1533   34.4070   55.4253 N.2       4 LYS4        0.0000 
     40 DU         16.8563   35.0632   55.0550 H         7 CUB7        0.0000 
     41 OG         15.5593   35.7195   54.6846 O.2       1 SER1        0.0000 
     42 CZ         14.2623   36.3758   54.3143 C.ar      5 PHE5        0.0000 
     43 CZ         12.9653   37.0320   53.9440 C.ar      5 PHE5        0.0000 
     44 NZ         19.6095   33.2689   54.3840 N.2       4 LYS4        0.0000 
     45 CZ         18.3125   33.9251   54.0137 C.ar      5 PHE5        0.0000 
     46 OG         17.0155   34.5814   53.6434 O.2       1 SER1        0.0000 
     47 OG         15.7185   35.2377   53.2731 O.2       1 SER1        0.0000 
     48 OG         18.7306   36.1486   56.4899 O.2       1 SER1        0.0000 
     49 CA         17.4336   36.8049   56.1196 C.3       6 GLY6        0.0000 
     50 OG         18.4886   37.1011   52.9495 O.2       1 SER1        0.0000 
     51 NZ         17.4168   33.1471   55.7722 N.2       4 LYS4        0.0000 
     52 DU         16.1198   33.8034   55.4019 H         7 CUB7        0.0000 
     53 OG         14.8228   34.4597   55.0316 O.2       1 SER1        0.0000 
     54 CZ         13.5258   35.1159   54.6613 C.ar      5 PHE5        0.0000 
     55 CZ         12.2288   35.7722   54.2910 C.ar      5 PHE5        0.0000 
     56 NZ         18.8730   32.0090   54.7309 N.2       4 LYS4        0.0000 
     57 DU         17.5760   32.6653   54.3606 H         7 CUB7        0.0000 
     58 OG         16.2790   33.3216   53.9903 O.2       1 SER1        0.0000 
     59 OG         14.9820   33.9779   53.6200 O.2       1 SER1        0.0000 
     60 NZ         19.0322   31.5272   53.3194 N.2       4 LYS4        0.0000 
     61 CZ         17.7352   32.1835   52.9491 C.ar      5 PHE5        0.0000 
     62 OG         16.4382   32.8398   52.5788 O.2       1 SER1        0.0000 
     63 O          16.6802   31.8873   56.1191 O.2       2 ALA2        0.0000 
     64 DU         15.3833   32.5436   55.7488 H         7 CUB7        0.0000 
     65 N          18.1365   30.7492   55.0779 N.2       2 ALA2        0.0000 
     66 DU         16.8395   31.4055   54.7076 H         7 CUB7        0.0000 
     67 DU         15.5425   32.0618   54.3373 H         7 CUB7        0.0000 
     68 NZ         19.5927   29.6111   54.0366 N.2       4 LYS4        0.0000 
     69 DU         18.2957   30.2674   53.6663 H         7 CUB7        0.0000 
     70 CZ         16.9987   30.9237   53.2960 C.ar      5 PHE5        0.0000 
     71 OG         15.7017   31.5799   52.9257 O.2       1 SER1        0.0000 
     72 N          19.7519   29.1293   52.6251 N.2       2 ALA2        0.0000 
     73 CZ         18.4549   29.7856   52.2548 C.ar      5 PHE5        0.0000 
@<TRIPOS>BOND
@<TRIPOS>SUBSTRUCTURE
     1 SER1        9 GROUP   
     2 ALA2        2 GROUP   
     3 ASP3        1 GROUP   
     4 LYS4       33 GROUP   
     5 PHE5        7 GROUP   
     6 GLY6       27 GROUP   
     7 CUB7        4 GROUP   
@<TRIPOS>SET

