#    Name: 4n8e_2KV_1_INTS_M
#    Modification time : Tue Mar 25 12:47:00 2014

@<TRIPOS>MOLECULE
4n8e_2KV_1_INTS_M
   56     0     9     0     0
SMALL
NO_CHARGES


@<TRIPOS>ATOM
      1 CA         17.8795   29.3490   51.5485 C.3       3 GLC5        0.0000 
      2 CA         17.8490   28.8360   53.5930 C.3       9 GLL5        0.0000 
      3 CA         17.9100   29.8620   49.5040 C.3       6 GLP5        0.0000 
      4 CA         20.3280   33.4025   53.1305 C.3       3 GLC5        0.0000 
      5 CA         19.4740   33.2100   54.7250 C.3       9 GLL5        0.0000 
      6 CA         21.1820   33.5950   51.5360 C.3       6 GLP5        0.0000 
      7 CA         17.2815   37.2560   58.8655 C.3       3 GLC5        0.0000 
      8 CA         18.0190   37.0220   56.9040 C.3       9 GLL5        0.0000 
      9 CA         16.5440   37.4900   60.8270 C.3       6 GLP5        0.0000 
     10 CA         18.2690   27.4245   51.2845 C.3       3 GLC5        0.0000 
     11 CA         17.7140   27.3020   53.3820 C.3       9 GLL5        0.0000 
     12 CA         18.8240   27.5470   49.1870 C.3       6 GLP5        0.0000 
     13 CA         18.5555   33.0885   51.9030 C.3       3 GLC5        0.0000 
     14 CA         17.1030   32.0950   52.8560 C.3       9 GLL5        0.0000 
     15 CA         20.0080   34.0820   50.9500 C.3       6 GLP5        0.0000 
     16 CA         18.8750   38.9170   51.8860 C.3       3 GLC5        0.0000 
     17 CA         19.6520   38.5270   53.5200 C.3       9 GLL5        0.0000 
     18 CA         18.0980   39.3070   50.2520 C.3       6 GLP5        0.0000 
     19 CA         20.4395   40.0830   54.2650 C.3       3 GLC5        0.0000 
     20 CA         21.2270   41.6390   55.0100 C.3       6 GLP5        0.0000 
     21 CA         20.5570   39.5060   52.0955 C.3       3 GLC5        0.0000 
     22 CA         21.4620   40.4850   50.6710 C.3       6 GLP5        0.0000 
     23 CA         21.2005   37.6335   54.2205 C.3       3 GLC5        0.0000 
     24 CA         22.7490   36.7400   54.9210 C.3       6 GLP5        0.0000 
     25 CA         20.3200   37.3945   52.1705 C.3       3 GLC5        0.0000 
     26 CA         20.9880   36.2620   50.8210 C.3       6 GLP5        0.0000 
     27 OD1        19.9385   33.0495   57.1075 O.co2     2 ASC3        0.0000 
     28 OD1        20.2980   33.5610   55.8950 O.co2     8 ASL3        0.0000 
     29 OD1        19.5790   32.5380   58.3200 O.co2     5 ASP3        0.0000 
     30 OD1        21.1710   32.5330   55.1305 O.co2     2 ASC3        0.0000 
     31 OD1        22.0440   31.5050   54.3660 O.co2     5 ASP3        0.0000 
     32 OD1        21.6075   33.2050   55.8780 O.co2     2 ASC3        0.0000 
     33 OD1        22.9170   32.8490   55.8610 O.co2     5 ASP3        0.0000 
     34 O          19.9385   33.0495   57.1075 O.2       1 ALC1        0.0000 
     35 O          20.2980   33.5610   55.8950 O.2       7 ALL1        0.0000 
     36 O          19.5790   32.5380   58.3200 O.2       4 ALP1        0.0000 
     37 O          21.1710   32.5330   55.1305 O.2       1 ALC1        0.0000 
     38 O          22.0440   31.5050   54.3660 O.2       4 ALP1        0.0000 
     39 O          21.6075   33.2050   55.8780 O.2       1 ALC1        0.0000 
     40 O          22.9170   32.8490   55.8610 O.2       4 ALP1        0.0000 
     41 O          20.8275   34.7745   56.2945 O.2       1 ALC1        0.0000 
     42 O          21.3570   35.9880   56.6940 O.2       4 ALP1        0.0000 
     43 CA         18.8068   33.8555   52.5232 C.3       3 GLC5        0.0000 
     44 CA         17.9860   33.7120   54.7870 C.3       9 GLL5        0.0000 
     45 CA         17.0333   38.4970   56.0190 C.3       3 GLC5        0.0000 
     46 CA         18.9140   37.4920   54.7140 C.3       9 GLL5        0.0000 
     47 CA         15.3160   39.2790   56.6790 C.3       6 GLP5        0.0000 
     48 CA         16.1755   27.7268   50.6785 C.3       3 GLC5        0.0000 
     49 CA         15.2660   27.6350   52.7430 C.3       9 GLL5        0.0000 
     50 CA         16.4080   28.1290   48.8290 C.3       6 GLP5        0.0000 
     51 CA         16.6140   37.8180   56.6917 C.3       3 GLC5        0.0000 
     52 CA         17.8050   35.6920   56.5050 C.3       9 GLL5        0.0000 
     53 CA         19.2280   38.7260   57.5645 C.3       3 GLC5        0.0000 
     54 CA         20.1530   39.9720   58.6750 C.3       6 GLP5        0.0000 
     55 CA         16.8565   31.1790   51.4575 C.3       3 GLC5        0.0000 
     56 CA         16.8590   30.7730   49.5120 C.3       6 GLP5        0.0000 
@<TRIPOS>BOND
@<TRIPOS>SUBSTRUCTURE
     1 ALC1       34 GROUP        1 X    ALC  0     ROOT ALC X 1
     2 ASC3       27 GROUP        1 X    ASC  0     **** ASC X 3
     3 GLC5        1 GROUP        1 X    GLC  0     **** GLC X 6
     4 ALP1       36 GROUP        1 Y    ALP  0     ROOT ALP Y 8
     5 ASP3       29 GROUP        1 Y    ASP  0     **** ASP Y 10
     6 GLP5        3 GROUP        1 Y    GLP  0     **** GLP Y 13
     7 ALL1       35 GROUP        1 Z    ALL  0     ROOT ALL Z 15
     8 ASL3       28 GROUP        1 Z    ASL  0     **** ASL Z 17
     9 GLL5        2 GROUP        1 Z    GLL  0     **** GLL Z 20
@<TRIPOS>SET

