#    Name: 4n8e_2KV_1_ligand
#    Modification time : Tue Mar 25 12:47:00 2014

@<TRIPOS>MOLECULE
4n8e_2KV_1_ligand
   48    50     1     0     0
SMALL
NO_CHARGES


@<TRIPOS>ATOM
      1 C2         15.4040   29.0900   53.1470 C.2       1 2KV815      0.0000 
      2 C3         17.9860   33.7120   54.7870 C.3       1 2KV815      0.0000 
      3 C11        17.1120   31.3230   55.4230 C.3       1 2KV815      0.0000 
      4 C12        18.9140   37.4920   54.7140 C.ar      1 2KV815      0.0000 
      5 C13        17.8490   28.8360   53.5930 C.3       1 2KV815      0.0000 
      6 C16        19.4740   33.2100   54.7250 C.3       1 2KV815      0.0000 
      7 C17        15.2660   27.6350   52.7430 C.3       1 2KV815      0.0000 
      8 C18        17.8050   35.6920   56.5050 C.ar      1 2KV815      0.0000 
      9 C19        18.0190   37.0220   56.9040 C.ar      1 2KV815      0.0000 
     10 C20        18.5870   37.9380   56.0040 C.ar      1 2KV815      0.0000 
     11 C21        17.7140   27.3020   53.3820 C.3       1 2KV815      0.0000 
     12 C22        16.6200   27.0140   52.3130 C.3       1 2KV815      0.0000 
     13 N1         16.6020   29.6410   53.5410 N.am      1 2KV815      0.0000 
     14 C4         18.1350   35.2220   55.2090 C.ar      1 2KV815      0.0000 
     15 C5         16.6050   31.0750   53.9500 C.3       1 2KV815      0.0000 
     16 O6         14.3490   29.7190   53.1130 O.2       1 2KV815      0.0000 
     17 C7         18.7300   36.1620   54.3510 C.ar      1 2KV815      0.0000 
     18 C8         17.2250   33.5460   53.4060 C.3       1 2KV815      0.0000 
     19 C9         17.2230   32.8230   55.8530 C.3       1 2KV815      0.0000 
     20 C10        17.1030   32.0950   52.8560 C.3       1 2KV815      0.0000 
     21 CL1        19.6520   38.5270   53.5200 Cl        1 2KV815      0.0000 
     22 N15        20.2980   33.5610   55.8950 N.4       1 2KV815      0.0000 
     23 H          18.1001   30.8515   55.5300 H         1 2KV815      0.0000 
     24 H          16.4273   30.8081   56.1130 H         1 2KV815      0.0000 
     25 H          18.5770   29.2122   52.8308 H         1 2KV815      0.0000 
     26 H          18.3615   28.9911   54.5757 H         1 2KV815      0.0000 
     27 H          19.9151   33.6233   53.7956 H         1 2KV815      0.0000 
     28 H          19.4378   32.1107   54.5856 H         1 2KV815      0.0000 
     29 H          14.5657   27.5483   51.9073 H         1 2KV815      0.0000 
     30 H          14.8709   27.0545   53.5816 H         1 2KV815      0.0000 
     31 H          17.3887   35.0225   57.1827 H         1 2KV815      0.0000 
     32 H          17.7618   37.3217   57.8469 H         1 2KV815      0.0000 
     33 H          18.7566   38.8977   56.2795 H         1 2KV815      0.0000 
     34 H          17.4277   26.8402   54.3129 H         1 2KV815      0.0000 
     35 H          18.6561   26.9075   53.0376 H         1 2KV815      0.0000 
     36 H          16.9267   27.4468   51.3706 H         1 2KV815      0.0000 
     37 H          16.5036   25.9439   52.2085 H         1 2KV815      0.0000 
     38 H          15.4467   31.3461   54.0403 H         1 2KV815      0.0000 
     39 H          19.0434   35.8448   53.4079 H         1 2KV815      0.0000 
     40 H          17.7444   34.1696   52.6578 H         1 2KV815      0.0000 
     41 H          16.2127   33.9693   53.5260 H         1 2KV815      0.0000 
     42 H          16.2235   33.2301   55.9849 H         1 2KV815      0.0000 
     43 H          17.7604   32.8838   56.7962 H         1 2KV815      0.0000 
     44 H          16.3962   32.0842   52.0295 H         1 2KV815      0.0000 
     45 H          18.0754   31.7658   52.4970 H         1 2KV815      0.0000 
     46 H          21.2337   33.2195   55.8062 H         1 2KV815      0.0000 
     47 H          20.3582   34.5509   56.0233 H         1 2KV815      0.0000 
     48 H          19.9252   33.1780   56.7402 H         1 2KV815      0.0000 
@<TRIPOS>BOND
     1    7    1 1    
     2   13    1 am   
     3   16    1 2    
     4    6    2 1    
     5   14    2 1    
     6   18    2 1    
     7   19    2 1    
     8   15    3 1    
     9   19    3 1    
    10   23    3 1    
    11   24    3 1    
    12   10    4 ar   
    13   17    4 ar   
    14   21    4 1    
    15   11    5 1    
    16   13    5 1    
    17   25    5 1    
    18   26    5 1    
    19   22    6 1    
    20   27    6 1    
    21   28    6 1    
    22   12    7 1    
    23   29    7 1    
    24   30    7 1    
    25    9    8 ar   
    26   14    8 ar   
    27   31    8 1    
    28   10    9 ar   
    29   32    9 1    
    30   33   10 1    
    31   12   11 1    
    32   34   11 1    
    33   35   11 1    
    34   36   12 1    
    35   37   12 1    
    36   15   13 1    
    37   17   14 ar   
    38   20   15 1    
    39   38   15 1    
    40   39   17 1    
    41   20   18 1    
    42   40   18 1    
    43   41   18 1    
    44   42   19 1    
    45   43   19 1    
    46   44   20 1    
    47   45   20 1    
    48   46   22 1    
    49   47   22 1    
    50   48   22 1    
@<TRIPOS>SUBSTRUCTURE
     1 2KV815      1 GROUP   
@<TRIPOS>SET

