#    Name: 3o4r_NAP_4_INTS_M
#    Modification time : Tue Mar 25 03:14:47 2014

@<TRIPOS>MOLECULE
3o4r_NAP_4_INTS_M
  119     0    12     0     0
SMALL
NO_CHARGES


@<TRIPOS>ATOM
      1 N          52.6725   13.6510   30.0160 N.am      2 SEC2        0.0000 
      2 N          52.3350   13.5910   31.7220 N.am     10 SEL2        0.0000 
      3 N          53.0100   13.7110   28.3100 N.am      6 SEP2        0.0000 
      4 N          51.3465   16.6375   31.6630 N.am      2 SEC2        0.0000 
      5 N          50.6480   15.5320   31.9530 N.am     10 SEL2        0.0000 
      6 N          52.0450   17.7430   31.3730 N.am      6 SEP2        0.0000 
      7 CA         49.1780   11.0010   36.2755 C.3       4 GLC5        0.0000 
      8 CA         50.5210   12.1440   35.4060 C.3      12 GLL5        0.0000 
      9 CA         47.8350    9.8580   37.1450 C.3       8 GLP5        0.0000 
     10 CA         51.6755   14.6375   35.9515 C.3       4 GLC5        0.0000 
     11 CA         51.6150   12.6890   36.3110 C.3      12 GLL5        0.0000 
     12 CA         51.7360   16.5860   35.5920 C.3       8 GLP5        0.0000 
     13 N          49.9935   14.1525   38.4455 N.am      2 SEC2        0.0000 
     14 N          50.9350   13.2920   37.4210 N.am     10 SEL2        0.0000 
     15 N          49.0520   15.0130   39.4700 N.am      6 SEP2        0.0000 
     16 O          51.4285   13.8235   38.6180 O.2       1 ALC1        0.0000 
     17 O          50.9350   13.2920   37.4210 O.2       9 ALL1        0.0000 
     18 O          51.9220   14.3550   39.8150 O.2       5 ALP1        0.0000 
     19 CA         49.5675   10.1635   36.9820 C.3       4 GLC5        0.0000 
     20 CA         51.3000   10.4690   36.8190 C.3      12 GLL5        0.0000 
     21 CA         53.2515    6.5020   38.0355 C.3       4 GLC5        0.0000 
     22 CA         51.6630    6.8790   37.2640 C.3      12 GLL5        0.0000 
     23 CA         54.8400    6.1250   38.8070 C.3       8 GLP5        0.0000 
     24 CA         52.7415    6.1705   39.0870 C.3       4 GLC5        0.0000 
     25 CA         51.3290    5.8100   38.0680 C.3      12 GLL5        0.0000 
     26 CA         54.1540    6.5310   40.1060 C.3       8 GLP5        0.0000 
     27 CA         49.7465    4.5065   38.2210 C.3       4 GLC5        0.0000 
     28 CA         48.1640    3.2030   38.3740 C.3       8 GLP5        0.0000 
     29 O          52.1645    3.4300   38.9780 O.2       1 ALC1        0.0000 
     30 O          51.7500    4.5670   37.7310 O.2       9 ALL1        0.0000 
     31 O          52.5790    2.2930   40.2250 O.2       5 ALP1        0.0000 
     32 N          50.0925    4.7375   40.1405 N.am      2 SEC2        0.0000 
     33 N          50.5730    5.9980   39.1620 N.am     10 SEL2        0.0000 
     34 N          49.6120    3.4770   41.1190 N.am      6 SEP2        0.0000 
     35 CA         49.0250    8.9015   38.9835 C.3       4 GLC5        0.0000 
     36 CA         50.1550    7.2140   39.5170 C.3      12 GLL5        0.0000 
     37 CA         47.8950   10.5890   38.4500 C.3       8 GLP5        0.0000 
     38 CA         50.6165    8.6875   40.6735 C.3       4 GLC5        0.0000 
     39 CA         51.0780   10.1610   41.8300 C.3       8 GLP5        0.0000 
     40 CA         52.1545    6.8725   39.8115 C.3       4 GLC5        0.0000 
     41 CA         50.8725    5.7120   40.9310 C.3       4 GLC5        0.0000 
     42 CA         51.5900    4.2100   42.3450 C.3       8 GLP5        0.0000 
     43 CA         48.6610    5.9750   39.7890 C.3       4 GLC5        0.0000 
     44 CA         47.1670    4.7360   40.0610 C.3       8 GLP5        0.0000 
     45 CA         48.8540    6.6550   37.9465 C.3       4 GLC5        0.0000 
     46 CA         47.5530    6.0960   36.3760 C.3       8 GLP5        0.0000 
     47 CA         49.5195    8.9975   37.4005 C.3       4 GLC5        0.0000 
     48 CA         51.2040    8.1370   37.6560 C.3      12 GLL5        0.0000 
     49 CA         51.3375    9.6685   39.2110 C.3       4 GLC5        0.0000 
     50 CA         51.4710   11.2000   40.7660 C.3       8 GLP5        0.0000 
     51 CA         52.6790    7.3340   38.8810 C.3       4 GLC5        0.0000 
     52 N          49.2925   14.3060   28.6785 N.am      2 SEC2        0.0000 
     53 N          48.5090   13.4380   29.2200 N.am     10 SEL2        0.0000 
     54 N          50.0760   15.1740   28.1370 N.am      6 SEP2        0.0000 
     55 N          47.0415   15.3300   32.0635 N.am      2 SEC2        0.0000 
     56 N          47.7400   14.2540   31.5680 N.am     10 SEL2        0.0000 
     57 N          46.3430   16.4060   32.5590 N.am      6 SEP2        0.0000 
     58 CA         43.8745   10.2120   30.8660 C.3       4 GLC5        0.0000 
     59 CA         46.0190   10.3620   31.0630 C.3      12 GLL5        0.0000 
     60 CA         41.7300   10.0620   30.6690 C.3       8 GLP5        0.0000 
     61 N          44.9705    6.8960   30.1755 N.am      2 SEC2        0.0000 
     62 N          45.5730    8.0070   31.0810 N.am     10 SEL2        0.0000 
     63 N          44.3680    5.7850   29.2700 N.am      6 SEP2        0.0000 
     64 O          45.6205    8.3780   32.3965 O.2       1 ALC1        0.0000 
     65 O          45.5730    8.0070   31.0810 O.2       9 ALL1        0.0000 
     66 O          45.6680    8.7490   33.7120 O.2       5 ALP1        0.0000 
     67 CA         45.6395    7.1770   28.5230 C.3       4 GLC5        0.0000 
     68 CA         46.5160    9.0670   29.1340 C.3      12 GLL5        0.0000 
     69 CA         44.7630    5.2870   27.9120 C.3       8 GLP5        0.0000 
     70 CA         48.1705    8.8890   28.1305 C.3       4 GLC5        0.0000 
     71 CA         49.8250    8.7110   27.1270 C.3       8 GLP5        0.0000 
     72 N          45.3400    6.7810   28.9140 N.am      2 SEC2        0.0000 
     73 N          46.3120    7.7770   28.5580 N.am     10 SEL2        0.0000 
     74 O          46.4160    7.5735   27.1380 O.2       1 ALC1        0.0000 
     75 O          46.3120    7.7770   28.5580 O.2       9 ALL1        0.0000 
     76 O          46.5200    7.3700   25.7180 O.2       5 ALP1        0.0000 
     77 CA         45.0865   12.1655   29.0725 C.3       4 GLC5        0.0000 
     78 CA         45.3600   10.0040   28.8870 C.3      12 GLL5        0.0000 
     79 CA         44.8130   14.3270   29.2580 C.3       8 GLP5        0.0000 
     80 CA         43.5450   10.0330   29.7780 C.3       4 GLC5        0.0000 
     81 O          47.7385   15.0865   24.4750 O.2       1 ALC1        0.0000 
     82 O          47.1830   13.5100   24.2840 O.2       9 ALL1        0.0000 
     83 O          48.2940   16.6630   24.6660 O.2       5 ALP1        0.0000 
     84 CA         42.5740   10.6760   26.8450 C.3       4 GLC5        0.0000 
     85 CA         44.4520   10.1540   26.6710 C.3      12 GLL5        0.0000 
     86 CA         40.6960   11.1980   27.0190 C.3       8 GLP5        0.0000 
     87 NZ         55.5885    9.6900   36.8265 N.4       3 LYC4        0.0000 
     88 NZ         55.2920   10.9950   37.5470 N.4      11 LYL4        0.0000 
     89 NZ         55.6950    7.2580   36.7830 N.4       7 LYP4        0.0000 
     90 N          55.5885    9.6900   36.8265 N.am      2 SEC2        0.0000 
     91 N          55.2920   10.9950   37.5470 N.am     10 SEL2        0.0000 
     92 N          55.8850    8.3850   36.1060 N.am      6 SEP2        0.0000 
     93 N          53.5015   11.9160   40.5780 N.am      2 SEC2        0.0000 
     94 N          54.5860   11.6840   39.9120 N.am     10 SEL2        0.0000 
     95 N          52.4170   12.1480   41.2440 N.am      6 SEP2        0.0000 
     96 N          55.0970   10.9360   41.2900 N.am      2 SEC2        0.0000 
     97 N          55.6080   10.1880   42.6680 N.am      6 SEP2        0.0000 
     98 N          55.5285   12.7720   39.7830 N.am      2 SEC2        0.0000 
     99 N          56.4710   13.8600   39.6540 N.am      6 SEP2        0.0000 
    100 NZ         54.4425    8.4120   38.4280 N.4       3 LYC4        0.0000 
    101 NZ         53.7870    9.5280   38.8850 N.4      11 LYL4        0.0000 
    102 N          54.4425    8.4120   38.4280 N.am      2 SEC2        0.0000 
    103 N          53.7870    9.5280   38.8850 N.am     10 SEL2        0.0000 
    104 N          55.0980    7.2960   37.9710 N.am      6 SEP2        0.0000 
    105 N          53.5065    9.2640   40.2450 N.am      2 SEC2        0.0000 
    106 N          53.2260    9.0000   41.6050 N.am      6 SEP2        0.0000 
    107 CA         51.6650   11.0882   38.7800 C.3       4 GLC5        0.0000 
    108 CA         49.4515    6.6684   37.0185 C.3       4 GLC5        0.0000 
    109 CA         47.3160    7.4962   30.2975 C.3       4 GLC5        0.0000 
    110 CA         46.5120    8.9960   30.6340 C.3      12 GLL5        0.0000 
    111 CA         48.1180    5.9610   30.7110 C.3       8 GLP5        0.0000 
    112 CA         45.5110   13.0975   27.9302 C.3       4 GLC5        0.0000 
    113 CA         46.2270   11.5850   27.2380 C.3      12 GLL5        0.0000 
    114 CA         43.1765   12.2248   25.7025 C.3       4 GLC5        0.0000 
    115 CA         45.2680   11.6910   25.0310 C.3      12 GLL5        0.0000 
    116 CA         41.5270   13.2600   26.1960 C.3       8 GLP5        0.0000 
    117 CA         43.7020    8.9825   25.3355 C.3       4 GLC5        0.0000 
    118 CA         44.3840   10.6880   25.3870 C.3      12 GLL5        0.0000 
    119 CA         42.9860    7.5440   24.6420 C.3       8 GLP5        0.0000 
@<TRIPOS>BOND
@<TRIPOS>SUBSTRUCTURE
     1 ALC1       16 GROUP        1 X    ALC  0     ROOT ALC X 1
     2 SEC2        1 GROUP        1 X    SEC  0     **** SEC X 2
     3 LYC4       87 GROUP        1 X    LYC  0     **** LYC X 4
     4 GLC5        7 GROUP        1 X    GLC  0     **** GLC X 6
     5 ALP1       18 GROUP        1 Y    ALP  0     ROOT ALP Y 8
     6 SEP2        3 GROUP        1 Y    SEP  0     **** SEP Y 9
     7 LYP4       89 GROUP        1 Y    LYP  0     **** LYP Y 11
     8 GLP5        9 GROUP        1 Y    GLP  0     **** GLP Y 13
     9 ALL1       17 GROUP        1 Z    ALL  0     ROOT ALL Z 15
    10 SEL2        2 GROUP        1 Z    SEL  0     **** SEL Z 16
    11 LYL4       88 GROUP        1 Z    LYL  0     **** LYL Z 18
    12 GLL5        8 GROUP        1 Z    GLL  0     **** GLL Z 20
@<TRIPOS>SET

