#    Name: 3o4r_NAP_4_ligand
#    Modification time : Tue Mar 25 03:14:47 2014

@<TRIPOS>MOLECULE
3o4r_NAP_4_ligand
   73    77     1     0     0
SMALL
NO_CHARGES


@<TRIPOS>ATOM
      1 PA         50.9510   14.0490   32.0470 P.3       1 NAP603      0.0000 
      2 O1A        52.3350   13.5910   31.7220 O.co2     1 NAP603      0.0000 
      3 O2A        50.6480   15.5320   31.9530 O.co2     1 NAP603      0.0000 
      4 O5B        50.6980   13.7010   33.5790 O.3       1 NAP603      0.0000 
      5 C5B        50.7780   12.3150   33.9370 C.3       1 NAP603      0.0000 
      6 C4B        50.5210   12.1440   35.4060 C.3       1 NAP603      0.0000 
      7 O4B        50.4890   10.7400   35.6700 O.3       1 NAP603      0.0000 
      8 C3B        51.6150   12.6890   36.3110 C.3       1 NAP603      0.0000 
      9 O3B        50.9350   13.2920   37.4210 O.3       1 NAP603      0.0000 
     10 C2B        52.4180   11.4840   36.7690 C.3       1 NAP603      0.0000 
     11 O2B        53.0020   11.7520   38.0520 O.3       1 NAP603      0.0000 
     12 C1B        51.3000   10.4690   36.8190 C.3       1 NAP603      0.0000 
     13 N9A        51.6370    9.0150   36.7590 N.pl3     1 NAP603      0.0000 
     14 C8A        52.3340    8.3820   35.8190 C.2       1 NAP603      0.0000 
     15 N7A        52.3630    7.0260   36.1260 N.2       1 NAP603      0.0000 
     16 C5A        51.6630    6.8790   37.2640 C.ar      1 NAP603      0.0000 
     17 C6A        51.3290    5.8100   38.0680 C.ar      1 NAP603      0.0000 
     18 N6A        51.7500    4.5670   37.7310 N.pl3     1 NAP603      0.0000 
     19 N1A        50.5730    5.9980   39.1620 N.ar      1 NAP603      0.0000 
     20 C2A        50.1550    7.2140   39.5170 C.ar      1 NAP603      0.0000 
     21 N3A        50.4660    8.2750   38.7690 N.ar      1 NAP603      0.0000 
     22 C4A        51.2040    8.1370   37.6560 C.ar      1 NAP603      0.0000 
     23 O3         49.9920   13.0500   31.2200 O.3       1 NAP603      0.0000 
     24 PN         48.4610   13.2570   30.7040 P.3       1 NAP603      0.0000 
     25 O1N        48.5090   13.4380   29.2200 O.co2     1 NAP603      0.0000 
     26 O2N        47.7400   14.2540   31.5680 O.co2     1 NAP603      0.0000 
     27 O5D        48.0120   11.7120   30.8000 O.3       1 NAP603      0.0000 
     28 C5D        47.0700   11.2330   31.7450 C.3       1 NAP603      0.0000 
     29 C4D        46.0190   10.3620   31.0630 C.3       1 NAP603      0.0000 
     30 O4D        45.5180   11.0050   29.8910 O.3       1 NAP603      0.0000 
     31 C3D        46.5120    8.9960   30.6340 C.3       1 NAP603      0.0000 
     32 O3D        45.5730    8.0070   31.0810 O.3       1 NAP603      0.0000 
     33 C2D        46.5160    9.0670   29.1340 C.3       1 NAP603      0.0000 
     34 O2D        46.3120    7.7770   28.5580 O.3       1 NAP603      0.0000 
     35 C1D        45.3600   10.0040   28.8870 C.3       1 NAP603      0.0000 
     36 N1N        45.3580   10.6000   27.5530 N.pl3     1 NAP603      0.0000 
     37 C2N        46.2270   11.5850   27.2380 C.ar      1 NAP603      0.0000 
     38 C3N        46.1910   12.1510   25.9670 C.ar      1 NAP603      0.0000 
     39 C7N        47.1480   13.2300   25.5650 C.2       1 NAP603      0.0000 
     40 O7N        47.9620   13.8410   26.4470 O.2       1 NAP603      0.0000 
     41 N7N        47.1830   13.5100   24.2840 N.am      1 NAP603      0.0000 
     42 C4N        45.2680   11.6910   25.0310 C.ar      1 NAP603      0.0000 
     43 C5N        44.3840   10.6880   25.3870 C.ar      1 NAP603      0.0000 
     44 C6N        44.4520   10.1540   26.6710 C.ar      1 NAP603      0.0000 
     45 P2B        54.2680   10.9410   38.6440 P.3       1 NAP603      0.0000 
     46 O1X        55.2920   10.9950   37.5470 O.co2     1 NAP603      0.0000 
     47 O2X        54.5860   11.6840   39.9120 O.co2     1 NAP603      0.0000 
     48 O3X        53.7870    9.5280   38.8850 O.co2     1 NAP603      0.0000 
     49 H          51.7712   11.9022   33.7071 H         1 NAP603      0.0000 
     50 H          50.0388   11.7184   33.3826 H         1 NAP603      0.0000 
     51 H          49.5889   12.5891   35.6759 H         1 NAP603      0.0000 
     52 H          52.2109   13.3490   35.7750 H         1 NAP603      0.0000 
     53 H          53.0862   11.2293   36.0126 H         1 NAP603      0.0000 
     54 H          50.6925   10.6637   37.7065 H         1 NAP603      0.0000 
     55 H          52.7594    8.7655   35.0449 H         1 NAP603      0.0000 
     56 H          52.2959    4.4987   36.8960 H         1 NAP603      0.0000 
     57 H          51.4775    3.8280   38.3472 H         1 NAP603      0.0000 
     58 H          49.5810    7.3371   40.3852 H         1 NAP603      0.0000 
     59 H          46.5413   12.0560   32.2512 H         1 NAP603      0.0000 
     60 H          47.5478   10.6243   32.5287 H         1 NAP603      0.0000 
     61 H          45.1926   10.2083   31.7681 H         1 NAP603      0.0000 
     62 H          47.4830    8.8510   30.9903 H         1 NAP603      0.0000 
     63 H          47.4087    9.5459   28.8259 H         1 NAP603      0.0000 
     64 H          44.4475    9.4534   29.0690 H         1 NAP603      0.0000 
     65 H          46.9194   11.9283   27.9214 H         1 NAP603      0.0000 
     66 H          47.8066   14.2423   24.0105 H         1 NAP603      0.0000 
     67 H          46.5829   12.9655   23.6980 H         1 NAP603      0.0000 
     68 H          45.2471   12.0940   24.0893 H         1 NAP603      0.0000 
     69 H          43.6906   10.3418   24.7209 H         1 NAP603      0.0000 
     70 H          43.7807    9.3994   26.9276 H         1 NAP603      0.0000 
     71 H          51.6608   13.5587   38.0551 H         1 NAP603      0.0000 
     72 H          45.1314    8.4126   31.8813 H         1 NAP603      0.0000 
     73 H          46.4650    7.9042   27.5780 H         1 NAP603      0.0000 
@<TRIPOS>BOND
     1    2    1 ar   
     2    3    1 ar   
     3    4    1 1    
     4   23    1 1    
     5    5    4 1    
     6    6    5 1    
     7   49    5 1    
     8   50    5 1    
     9    7    6 1    
    10    8    6 1    
    11   51    6 1    
    12   12    7 1    
    13    9    8 1    
    14   10    8 1    
    15   52    8 1    
    16   71    9 1    
    17   11   10 1    
    18   12   10 1    
    19   53   10 1    
    20   45   11 1    
    21   13   12 1    
    22   54   12 1    
    23   14   13 1    
    24   22   13 1    
    25   15   14 2    
    26   55   14 1    
    27   16   15 1    
    28   17   16 ar   
    29   22   16 ar   
    30   18   17 1    
    31   19   17 ar   
    32   56   18 1    
    33   57   18 1    
    34   20   19 ar   
    35   21   20 ar   
    36   58   20 1    
    37   22   21 ar   
    38   24   23 1    
    39   25   24 ar   
    40   26   24 ar   
    41   27   24 1    
    42   28   27 1    
    43   29   28 1    
    44   59   28 1    
    45   60   28 1    
    46   30   29 1    
    47   31   29 1    
    48   61   29 1    
    49   35   30 1    
    50   32   31 1    
    51   33   31 1    
    52   62   31 1    
    53   72   32 1    
    54   34   33 1    
    55   35   33 1    
    56   63   33 1    
    57   73   34 1    
    58   36   35 1    
    59   64   35 1    
    60   37   36 ar   
    61   44   36 ar   
    62   38   37 ar   
    63   65   37 1    
    64   39   38 1    
    65   42   38 ar   
    66   40   39 2    
    67   41   39 am   
    68   66   41 1    
    69   67   41 1    
    70   43   42 ar   
    71   68   42 1    
    72   44   43 ar   
    73   69   43 1    
    74   70   44 1    
    75   46   45 ar   
    76   47   45 ar   
    77   48   45 ar   
@<TRIPOS>SUBSTRUCTURE
     1 NAP603      1 GROUP   
@<TRIPOS>SET

