#    Name: 2q0c_CTP_1_INTS_M
#    Modification time : Mon Mar 24 20:15:43 2014

@<TRIPOS>MOLECULE
2q0c_CTP_1_INTS_M
   62     0    15     0     0
SMALL
NO_CHARGES


@<TRIPOS>ATOM
      1 N          26.8025   17.9015  -50.5555 N.am      2 SEC2        0.0000 
      2 N          26.4690   18.9510  -51.5840 N.am     12 SEL2        0.0000 
      3 N          27.1360   16.8520  -49.5270 N.am      7 SEP2        0.0000 
      4 CA         22.4495   19.4420  -51.1410 C.3       5 GLC5        0.0000 
      5 CA         24.2380   20.0960  -50.4980 C.3      15 GLL5        0.0000 
      6 CA         20.6610   18.7880  -51.7840 C.3      10 GLP5        0.0000 
      7 CA         23.8120   17.9780  -51.0580 C.3       5 GLC5        0.0000 
      8 CA         23.3860   15.8600  -51.6180 C.3      10 GLP5        0.0000 
      9 CA         26.0400   20.5150  -48.1835 C.3       5 GLC5        0.0000 
     10 CA         24.4230   19.6340  -49.0480 C.3      15 GLL5        0.0000 
     11 CA         27.6570   21.3960  -47.3190 C.3      10 GLP5        0.0000 
     12 N          22.9840   17.5305  -47.8900 N.am      2 SEC2        0.0000 
     13 N          24.0880   18.2570  -48.9510 N.am     12 SEL2        0.0000 
     14 N          21.8800   16.8040  -46.8290 N.am      7 SEP2        0.0000 
     15 O          24.8420   17.5095  -48.4295 O.2       1 ALC1        0.0000 
     16 O          24.0880   18.2570  -48.9510 O.2      11 ALL1        0.0000 
     17 O          25.5960   16.7620  -47.9080 O.2       6 ALP1        0.0000 
     18 CA         25.1765   21.5845  -47.6330 C.3       5 GLC5        0.0000 
     19 CA         23.4750   20.4970  -48.2540 C.3      15 GLL5        0.0000 
     20 CA         26.8780   22.6720  -47.0120 C.3      10 GLP5        0.0000 
     21 O          22.4535   18.3265  -46.9440 O.2       1 ALC1        0.0000 
     22 O          23.0270   19.8490  -47.0590 O.2      11 ALL1        0.0000 
     23 O          21.8800   16.8040  -46.8290 O.2       6 ALP1        0.0000 
     24 Zn         20.0145   24.7200  -48.1925 Zn        4 ZIC7        0.0000 
     25 Zn         21.2340   25.0020  -48.4570 Zn       14 ZIL7        0.0000 
     26 Zn         18.7950   24.4380  -47.9280 Zn        9 ZIP7        0.0000 
     27 Zn         19.4400   23.8510  -47.0500 Zn        4 ZIC7        0.0000 
     28 Zn         20.0850   23.2640  -46.1720 Zn       14 ZIL7        0.0000 
     29 N          19.6085   22.1215  -45.4250 N.am      2 SEC2        0.0000 
     30 N          20.0850   23.2640  -46.1720 N.am     12 SEL2        0.0000 
     31 N          19.1320   20.9790  -44.6780 N.am      7 SEP2        0.0000 
     32 N          21.9240   23.2760  -43.0085 N.am      2 SEC2        0.0000 
     33 N          21.7990   22.9980  -44.2480 N.am     12 SEL2        0.0000 
     34 N          22.0490   23.5540  -41.7690 N.am      7 SEP2        0.0000 
     35 N          20.6025   25.4575  -43.0075 N.am      2 SEC2        0.0000 
     36 N          21.0150   25.3170  -44.6620 N.am     12 SEL2        0.0000 
     37 N          20.1900   25.5980  -41.3530 N.am      7 SEP2        0.0000 
     38 NZ         20.5045   28.9025  -44.5745 N.4       3 LYC4        0.0000 
     39 NZ         20.7670   27.7520  -45.2940 N.4      13 LYL4        0.0000 
     40 NZ         20.2420   30.0530  -43.8550 N.4       8 LYP4        0.0000 
     41 N          20.5045   28.9025  -44.5745 N.am      2 SEC2        0.0000 
     42 N          20.7670   27.7520  -45.2940 N.am     12 SEL2        0.0000 
     43 N          20.2420   30.0530  -43.8550 N.am      7 SEP2        0.0000 
     44 N          22.1420   27.7975  -44.9060 N.am      2 SEC2        0.0000 
     45 N          23.5170   27.8430  -44.5180 N.am      7 SEP2        0.0000 
     46 NZ         19.6570   26.1855  -42.5520 N.4       3 LYC4        0.0000 
     47 NZ         19.1240   26.7730  -43.7510 N.4      13 LYL4        0.0000 
     48 NZ         20.1900   25.5980  -41.3530 N.4       8 LYP4        0.0000 
     49 NZ         19.6830   28.4130  -43.8030 N.4       3 LYC4        0.0000 
     50 N          17.8360   26.9690  -43.4820 N.am      2 SEC2        0.0000 
     51 N          19.1240   26.7730  -43.7510 N.am     12 SEL2        0.0000 
     52 N          16.5480   27.1650  -43.2130 N.am      7 SEP2        0.0000 
     53 N          19.6570   26.1855  -42.5520 N.am      2 SEC2        0.0000 
     54 Zn         18.9805   25.1830  -47.0440 Zn        4 ZIC7        0.0000 
     55 Zn         19.1660   25.9280  -46.1600 Zn       14 ZIL7        0.0000 
     56 CA         26.4905   22.6025  -48.8715 C.3       5 GLC5        0.0000 
     57 CA         25.5310   22.1710  -50.5790 C.3      15 GLL5        0.0000 
     58 CA         21.3633   20.1300  -50.4567 C.3       5 GLC5        0.0000 
     59 CA         22.3840   20.8110  -49.2760 C.3      15 GLL5        0.0000 
     60 CA         21.0221   20.5892  -47.8120 C.3       5 GLC5        0.0000 
     61 CA         21.7470   22.1330  -48.9830 C.3      15 GLL5        0.0000 
     62 CA         19.7060   19.7850  -46.7500 C.3      10 GLP5        0.0000 
@<TRIPOS>BOND
@<TRIPOS>SUBSTRUCTURE
     1 ALC1       15 GROUP        1 X    ALC  0     ROOT ALC X 1
     2 SEC2        1 GROUP        1 X    SEC  0     **** SEC X 2
     3 LYC4       38 GROUP        1 X    LYC  0     **** LYC X 4
     4 ZIC7       24 GROUP        1 X    ZIC  0     **** ZIC X 5
     5 GLC5        4 GROUP        1 X    GLC  0     **** GLC X 6
     6 ALP1       17 GROUP        1 Y    ALP  0     ROOT ALP Y 8
     7 SEP2        3 GROUP        1 Y    SEP  0     **** SEP Y 9
     8 LYP4       40 GROUP        1 Y    LYP  0     **** LYP Y 11
     9 ZIP7       26 GROUP        1 Y    ZIP  0     **** ZIP Y 12
    10 GLP5        6 GROUP        1 Y    GLP  0     **** GLP Y 13
    11 ALL1       16 GROUP        1 Z    ALL  0     ROOT ALL Z 15
    12 SEL2        2 GROUP        1 Z    SEL  0     **** SEL Z 16
    13 LYL4       39 GROUP        1 Z    LYL  0     **** LYL Z 18
    14 ZIL7       25 GROUP        1 Z    ZIL  0     **** ZIL Z 19
    15 GLL5        5 GROUP        1 Z    GLL  0     **** GLL Z 20
@<TRIPOS>SET

