#    Name: 2q0c_CTP_1_ligand
#    Modification time : Mon Mar 24 20:15:43 2014

@<TRIPOS>MOLECULE
2q0c_CTP_1_ligand
   41    42     1     0     0
SMALL
NO_CHARGES


@<TRIPOS>ATOM
      1 N1         25.4600   20.8450  -50.8250 N.am      1 CTP501      0.0000 
      2 C2         26.5210   20.1860  -51.3510 C.2       1 CTP501      0.0000 
      3 N3         27.6520   20.8540  -51.6580 N.2       1 CTP501      0.0000 
      4 C4         27.7660   22.1910  -51.4220 C.2       1 CTP501      0.0000 
      5 C5         26.6750   22.8950  -50.8830 C.2       1 CTP501      0.0000 
      6 C6         25.5310   22.1710  -50.5790 C.2       1 CTP501      0.0000 
      7 O2         26.4690   18.9510  -51.5840 O.2       1 CTP501      0.0000 
      8 N4         28.9450   22.8360  -51.7200 N.pl3     1 CTP501      0.0000 
      9 C1'        24.2380   20.0960  -50.4980 C.3       1 CTP501      0.0000 
     10 C2'        24.4230   19.6340  -49.0480 C.3       1 CTP501      0.0000 
     11 O2'        24.0880   18.2570  -48.9510 O.3       1 CTP501      0.0000 
     12 C3'        23.4750   20.4970  -48.2540 C.3       1 CTP501      0.0000 
     13 C4'        22.3840   20.8110  -49.2760 C.3       1 CTP501      0.0000 
     14 O4'        23.0350   20.8990  -50.5440 O.3       1 CTP501      0.0000 
     15 O3'        23.0270   19.8490  -47.0590 O.3       1 CTP501      0.0000 
     16 C5'        21.7470   22.1330  -48.9830 C.3       1 CTP501      0.0000 
     17 O5'        22.7790   23.1110  -48.8550 O.3       1 CTP501      0.0000 
     18 PA         22.5670   24.4450  -47.9600 P.3       1 CTP501      0.0000 
     19 O1A        21.2340   25.0020  -48.4570 O.co2     1 CTP501      0.0000 
     20 O2A        23.8120   25.2810  -47.9870 O.co2     1 CTP501      0.0000 
     21 O3A        22.5160   23.9240  -46.4260 O.3       1 CTP501      0.0000 
     22 PB         21.2610   23.8490  -45.3910 P.3       1 CTP501      0.0000 
     23 O1B        20.0850   23.2640  -46.1720 O.co2     1 CTP501      0.0000 
     24 O2B        21.7990   22.9980  -44.2480 O.co2     1 CTP501      0.0000 
     25 O3B        21.0150   25.3170  -44.6620 O.3       1 CTP501      0.0000 
     26 PG         19.9470   26.5330  -44.9950 P.3       1 CTP501      0.0000 
     27 O1G        20.7670   27.7520  -45.2940 O.co2     1 CTP501      0.0000 
     28 O2G        19.1240   26.7730  -43.7510 O.co2     1 CTP501      0.0000 
     29 O3G        19.1660   25.9280  -46.1600 O.co2     1 CTP501      0.0000 
     30 H          26.7304   23.8903  -50.7262 H         1 CTP501      0.0000 
     31 H          24.7220   22.6736  -50.1542 H         1 CTP501      0.0000 
     32 H          29.6825   22.2623  -52.0763 H         1 CTP501      0.0000 
     33 H          28.9612   23.8220  -51.5542 H         1 CTP501      0.0000 
     34 H          24.1599   19.2199  -51.0982 H         1 CTP501      0.0000 
     35 H          25.4188   19.8525  -48.7621 H         1 CTP501      0.0000 
     36 H          23.9971   21.4299  -48.0553 H         1 CTP501      0.0000 
     37 H          21.6626   20.0378  -49.2599 H         1 CTP501      0.0000 
     38 H          21.1641   22.0439  -48.0619 H         1 CTP501      0.0000 
     39 H          21.0615   22.3794  -49.7988 H         1 CTP501      0.0000 
     40 H          24.9616   17.7736  -49.0083 H         1 CTP501      0.0000 
     41 H          22.9295   18.8854  -47.3082 H         1 CTP501      0.0000 
@<TRIPOS>BOND
     1    2    1 am   
     2    6    1 1    
     3    9    1 1    
     4    3    2 1    
     5    7    2 2    
     6    4    3 2    
     7    5    4 1    
     8    8    4 1    
     9    6    5 2    
    10   30    5 1    
    11   31    6 1    
    12   32    8 1    
    13   33    8 1    
    14   10    9 1    
    15   14    9 1    
    16   34    9 1    
    17   11   10 1    
    18   12   10 1    
    19   35   10 1    
    20   40   11 1    
    21   13   12 1    
    22   15   12 1    
    23   36   12 1    
    24   14   13 1    
    25   16   13 1    
    26   37   13 1    
    27   41   15 1    
    28   17   16 1    
    29   38   16 1    
    30   39   16 1    
    31   18   17 1    
    32   19   18 ar   
    33   20   18 ar   
    34   21   18 1    
    35   22   21 1    
    36   23   22 ar   
    37   24   22 ar   
    38   25   22 1    
    39   26   25 1    
    40   27   26 ar   
    41   28   26 ar   
    42   29   26 ar   
@<TRIPOS>SUBSTRUCTURE
     1 CTP501      1 GROUP   
@<TRIPOS>SET

