#    Name: 4dld_TZG_1_INTS_M
#    Modification time : Mon Apr  7 22:50:10 2014

@<TRIPOS>MOLECULE
4dld_TZG_1_INTS_M
   61     0    15     0     0
SMALL
NO_CHARGES


@<TRIPOS>ATOM
      1 CA         -2.0680   32.7430  101.6850 C.3       5 GLC5        0.0000 
      2 CA         -2.0590   33.7680  102.9980 C.3      15 GLL5        0.0000 
      3 CA         -2.0770   31.7180  100.3720 C.3      10 GLP5        0.0000 
      4 CA         -3.4265   33.0690  102.7905 C.3       5 GLC5        0.0000 
      5 CA         -2.6130   34.6330  104.1570 C.3      15 GLL5        0.0000 
      6 CA         -4.2400   31.5050  101.4240 C.3      10 GLP5        0.0000 
      7 CA         -3.9210   36.0655  104.4185 C.3       5 GLC5        0.0000 
      8 CA         -5.2290   37.4980  104.6800 C.3      10 GLP5        0.0000 
      9 CA         -0.9410   38.7480   99.6640 C.3       5 GLC5        0.0000 
     10 CA         -1.0050   37.6500  101.1960 C.3      15 GLL5        0.0000 
     11 CA         -0.8770   39.8460   98.1320 C.3      10 GLP5        0.0000 
     12 NZ         -6.2735   34.3905  103.7610 N.4       4 LYC4        0.0000 
     13 NZ         -4.8960   34.6360  103.5290 N.4      14 LYL4        0.0000 
     14 NZ         -7.9490   33.7840  105.2340 N.4       9 LYP4        0.0000 
     15 N          -5.9405   34.1470  104.8355 N.am      2 SEC2        0.0000 
     16 N          -4.8960   34.6360  103.5290 N.am     12 SEL2        0.0000 
     17 N          -6.9850   33.6580  106.1420 N.am      7 SEP2        0.0000 
     18 N          -6.2735   34.3905  103.7610 N.am      2 SEC2        0.0000 
     19 N          -7.6510   34.1450  103.9930 N.am      7 SEP2        0.0000 
     20 NZ         -5.6375   33.5755  105.7430 N.4       4 LYC4        0.0000 
     21 NZ         -4.2900   33.4930  105.3440 N.4      14 LYL4        0.0000 
     22 N          -4.2720   32.9365  106.5850 N.am      2 SEC2        0.0000 
     23 N          -4.2900   33.4930  105.3440 N.am     12 SEL2        0.0000 
     24 N          -4.2540   32.3800  107.8260 N.am      7 SEP2        0.0000 
     25 N          -5.6375   33.5755  105.7430 N.am      2 SEC2        0.0000 
     26 OD1        -0.7130   35.0190  105.8370 O.co2     3 ASC3        0.0000 
     27 OD1        -1.8730   34.3300  105.3870 O.co2    13 ASL3        0.0000 
     28 OD1         0.4470   35.7080  106.2870 O.co2     8 ASP3        0.0000 
     29 OD1        -1.5585   35.5975  106.2430 O.co2     3 ASC3        0.0000 
     30 OD1        -1.2440   36.8650  107.0990 O.co2     8 ASP3        0.0000 
     31 O          -1.6635   32.8115  105.5035 O.2       1 ALC1        0.0000 
     32 O          -1.8730   34.3300  105.3870 O.2      11 ALL1        0.0000 
     33 O          -1.4540   31.2930  105.6200 O.2       6 ALP1        0.0000 
     34 O          -2.4220   34.6245  106.6225 O.2       1 ALC1        0.0000 
     35 O          -2.9710   34.9190  107.8580 O.2       6 ALP1        0.0000 
     36 O          -0.7130   35.0190  105.8370 O.2       1 ALC1        0.0000 
     37 O           0.4470   35.7080  106.2870 O.2       6 ALP1        0.0000 
     38 CA          2.9670   31.7230  102.2320 C.3       5 GLC5        0.0000 
     39 CA          2.9310   32.7310  103.8120 C.3      15 GLL5        0.0000 
     40 CA          3.0030   30.7150  100.6520 C.3      10 GLP5        0.0000 
     41 CA          3.9015   31.5700  104.5200 C.3       5 GLC5        0.0000 
     42 CA          4.8720   30.4090  105.2280 C.3      10 GLP5        0.0000 
     43 CA          2.0085   31.4705  104.7280 C.3       5 GLC5        0.0000 
     44 CA          1.0860   30.2100  105.6440 C.3      10 GLP5        0.0000 
     45 CA          2.1690   32.9215  105.8785 C.3       5 GLC5        0.0000 
     46 CA          1.4070   33.1120  107.9450 C.3      10 GLP5        0.0000 
     47 N           3.4445   36.7050  100.4125 N.am      2 SEC2        0.0000 
     48 N           3.5940   36.5220  101.7250 N.am     12 SEL2        0.0000 
     49 N           3.2950   36.8880   99.1000 N.am      7 SEP2        0.0000 
     50 N          -3.1870   39.2230  103.5385 N.am      2 SEC2        0.0000 
     51 N          -2.4750   38.0500  103.0290 N.am     12 SEL2        0.0000 
     52 N          -3.8990   40.3960  104.0480 N.am      7 SEP2        0.0000 
     53 N          -1.7690   39.3640  103.8840 N.am      2 SEC2        0.0000 
     54 N          -1.0630   40.6780  104.7390 N.am      7 SEP2        0.0000 
     55 N          -0.7740   39.8505  103.9005 N.am      2 SEC2        0.0000 
     56 N          -0.4850   39.0230  103.0620 N.am     12 SEL2        0.0000 
     57 CA          1.0908   31.5912  103.7223 C.3       5 GLC5        0.0000 
     58 CA          0.3810   33.4090  103.2700 C.3      15 GLL5        0.0000 
     59 CA          1.1330   29.6200  104.2790 C.3      10 GLP5        0.0000 
     60 CA          2.4400   32.4873  101.6558 C.3       5 GLC5        0.0000 
     61 CA          1.7160   33.7160  103.0610 C.3      15 GLL5        0.0000 
@<TRIPOS>BOND
@<TRIPOS>SUBSTRUCTURE
     1 ALC1       31 GROUP        1 X    ALC  0     ROOT ALC X 1
     2 SEC2       15 GROUP        1 X    SEC  0     **** SEC X 2
     3 ASC3       26 GROUP        1 X    ASC  0     **** ASC X 3
     4 LYC4       12 GROUP        1 X    LYC  0     **** LYC X 4
     5 GLC5        1 GROUP        1 X    GLC  0     **** GLC X 6
     6 ALP1       33 GROUP        1 Y    ALP  0     ROOT ALP Y 8
     7 SEP2       17 GROUP        1 Y    SEP  0     **** SEP Y 9
     8 ASP3       28 GROUP        1 Y    ASP  0     **** ASP Y 10
     9 LYP4       14 GROUP        1 Y    LYP  0     **** LYP Y 11
    10 GLP5        3 GROUP        1 Y    GLP  0     **** GLP Y 13
    11 ALL1       32 GROUP        1 Z    ALL  0     ROOT ALL Z 15
    12 SEL2       16 GROUP        1 Z    SEL  0     **** SEL Z 16
    13 ASL3       27 GROUP        1 Z    ASL  0     **** ASL Z 17
    14 LYL4       13 GROUP        1 Z    LYL  0     **** LYL Z 18
    15 GLL5        2 GROUP        1 Z    GLL  0     **** GLL Z 20
@<TRIPOS>SET

