#    Name: 4dld_TZG_1_ligand
#    Modification time : Mon Apr  7 22:50:10 2014

@<TRIPOS>MOLECULE
4dld_TZG_1_ligand
   33    33     1     0     0
SMALL
NO_CHARGES


@<TRIPOS>ATOM
      1 N1          3.3020   35.1610  102.0110 N.pl3     1 TZG301      0.0000 
      2 C4          0.3810   33.4090  103.2700 C.ar      1 TZG301      0.0000 
      3 C5          1.7160   33.7160  103.0610 C.ar      1 TZG301      0.0000 
      4 C6          2.0380   34.8030  102.2580 C.ar      1 TZG301      0.0000 
      5 C7         -2.0590   33.7680  102.9980 C.3       1 TZG301      0.0000 
      6 C8         -2.6130   34.6330  104.1570 C.3       1 TZG301      0.0000 
      7 C10        -1.0050   37.6500  101.1960 C.3       1 TZG301      0.0000 
      8 O4         -4.8960   34.6360  103.5290 O.co2     1 TZG301      0.0000 
      9 C12        -4.0640   34.2360  104.3720 C.2       1 TZG301      0.0000 
     10 O5         -4.2900   33.4930  105.3440 O.co2     1 TZG301      0.0000 
     11 N2         -1.8730   34.3300  105.3870 N.4       1 TZG301      0.0000 
     12 C3         -0.6270   34.1780  102.6990 C.ar      1 TZG301      0.0000 
     13 CL1         2.9310   32.7310  103.8120 Cl        1 TZG301      0.0000 
     14 O1          3.5940   36.5220  101.7250 O.2       1 TZG301      0.0000 
     15 O2          4.3420   34.2130  101.9890 O.2       1 TZG301      0.0000 
     16 C1          1.0330   35.5630  101.6850 C.ar      1 TZG301      0.0000 
     17 C2         -0.3070   35.2710  101.9000 C.ar      1 TZG301      0.0000 
     18 C9         -1.3600   36.1580  101.2080 C.3       1 TZG301      0.0000 
     19 C11        -1.3510   38.2940  102.5460 C.2       1 TZG301      0.0000 
     20 O7         -2.4750   38.0500  103.0290 O.co2     1 TZG301      0.0000 
     21 O6         -0.4850   39.0230  103.0620 O.co2     1 TZG301      0.0000 
     22 H           0.1283   32.5958  103.8594 H         1 TZG301      0.0000 
     23 H          -2.6768   33.9217  102.1233 H         1 TZG301      0.0000 
     24 H          -2.0906   32.7280  103.2944 H         1 TZG301      0.0000 
     25 H          -2.5534   35.6458  103.8953 H         1 TZG301      0.0000 
     26 H          -1.5657   38.1456  100.4095 H         1 TZG301      0.0000 
     27 H           0.0580   37.7640  101.0077 H         1 TZG301      0.0000 
     28 H           1.2853   36.3702  101.0803 H         1 TZG301      0.0000 
     29 H          -1.4871   35.8117  100.1716 H         1 TZG301      0.0000 
     30 H          -2.3252   36.0236  101.7184 H         1 TZG301      0.0000 
     31 H          -2.4403   34.4522  106.2014 H         1 TZG301      0.0000 
     32 H          -1.5427   33.3861  105.3988 H         1 TZG301      0.0000 
     33 H          -1.0739   34.9215  105.4950 H         1 TZG301      0.0000 
@<TRIPOS>BOND
     1    4    1 1    
     2   14    1 2    
     3   15    1 2    
     4    3    2 ar   
     5   12    2 ar   
     6   22    2 1    
     7    4    3 ar   
     8   13    3 1    
     9   16    4 ar   
    10    6    5 1    
    11   12    5 1    
    12   23    5 1    
    13   24    5 1    
    14    9    6 1    
    15   11    6 1    
    16   25    6 1    
    17   18    7 1    
    18   19    7 1    
    19   26    7 1    
    20   27    7 1    
    21    9    8 ar   
    22   10    9 ar   
    23   31   11 1    
    24   32   11 1    
    25   33   11 1    
    26   17   12 ar   
    27   17   16 ar   
    28   28   16 1    
    29   18   17 1    
    30   29   18 1    
    31   30   18 1    
    32   20   19 ar   
    33   21   19 ar   
@<TRIPOS>SUBSTRUCTURE
     1 TZG301      1 GROUP   
@<TRIPOS>SET

