#    Name: 4ijp_1EH_1_INTS_M
#    Modification time : Tue Mar 25 04:07:24 2014

@<TRIPOS>MOLECULE
4ijp_1EH_1_INTS_M
   64     0     9     0     0
SMALL
NO_CHARGES


@<TRIPOS>ATOM
      1 CA        -17.8495  -32.6950   20.1705 C.3       3 GLC5        0.0000 
      2 CA        -18.0010  -31.9730   18.2200 C.3       9 GLL5        0.0000 
      3 CA        -17.6980  -33.4170   22.1210 C.3       6 GLP5        0.0000 
      4 CA        -19.1035  -35.0325   21.1215 C.3       3 GLC5        0.0000 
      5 CA        -19.9870  -35.0570   19.6050 C.3       9 GLL5        0.0000 
      6 CA        -18.2200  -35.0080   22.6380 C.3       6 GLP5        0.0000 
      7 CA        -20.9980  -35.3700   21.3390 C.3       3 GLC5        0.0000 
      8 CA        -22.0090  -35.6830   23.0730 C.3       6 GLP5        0.0000 
      9 O         -23.4025  -32.6215   20.7950 O.2       1 ALC1        0.0000 
     10 O         -23.5570  -31.9150   19.5560 O.2       7 ALL1        0.0000 
     11 O         -23.2480  -33.3280   22.0340 O.2       4 ALP1        0.0000 
     12 O         -24.2160  -33.1720   20.2975 O.2       1 ALC1        0.0000 
     13 O         -24.8750  -34.4290   21.0390 O.2       4 ALP1        0.0000 
     14 N         -22.0460  -29.4915   17.3620 N.am      2 SEC2        0.0000 
     15 N         -22.7370  -30.3060   18.1900 N.am      8 SEL2        0.0000 
     16 N         -21.3550  -28.6770   16.5340 N.am      5 SEP2        0.0000 
     17 CA        -25.5795  -21.5790   22.1205 C.3       3 GLC5        0.0000 
     18 CA        -25.3250  -23.4910   22.3460 C.3       9 GLL5        0.0000 
     19 CA        -25.8340  -19.6670   21.8950 C.3       6 GLP5        0.0000 
     20 CA        -27.6300  -24.6080   25.2060 C.3       3 GLC5        0.0000 
     21 CA        -27.9380  -24.2280   23.0560 C.3       9 GLL5        0.0000 
     22 CA        -27.3220  -24.9880   27.3560 C.3       6 GLP5        0.0000 
     23 CA        -25.9270  -27.2330   23.7165 C.3       3 GLC5        0.0000 
     24 CA        -27.3220  -26.4980   22.3570 C.3       9 GLL5        0.0000 
     25 CA        -24.5320  -27.9680   25.0760 C.3       6 GLP5        0.0000 
     26 CA        -28.0180  -26.2680   24.8780 C.3       3 GLC5        0.0000 
     27 CA        -28.3680  -25.8270   22.8530 C.3       9 GLL5        0.0000 
     28 CA        -27.6680  -26.7090   26.9030 C.3       6 GLP5        0.0000 
     29 N         -31.7860  -24.9825   23.9505 N.am      2 SEC2        0.0000 
     30 N         -30.5640  -25.7530   23.8350 N.am      8 SEL2        0.0000 
     31 N         -33.0080  -24.2120   24.0660 N.am      5 SEP2        0.0000 
     32 CA        -20.0463  -32.4330   20.4435 C.3       3 GLC5        0.0000 
     33 CA        -20.6170  -32.6050   18.5280 C.3       9 GLL5        0.0000 
     34 CA        -20.1370  -32.0550   22.2740 C.3       6 GLP5        0.0000 
     35 CA        -20.8120  -33.0635   20.7398 C.3       3 GLC5        0.0000 
     36 CA        -21.6470  -33.4460   18.9450 C.3       9 GLL5        0.0000 
     37 CA        -22.8045  -34.6390   20.6281 C.3       3 GLC5        0.0000 
     38 CA        -23.3090  -35.7100   22.2820 C.3       6 GLP5        0.0000 
     39 CA        -22.5652  -30.1805   21.6302 C.3       3 GLC5        0.0000 
     40 CA        -23.9400  -29.5810   20.1390 C.3       9 GLL5        0.0000 
     41 CA        -20.7560  -30.6750   22.6240 C.3       6 GLP5        0.0000 
     42 CA        -24.9802  -28.9764   18.7898 C.3       3 GLC5        0.0000 
     43 CA        -25.6450  -28.6800   16.9800 C.3       6 GLP5        0.0000 
     44 CA        -24.7009  -28.1684   23.2157 C.3       3 GLC5        0.0000 
     45 CA        -24.7270  -27.5110   21.2650 C.3       9 GLL5        0.0000 
     46 CA        -22.2260  -24.5675   22.5280 C.3       3 GLC5        0.0000 
     47 CA        -24.0910  -23.9090   21.8580 C.3       9 GLL5        0.0000 
     48 CA        -20.4520  -24.5590   23.3770 C.3       6 GLP5        0.0000 
     49 CA        -24.5590  -22.5230   23.7750 C.3       3 GLC5        0.0000 
     50 CA        -24.4100  -21.3460   25.4480 C.3       6 GLP5        0.0000 
     51 CA        -24.5385  -24.5930   23.6310 C.3       3 GLC5        0.0000 
     52 CA        -24.3690  -25.4860   25.1600 C.3       6 GLP5        0.0000 
     53 CA        -24.6028  -23.1762   20.4102 C.3       3 GLC5        0.0000 
     54 CA        -24.5430  -22.3190   18.8080 C.3       6 GLP5        0.0000 
     55 CA        -27.1380  -25.1005   20.4150 C.3       3 GLC5        0.0000 
     56 CA        -26.3650  -24.4110   22.4840 C.3       9 GLL5        0.0000 
     57 CA        -27.9950  -25.1100   18.5200 C.3       6 GLP5        0.0000 
     58 CA        -27.0018  -23.0128   24.2040 C.3       3 GLC5        0.0000 
     59 CA        -26.8520  -21.7060   25.6380 C.3       6 GLP5        0.0000 
     60 CA        -25.7602  -24.9028   23.9650 C.3       3 GLC5        0.0000 
     61 CA        -24.8394  -25.6138   23.5084 C.3       3 GLC5        0.0000 
     62 CA        -26.1970  -25.7710   22.1360 C.3       9 GLL5        0.0000 
     63 CA        -28.8953  -25.9244   21.1104 C.3       3 GLC5        0.0000 
     64 CA        -30.0530  -26.0860   19.5650 C.3       6 GLP5        0.0000 
@<TRIPOS>BOND
@<TRIPOS>SUBSTRUCTURE
     1 ALC1        9 GROUP        1 X    ALC  0     ROOT ALC X 1
     2 SEC2       14 GROUP        1 X    SEC  0     **** SEC X 2
     3 GLC5        1 GROUP        1 X    GLC  0     **** GLC X 6
     4 ALP1       11 GROUP        1 Y    ALP  0     ROOT ALP Y 8
     5 SEP2       16 GROUP        1 Y    SEP  0     **** SEP Y 9
     6 GLP5        3 GROUP        1 Y    GLP  0     **** GLP Y 13
     7 ALL1       10 GROUP        1 Z    ALL  0     ROOT ALL Z 15
     8 SEL2       15 GROUP        1 Z    SEL  0     **** SEL Z 16
     9 GLL5        2 GROUP        1 Z    GLL  0     **** GLL Z 20
@<TRIPOS>SET

