#    Name: 4ijp_1EH_1_ligand
#    Modification time : Tue Mar 25 04:07:24 2014

@<TRIPOS>MOLECULE
4ijp_1EH_1_ligand
   42    45     1     0     0
SMALL
NO_CHARGES


@<TRIPOS>ATOM
      1 CAB       -20.6170  -32.6050   18.5280 C.ar      1 1EH1101     0.0000 
      2 CAE       -19.2940  -33.0170   18.6980 C.ar      1 1EH1101     0.0000 
      3 CL        -18.0010  -31.9730   18.2200 Cl        1 1EH1101     0.0000 
      4 NAH       -19.0190  -34.2260   19.2320 N.ar      1 1EH1101     0.0000 
      5 CAF       -19.9870  -35.0570   19.6050 C.ar      1 1EH1101     0.0000 
      6 CAC       -21.3270  -34.6980   19.4660 C.ar      1 1EH1101     0.0000 
      7 CAA       -21.6470  -33.4460   18.9450 C.ar      1 1EH1101     0.0000 
      8 CAD       -23.1130  -33.0640   18.7430 C.3       1 1EH1101     0.0000 
      9 NAG       -23.5570  -31.9150   19.5560 N.am      1 1EH1101     0.0000 
     10 CAM       -23.3420  -30.6450   19.2060 C.2       1 1EH1101     0.0000 
     11 OAP       -22.7370  -30.3060   18.1900 O.2       1 1EH1101     0.0000 
     12 CAL       -23.9400  -29.5810   20.1390 C.2       1 1EH1101     0.0000 
     13 SAK       -23.7040  -27.9280   19.9910 S.3       1 1EH1101     0.0000 
     14 CAO       -24.8090  -29.7910   21.1340 C.2       1 1EH1101     0.0000 
     15 CAN       -25.2160  -28.6620   21.7580 C.2       1 1EH1101     0.0000 
     16 CAJ       -24.7270  -27.5110   21.2650 C.2       1 1EH1101     0.0000 
     17 CAV       -24.9360  -26.1810   21.6550 C.ar      1 1EH1101     0.0000 
     18 CAY       -23.9090  -25.2430   21.5000 C.ar      1 1EH1101     0.0000 
     19 CAX       -24.0910  -23.9090   21.8580 C.ar      1 1EH1101     0.0000 
     20 CAT       -25.3250  -23.4910   22.3460 C.ar      1 1EH1101     0.0000 
     21 CAQ       -26.3650  -24.4110   22.4840 C.ar      1 1EH1101     0.0000 
     22 SAS       -27.9380  -24.2280   23.0560 S.3       1 1EH1101     0.0000 
     23 CAR       -26.1970  -25.7710   22.1360 C.ar      1 1EH1101     0.0000 
     24 CAU       -27.3220  -26.4980   22.3570 C.2       1 1EH1101     0.0000 
     25 CAW       -28.3680  -25.8270   22.8530 C.2       1 1EH1101     0.0000 
     26 CAZ       -29.7420  -26.4150   23.2030 C.2       1 1EH1101     0.0000 
     27 OBB       -30.5640  -25.7530   23.8350 O.2       1 1EH1101     0.0000 
     28 NBA       -29.9570  -27.6620   22.7890 N.am      1 1EH1101     0.0000 
     29 H         -20.8257  -31.7006   18.1043 H         1 1EH1101     0.0000 
     30 H         -19.7715  -35.9944   20.0093 H         1 1EH1101     0.0000 
     31 H         -22.0667  -35.3468   19.7435 H         1 1EH1101     0.0000 
     32 H         -23.7343  -33.9545   18.9702 H         1 1EH1101     0.0000 
     33 H         -23.2668  -32.8505   17.6653 H         1 1EH1101     0.0000 
     34 H         -24.0600  -32.1692   20.4398 H         1 1EH1101     0.0000 
     35 H         -25.1349  -30.7024   21.4000 H         1 1EH1101     0.0000 
     36 H         -25.8510  -28.6868   22.5487 H         1 1EH1101     0.0000 
     37 H         -22.9996  -25.5483   21.1125 H         1 1EH1101     0.0000 
     38 H         -23.3202  -23.2404   21.7622 H         1 1EH1101     0.0000 
     39 H         -25.4719  -22.5087   22.6044 H         1 1EH1101     0.0000 
     40 H         -27.3579  -27.4932   22.1544 H         1 1EH1101     0.0000 
     41 H         -29.1871  -28.1155   22.3401 H         1 1EH1101     0.0000 
     42 H         -30.8690  -28.0327   22.9643 H         1 1EH1101     0.0000 
@<TRIPOS>BOND
     1    2    1 ar   
     2    7    1 ar   
     3   29    1 1    
     4    3    2 1    
     5    4    2 ar   
     6    5    4 ar   
     7    6    5 ar   
     8   30    5 1    
     9    7    6 ar   
    10   31    6 1    
    11    8    7 1    
    12    9    8 1    
    13   32    8 1    
    14   33    8 1    
    15   10    9 am   
    16   34    9 1    
    17   11   10 2    
    18   12   10 1    
    19   13   12 1    
    20   14   12 2    
    21   16   13 1    
    22   15   14 1    
    23   35   14 1    
    24   16   15 2    
    25   36   15 1    
    26   17   16 1    
    27   18   17 ar   
    28   23   17 ar   
    29   19   18 ar   
    30   37   18 1    
    31   20   19 ar   
    32   38   19 1    
    33   21   20 ar   
    34   39   20 1    
    35   22   21 1    
    36   23   21 ar   
    37   25   22 1    
    38   24   23 1    
    39   25   24 2    
    40   40   24 1    
    41   26   25 1    
    42   27   26 2    
    43   28   26 am   
    44   41   28 1    
    45   42   28 1    
@<TRIPOS>SUBSTRUCTURE
     1 1EH1101     1 GROUP   
@<TRIPOS>SET

