#    Name: 2bqv_A1A_1_INTS_M
#    Modification time : Mon Mar 24 21:26:11 2014

@<TRIPOS>MOLECULE
2bqv_A1A_1_INTS_M
   93     0     9     0     0
SMALL
NO_CHARGES


@<TRIPOS>ATOM
      1 CA          7.2695   22.5150    1.4530 C.3       3 GLC5        0.0000 
      2 CA          8.5800   24.0050    2.1130 C.3       9 GLL5        0.0000 
      3 CA          5.9590   21.0250    0.7930 C.3       6 GLP5        0.0000 
      4 CA          7.6120   21.4560    2.4000 C.3       3 GLC5        0.0000 
      5 CA          8.8150   22.8880    2.9790 C.3       9 GLL5        0.0000 
      6 CA          6.4090   20.0240    1.8210 C.3       6 GLP5        0.0000 
      7 CA         10.8635   20.7730    3.5325 C.3       3 GLC5        0.0000 
      8 CA         10.1190   22.6700    3.5280 C.3       9 GLL5        0.0000 
      9 CA         11.6080   18.8760    3.5370 C.3       6 GLP5        0.0000 
     10 CA         18.8045   23.6355    8.5130 C.3       3 GLC5        0.0000 
     11 CA         17.6310   22.0230    8.4580 C.3       9 GLL5        0.0000 
     12 CA         19.9780   25.2480    8.5680 C.3       6 GLP5        0.0000 
     13 CA         16.3355   19.8600   12.0570 C.3       3 GLC5        0.0000 
     14 CA         16.6460   20.3730   10.0250 C.3       9 GLL5        0.0000 
     15 CA         16.0250   19.3470   14.0890 C.3       6 GLP5        0.0000 
     16 CA         14.9595   19.9965   11.7055 C.3       3 GLC5        0.0000 
     17 CA         15.3320   20.8570    9.7080 C.3       9 GLL5        0.0000 
     18 CA         14.5870   19.1360   13.7030 C.3       6 GLP5        0.0000 
     19 CA         18.0915   24.4550    7.8415 C.3       3 GLC5        0.0000 
     20 CA         16.2050   23.6620    7.1150 C.3       9 GLL5        0.0000 
     21 CA         15.6575   24.5230    8.8480 C.3       3 GLC5        0.0000 
     22 CA         15.1100   25.3840   10.5810 C.3       6 GLP5        0.0000 
     23 CA         17.7900   24.6645    5.9235 C.3       3 GLC5        0.0000 
     24 CA         19.3750   25.6670    4.7320 C.3       6 GLP5        0.0000 
     25 N          19.9725   20.4315    4.1075 N.am      2 SEC2        0.0000 
     26 N          19.1030   20.1170    5.4440 N.am      8 SEL2        0.0000 
     27 N          20.8420   20.7460    2.7710 N.am      5 SEP2        0.0000 
     28 O          16.3570   18.1975    6.4395 O.2       1 ALC1        0.0000 
     29 O          17.0530   19.1780    5.4240 O.2       7 ALL1        0.0000 
     30 O          15.6610   17.2170    7.4550 O.2       4 ALP1        0.0000 
     31 CA         12.6385   22.5820    2.0230 C.3       3 GLC5        0.0000 
     32 CA         12.6090   23.3500    3.8330 C.3       9 GLL5        0.0000 
     33 CA         12.6680   21.8140    0.2130 C.3       6 GLP5        0.0000 
     34 O          14.2025   25.3805    3.2595 O.2       1 ALC1        0.0000 
     35 O          13.4140   25.5240    4.5570 O.2       7 ALL1        0.0000 
     36 O          14.9910   25.2370    1.9620 O.2       4 ALP1        0.0000 
     37 O          11.4405   26.7240    4.5125 O.2       1 ALC1        0.0000 
     38 O          10.8690   25.5990    5.6880 O.2       7 ALL1        0.0000 
     39 O          12.0120   27.8490    3.3370 O.2       4 ALP1        0.0000 
     40 CA          9.3010   24.8280    8.7380 C.3       3 GLC5        0.0000 
     41 CA          9.8750   26.7030    7.7130 C.3       9 GLL5        0.0000 
     42 CA          8.7270   22.9530    9.7630 C.3       6 GLP5        0.0000 
     43 CA         11.3945   24.6875    9.4705 C.3       3 GLC5        0.0000 
     44 CA         10.9930   26.6900    8.6100 C.3       9 GLL5        0.0000 
     45 CA         11.7960   22.6850   10.3310 C.3       6 GLP5        0.0000 
     46 N           9.6820   29.2735    5.2980 N.am      2 SEC2        0.0000 
     47 N           9.1140   27.8490    4.9750 N.am      8 SEL2        0.0000 
     48 N          10.2500   30.6980    5.6210 N.am      5 SEP2        0.0000 
     49 O          10.5630   27.8490    4.1560 O.2       1 ALC1        0.0000 
     50 O           9.1140   27.8490    4.9750 O.2       7 ALL1        0.0000 
     51 CA          7.8385   29.4800    6.1455 C.3       3 GLC5        0.0000 
     52 CA          7.7270   27.3590    6.8320 C.3       9 GLL5        0.0000 
     53 CA          7.9500   31.6010    5.4590 C.3       6 GLP5        0.0000 
     54 CA         17.7815   21.2700    3.5625 C.3       3 GLC5        0.0000 
     55 CA         16.4460   20.0700    4.4420 C.3       9 GLL5        0.0000 
     56 CA         19.1170   22.4700    2.6830 C.3       6 GLP5        0.0000 
     57 CA         15.7420   16.5955    2.2650 C.3       3 GLC5        0.0000 
     58 CA         16.9700   18.2640    2.6470 C.3       9 GLL5        0.0000 
     59 CA         14.5140   14.9270    1.8830 C.3       6 GLP5        0.0000 
     60 CA         14.5135   19.0510    0.3665 C.3       3 GLC5        0.0000 
     61 CA         15.2330   19.9660    2.1590 C.3       9 GLL5        0.0000 
     62 CA         13.7940   18.1360   -1.4260 C.3       6 GLP5        0.0000 
     63 CA         13.9505   20.8900    1.1860 C.3       3 GLC5        0.0000 
     64 CA         11.0765   25.9252    0.7617 C.3       3 GLC5        0.0000 
     65 CA         10.9580   24.6870    2.3360 C.3       9 GLL5        0.0000 
     66 CA         11.8490   27.0570   -0.5400 C.3       6 GLP5        0.0000 
     67 CA          9.2445   24.1401    0.2711 C.3       3 GLC5        0.0000 
     68 CA          9.0470   23.8810   -1.5460 C.3       6 GLP5        0.0000 
     69 CA          8.8250   22.1570    4.8312 C.3       3 GLC5        0.0000 
     70 CA          8.1830   21.5350    6.4090 C.3       6 GLP5        0.0000 
     71 CA         11.6341   22.6064    1.6820 C.3       3 GLC5        0.0000 
     72 CA         15.4267   23.8017    9.5147 C.3       3 GLC5        0.0000 
     73 CA         15.1680   21.9240    8.7650 C.3       9 GLL5        0.0000 
     74 CA         17.9558   22.2985   10.6348 C.3       3 GLC5        0.0000 
     75 CA         18.1980   23.1070   12.3410 C.3       6 GLP5        0.0000 
     76 CA         17.0935   21.8610   11.1037 C.3       3 GLC5        0.0000 
     77 CA         14.1945   19.8293    8.6187 C.3       3 GLC5        0.0000 
     78 CA         13.1390   18.2680    8.0010 C.3       6 GLP5        0.0000 
     79 CA         13.5230   22.0377    9.7838 C.3       3 GLC5        0.0000 
     80 CA         11.9043   28.2014    7.9149 C.3       3 GLC5        0.0000 
     81 CA         13.1140   29.2710    6.8770 C.3       6 GLP5        0.0000 
     82 CA         11.2583   27.5928   11.4995 C.3       3 GLC5        0.0000 
     83 CA         10.9550   27.5670    9.7440 C.3       9 GLL5        0.0000 
     84 CA         12.1290   27.1870   13.1440 C.3       6 GLP5        0.0000 
     85 CA          8.8685   30.1890    9.8848 C.3       3 GLC5        0.0000 
     86 CA          9.8200   28.4300    9.9660 C.3       9 GLL5        0.0000 
     87 CA          8.4730   31.9500   10.2590 C.3       6 GLP5        0.0000 
     88 CA          8.6114   27.1306   10.9030 C.3       3 GLC5        0.0000 
     89 CA          8.7080   28.4260    9.0550 C.3       9 GLL5        0.0000 
     90 CA          7.6750   26.0490   12.3510 C.3       6 GLP5        0.0000 
     91 CA         13.5838   19.2215    3.1327 C.3       3 GLC5        0.0000 
     92 CA         16.9642   20.8735    2.0564 C.3       3 GLC5        0.0000 
     93 CA         18.0980   22.4060    1.5470 C.3       6 GLP5        0.0000 
@<TRIPOS>BOND
@<TRIPOS>SUBSTRUCTURE
     1 ALC1       28 GROUP        1 X    ALC  0     ROOT ALC X 1
     2 SEC2       25 GROUP        1 X    SEC  0     **** SEC X 2
     3 GLC5        1 GROUP        1 X    GLC  0     **** GLC X 6
     4 ALP1       30 GROUP        1 Y    ALP  0     ROOT ALP Y 8
     5 SEP2       27 GROUP        1 Y    SEP  0     **** SEP Y 9
     6 GLP5        3 GROUP        1 Y    GLP  0     **** GLP Y 13
     7 ALL1       29 GROUP        1 Z    ALL  0     ROOT ALL Z 15
     8 SEL2       26 GROUP        1 Z    SEL  0     **** SEL Z 16
     9 GLL5        2 GROUP        1 Z    GLL  0     **** GLL Z 20
@<TRIPOS>SET

