#    Name: 2bqv_A1A_1_ligand
#    Modification time : Mon Mar 24 21:26:12 2014

@<TRIPOS>MOLECULE
2bqv_A1A_1_ligand
   83    86     1     0     0
SMALL
NO_CHARGES


@<TRIPOS>ATOM
      1 C23        11.2050   23.5680    3.2120 C.ar      1 A1A1100     0.0000 
      2 C24        10.9580   24.6870    2.3360 C.ar      1 A1A1100     0.0000 
      3 C25         9.6500   24.9000    1.7910 C.ar      1 A1A1100     0.0000 
      4 C26         8.5800   24.0050    2.1130 C.ar      1 A1A1100     0.0000 
      5 C27         8.8150   22.8880    2.9790 C.ar      1 A1A1100     0.0000 
      6 C28        10.1190   22.6700    3.5280 C.ar      1 A1A1100     0.0000 
      7 C33        16.3190   22.5150    8.1320 C.ar      1 A1A1100     0.0000 
      8 C34        17.6310   22.0230    8.4580 C.ar      1 A1A1100     0.0000 
      9 C35        17.7960   20.9570    9.3990 C.ar      1 A1A1100     0.0000 
     10 C36        16.6460   20.3730   10.0250 C.ar      1 A1A1100     0.0000 
     11 C37        15.3320   20.8570    9.7080 C.ar      1 A1A1100     0.0000 
     12 C38        15.1680   21.9240    8.7650 C.ar      1 A1A1100     0.0000 
     13 C32        16.2050   23.6620    7.1150 C.3       1 A1A1100     0.0000 
     14 C7         19.9980   18.2300    7.3330 C.3       1 A1A1100     0.0000 
     15 C4         13.9810   23.7580    6.1230 C.3       1 A1A1100     0.0000 
     16 O3         19.1030   20.1170    5.4440 O.2       1 A1A1100     0.0000 
     17 N1         17.0530   19.1780    5.4240 N.am      1 A1A1100     0.0000 
     18 C22        12.6090   23.3500    3.8330 C.3       1 A1A1100     0.0000 
     19 O6         13.4140   25.5240    4.5570 O.3       1 A1A1100     0.0000 
     20 O8         18.6870   18.2930    6.7790 O.3       1 A1A1100     0.0000 
     21 C10        11.6220   24.5080    5.9080 C.2       1 A1A1100     0.0000 
     22 O11        11.2890   23.6920    6.7900 O.2       1 A1A1100     0.0000 
     23 N12        10.8690   25.5990    5.6880 N.am      1 A1A1100     0.0000 
     24 C51         9.6490   25.9060    6.4570 C.3       1 A1A1100     0.0000 
     25 C52         9.8750   26.7030    7.7130 C.ar      1 A1A1100     0.0000 
     26 C57         8.7640   27.5470    7.9310 C.ar      1 A1A1100     0.0000 
     27 C53        10.9930   26.6900    8.6100 C.ar      1 A1A1100     0.0000 
     28 C54        10.9550   27.5670    9.7440 C.ar      1 A1A1100     0.0000 
     29 C55         9.8200   28.4300    9.9660 C.ar      1 A1A1100     0.0000 
     30 C59         8.5610   26.7340    5.6850 C.3       1 A1A1100     0.0000 
     31 O60         9.1140   27.8490    4.9750 O.3       1 A1A1100     0.0000 
     32 C30        18.3210   19.2340    5.8690 C.2       1 A1A1100     0.0000 
     33 C56         8.7080   28.4260    9.0550 C.ar      1 A1A1100     0.0000 
     34 C58         7.7270   27.3590    6.8320 C.3       1 A1A1100     0.0000 
     35 C41        16.4460   20.0700    4.4420 C.3       1 A1A1100     0.0000 
     36 C42        15.8860   19.1680    3.2980 C.3       1 A1A1100     0.0000 
     37 C43        16.9700   18.2640    2.6470 C.3       1 A1A1100     0.0000 
     38 C1         12.9340   24.2830    5.0580 C.3       1 A1A1100     0.0000 
     39 C44        15.2330   19.9660    2.1590 C.3       1 A1A1100     0.0000 
     40 C45        15.4440   21.0340    5.1590 C.2       1 A1A1100     0.0000 
     41 N24        15.4020   23.4710    5.8620 N.3       1 A1A1100     0.0000 
     42 O46        14.4470   20.5980    5.7490 O.2       1 A1A1100     0.0000 
     43 N47        15.7440   22.3610    5.0620 N.am      1 A1A1100     0.0000 
     44 H          11.7146   25.3221    2.1078 H         1 A1A1100     0.0000 
     45 H           9.4818   25.6894    1.1737 H         1 A1A1100     0.0000 
     46 H           7.6543   24.1614    1.7279 H         1 A1A1100     0.0000 
     47 H           8.0571   22.2520    3.2028 H         1 A1A1100     0.0000 
     48 H          10.2871   21.8804    4.1442 H         1 A1A1100     0.0000 
     49 H          18.4470   22.4385    8.0140 H         1 A1A1100     0.0000 
     50 H          18.7232   20.6152    9.6229 H         1 A1A1100     0.0000 
     51 H          16.7597   19.6180   10.6919 H         1 A1A1100     0.0000 
     52 H          14.5199   20.4430   10.1522 H         1 A1A1100     0.0000 
     53 H          14.2398   22.2661    8.5407 H         1 A1A1100     0.0000 
     54 H          17.2560   23.9708    6.8324 H         1 A1A1100     0.0000 
     55 H          15.8113   24.5674    7.6673 H         1 A1A1100     0.0000 
     56 H          13.4858   22.8234    6.5969 H         1 A1A1100     0.0000 
     57 H          13.9000   24.4951    7.0138 H         1 A1A1100     0.0000 
     58 H          16.3929   18.4245    5.7986 H         1 A1A1100     0.0000 
     59 H          13.3721   23.5191    3.0624 H         1 A1A1100     0.0000 
     60 H          12.6964   22.3073    4.1646 H         1 A1A1100     0.0000 
     61 H          11.1148   26.2967    4.9478 H         1 A1A1100     0.0000 
     62 H           9.1332   24.9769    6.7622 H         1 A1A1100     0.0000 
     63 H          11.7747   26.0886    8.4504 H         1 A1A1100     0.0000 
     64 H          11.7319   27.5838   10.3990 H         1 A1A1100     0.0000 
     65 H           9.8089   29.0454   10.7745 H         1 A1A1100     0.0000 
     66 H           7.9583   26.1074    5.1418 H         1 A1A1100     0.0000 
     67 H           7.9202   29.0230    9.2078 H         1 A1A1100     0.0000 
     68 H           7.3514   28.2925    6.5192 H         1 A1A1100     0.0000 
     69 H           6.9888   26.6723    7.1384 H         1 A1A1100     0.0000 
     70 H          17.2473   20.6860    4.0044 H         1 A1A1100     0.0000 
     71 H          15.1259   18.5059    3.7152 H         1 A1A1100     0.0000 
     72 H          16.3817   22.6366    4.1867 H         1 A1A1100     0.0000 
     73 H          20.6935   18.0965    6.6270 H         1 A1A1100     0.0000 
     74 H          20.2349   19.0690    7.8229 H         1 A1A1100     0.0000 
     75 H          20.0909   17.4752    7.9824 H         1 A1A1100     0.0000 
     76 H          17.7110   18.8027    2.2460 H         1 A1A1100     0.0000 
     77 H          17.3854   17.6441    3.3127 H         1 A1A1100     0.0000 
     78 H          16.5907   17.6972    1.9156 H         1 A1A1100     0.0000 
     79 H          15.8803   20.5938    1.7268 H         1 A1A1100     0.0000 
     80 H          14.8813   19.3668    1.4398 H         1 A1A1100     0.0000 
     81 H          14.4639   20.5161    2.4844 H         1 A1A1100     0.0000 
     82 H          13.8899   25.2936    3.7082 H         1 A1A1100     0.0000 
     83 H          10.1050   27.7329    5.0425 H         1 A1A1100     0.0000 
@<TRIPOS>BOND
     1    2    1 ar   
     2    6    1 ar   
     3   18    1 1    
     4    3    2 ar   
     5   44    2 1    
     6    4    3 ar   
     7   45    3 1    
     8    5    4 ar   
     9   46    4 1    
    10    6    5 ar   
    11   47    5 1    
    12   48    6 1    
    13    8    7 ar   
    14   12    7 ar   
    15   13    7 1    
    16    9    8 ar   
    17   49    8 1    
    18   10    9 ar   
    19   50    9 1    
    20   11   10 ar   
    21   51   10 1    
    22   12   11 ar   
    23   52   11 1    
    24   53   12 1    
    25   41   13 1    
    26   54   13 1    
    27   55   13 1    
    28   20   14 1    
    29   73   14 1    
    30   74   14 1    
    31   75   14 1    
    32   38   15 1    
    33   41   15 1    
    34   56   15 1    
    35   57   15 1    
    36   32   16 2    
    37   32   17 am   
    38   35   17 1    
    39   58   17 1    
    40   38   18 1    
    41   59   18 1    
    42   60   18 1    
    43   38   19 1    
    44   82   19 1    
    45   32   20 1    
    46   22   21 2    
    47   23   21 am   
    48   38   21 1    
    49   24   23 1    
    50   61   23 1    
    51   25   24 1    
    52   30   24 1    
    53   62   24 1    
    54   26   25 ar   
    55   27   25 ar   
    56   33   26 ar   
    57   34   26 1    
    58   28   27 ar   
    59   63   27 1    
    60   29   28 ar   
    61   64   28 1    
    62   33   29 ar   
    63   65   29 1    
    64   31   30 1    
    65   34   30 1    
    66   66   30 1    
    67   83   31 1    
    68   67   33 1    
    69   68   34 1    
    70   69   34 1    
    71   36   35 1    
    72   40   35 1    
    73   70   35 1    
    74   37   36 1    
    75   39   36 1    
    76   71   36 1    
    77   76   37 1    
    78   77   37 1    
    79   78   37 1    
    80   79   39 1    
    81   80   39 1    
    82   81   39 1    
    83   42   40 2    
    84   43   40 am   
    85   43   41 1    
    86   72   43 1    
@<TRIPOS>SUBSTRUCTURE
     1 A1A1100     1 GROUP   
@<TRIPOS>SET

