#    Name: 1kyi_ATP_8_INTS_M
#    Modification time : Tue Mar 25 10:45:45 2014

@<TRIPOS>MOLECULE
1kyi_ATP_8_INTS_M
   59     0    12     0     0
SMALL
NO_CHARGES


@<TRIPOS>ATOM
      1 NZ        183.9125   43.3020   19.7555 N.4       3 LYC4        0.0000 
      2 NZ        184.6790   44.4790   19.5800 N.4      11 LYL4        0.0000 
      3 NZ        183.1460   42.1250   19.9310 N.4       7 LYP4        0.0000 
      4 N         183.9125   43.3020   19.7555 N.am      2 SEC2        0.0000 
      5 N         184.6790   44.4790   19.5800 N.am     10 SEL2        0.0000 
      6 N         183.1460   42.1250   19.9310 N.am      6 SEP2        0.0000 
      7 N         188.1885   41.6870   21.3805 N.am      2 SEC2        0.0000 
      8 N         187.4320   41.1670   20.3720 N.am     10 SEL2        0.0000 
      9 N         188.9450   42.2070   22.3890 N.am      6 SEP2        0.0000 
     10 N         188.3715   40.3605   21.1035 N.am      2 SEC2        0.0000 
     11 N         189.3110   39.5540   21.8350 N.am      6 SEP2        0.0000 
     12 N         188.1270   39.7365   19.9455 N.am      2 SEC2        0.0000 
     13 N         188.8220   38.3060   19.5190 N.am      6 SEP2        0.0000 
     14 NZ        184.6045   42.1180   19.1440 N.4       3 LYC4        0.0000 
     15 NZ        186.0630   42.1110   18.3570 N.4      11 LYL4        0.0000 
     16 N         186.2710   40.4500   18.1320 N.am      2 SEC2        0.0000 
     17 N         186.0630   42.1110   18.3570 N.am     10 SEL2        0.0000 
     18 N         186.4790   38.7890   17.9070 N.am      6 SEP2        0.0000 
     19 N         184.6045   42.1180   19.1440 N.am      2 SEC2        0.0000 
     20 N         186.0525   41.2310   17.0490 N.am      2 SEC2        0.0000 
     21 N         186.0420   40.3510   15.7410 N.am      6 SEP2        0.0000 
     22 N         185.9445   42.6570   16.9085 N.am      2 SEC2        0.0000 
     23 N         185.8260   43.2030   15.4600 N.am      6 SEP2        0.0000 
     24 N         187.9005   42.9275   21.2945 N.am      2 SEC2        0.0000 
     25 N         186.8560   43.6480   20.2000 N.am     10 SEL2        0.0000 
     26 N         187.2760   40.8635   16.0635 N.am      2 SEC2        0.0000 
     27 N         188.5100   41.3760   16.3860 N.am     10 SEL2        0.0000 
     28 N         188.2905   40.4805   15.2045 N.am      2 SEC2        0.0000 
     29 N         188.0710   39.5850   14.0230 N.am      6 SEP2        0.0000 
     30 CA        194.3345   40.1860   19.3660 C.3       4 GLC5        0.0000 
     31 CA        193.8680   40.4130   17.4860 C.3      12 GLL5        0.0000 
     32 CA        194.8010   39.9590   21.2460 C.3       8 GLP5        0.0000 
     33 CA        190.8255   37.4455   18.3790 C.3       4 GLC5        0.0000 
     34 CA        192.9660   37.0770   18.5970 C.3      12 GLL5        0.0000 
     35 CA        188.6850   37.8140   18.1610 C.3       8 GLP5        0.0000 
     36 CA        191.9100   34.8740   17.2090 C.3       4 GLC5        0.0000 
     37 CA        193.1950   35.6910   18.5250 C.3      12 GLL5        0.0000 
     38 CA        190.6250   34.0570   15.8930 C.3       8 GLP5        0.0000 
     39 O         192.9420   33.4905   19.2265 O.2       1 ALC1        0.0000 
     40 O         192.5280   34.7890   19.2510 O.2       9 ALL1        0.0000 
     41 O         193.3560   32.1920   19.2020 O.2       5 ALP1        0.0000 
     42 CA        193.8505   34.8035   15.9545 C.3       4 GLC5        0.0000 
     43 CA        194.8210   36.1660   16.9500 C.3      12 GLL5        0.0000 
     44 CA        192.8800   33.4410   14.9590 C.3       8 GLP5        0.0000 
     45 CA        196.1670   36.3135   18.1795 C.3       4 GLC5        0.0000 
     46 CA        197.5130   36.4610   19.4090 C.3       8 GLP5        0.0000 
     47 CA        196.5200   34.8940   16.4065 C.3       4 GLC5        0.0000 
     48 CA        198.2190   33.6220   15.8630 C.3       8 GLP5        0.0000 
     49 CA        192.5170   38.4775   16.0410 C.3       4 GLC5        0.0000 
     50 CA        193.7460   37.8900   17.7920 C.3      12 GLL5        0.0000 
     51 CA        191.2880   39.0650   14.2900 C.3       8 GLP5        0.0000 
     52 CA        195.6295   37.1755   18.6005 C.3       4 GLC5        0.0000 
     53 CA        191.7175   40.7022   15.3152 C.3       4 GLC5        0.0000 
     54 CA        192.8560   42.3370   16.6030 C.3      12 GLL5        0.0000 
     55 CA        192.6047   39.9140   15.4653 C.3       4 GLC5        0.0000 
     56 CA        194.0400   40.3750   15.9720 C.3      12 GLL5        0.0000 
     57 CA        194.2142   35.8330   19.8785 C.3       4 GLC5        0.0000 
     58 CA        195.3480   35.2820   21.1960 C.3       8 GLP5        0.0000 
     59 CA        194.0785   38.7212   19.7203 C.3       4 GLC5        0.0000 
@<TRIPOS>BOND
@<TRIPOS>SUBSTRUCTURE
     1 ALC1       39 GROUP        1 X    ALC  0     ROOT ALC X 1
     2 SEC2        4 GROUP        1 X    SEC  0     **** SEC X 2
     3 LYC4        1 GROUP        1 X    LYC  0     **** LYC X 4
     4 GLC5       30 GROUP        1 X    GLC  0     **** GLC X 6
     5 ALP1       41 GROUP        1 Y    ALP  0     ROOT ALP Y 8
     6 SEP2        6 GROUP        1 Y    SEP  0     **** SEP Y 9
     7 LYP4        3 GROUP        1 Y    LYP  0     **** LYP Y 11
     8 GLP5       32 GROUP        1 Y    GLP  0     **** GLP Y 13
     9 ALL1       40 GROUP        1 Z    ALL  0     ROOT ALL Z 15
    10 SEL2        5 GROUP        1 Z    SEL  0     **** SEL Z 16
    11 LYL4        2 GROUP        1 Z    LYL  0     **** LYL Z 18
    12 GLL5       31 GROUP        1 Z    GLL  0     **** GLL Z 20
@<TRIPOS>SET

