#    Name: 1kyi_ATP_8_ligand
#    Modification time : Tue Mar 25 10:45:45 2014

@<TRIPOS>MOLECULE
1kyi_ATP_8_ligand
   43    45     1     0     0
SMALL
NO_CHARGES


@<TRIPOS>ATOM
      1 PG        186.0690   45.0130   19.8360 P.3       1 ATP457      0.0000 
      2 O1G       186.8370   45.5010   18.6250 O.co2     1 ATP457      0.0000 
      3 O2G       186.2580   45.7970   21.1150 O.co2     1 ATP457      0.0000 
      4 O3G       184.6790   44.4790   19.5800 O.co2     1 ATP457      0.0000 
      5 PB        187.1510   42.2830   19.3880 P.3       1 ATP457      0.0000 
      6 O1B       187.4320   41.1670   20.3720 O.co2     1 ATP457      0.0000 
      7 O2B       186.0630   42.1110   18.3570 O.co2     1 ATP457      0.0000 
      8 O3B       186.8560   43.6480   20.2000 O.3       1 ATP457      0.0000 
      9 PA        189.3750   41.6960   17.5780 P.3       1 ATP457      0.0000 
     10 O1A       188.5100   41.3760   16.3860 O.co2     1 ATP457      0.0000 
     11 O2A       189.9930   40.5710   18.3740 O.co2     1 ATP457      0.0000 
     12 O3A       188.5100   42.5980   18.5890 O.3       1 ATP457      0.0000 
     13 O5'       190.5250   42.6990   17.1160 O.3       1 ATP457      0.0000 
     14 C5'       191.4380   42.3420   16.0780 C.3       1 ATP457      0.0000 
     15 C4'       192.8560   42.3370   16.6030 C.3       1 ATP457      0.0000 
     16 O4'       192.9360   41.4400   17.7460 O.3       1 ATP457      0.0000 
     17 C3'       193.9100   41.8510   15.6180 C.3       1 ATP457      0.0000 
     18 O3'       195.1360   42.5310   15.8530 O.3       1 ATP457      0.0000 
     19 C2'       194.0400   40.3750   15.9720 C.3       1 ATP457      0.0000 
     20 O2'       195.3060   39.8470   15.6430 O.3       1 ATP457      0.0000 
     21 C1'       193.8680   40.4130   17.4860 C.3       1 ATP457      0.0000 
     22 N9        193.3410   39.1770   18.0570 N.pl3     1 ATP457      0.0000 
     23 C8        192.3390   39.0690   18.9860 C.2       1 ATP457      0.0000 
     24 N7        192.0780   37.8350   19.3450 N.2       1 ATP457      0.0000 
     25 C5        192.9660   37.0770   18.5970 C.ar      1 ATP457      0.0000 
     26 C6        193.1950   35.6910   18.5250 C.ar      1 ATP457      0.0000 
     27 N6        192.5280   34.7890   19.2510 N.pl3     1 ATP457      0.0000 
     28 N1        194.1480   35.2590   17.6720 N.ar      1 ATP457      0.0000 
     29 C2        194.8210   36.1660   16.9500 C.ar      1 ATP457      0.0000 
     30 N3        194.7010   37.4920   16.9360 N.ar      1 ATP457      0.0000 
     31 C4        193.7460   37.8900   17.7920 C.ar      1 ATP457      0.0000 
     32 H         191.3881   43.0497   15.2370 H         1 ATP457      0.0000 
     33 H         191.2194   41.3413   15.6762 H         1 ATP457      0.0000 
     34 H         193.1260   43.3358   16.9251 H         1 ATP457      0.0000 
     35 H         193.5350   41.9397   14.6471 H         1 ATP457      0.0000 
     36 H         193.2176   39.8577   15.5650 H         1 ATP457      0.0000 
     37 H         194.8211   40.6592   17.9251 H         1 ATP457      0.0000 
     38 H         191.8658   39.8810   19.3410 H         1 ATP457      0.0000 
     39 H         191.6040   35.0473   19.5328 H         1 ATP457      0.0000 
     40 H         193.0128   33.9367   19.4473 H         1 ATP457      0.0000 
     41 H         195.5893   35.7477   16.2653 H         1 ATP457      0.0000 
     42 H         195.8302   41.8116   15.8778 H         1 ATP457      0.0000 
     43 H         195.3124   38.9271   16.0350 H         1 ATP457      0.0000 
@<TRIPOS>BOND
     1    2    1 ar   
     2    3    1 ar   
     3    4    1 ar   
     4    8    1 1    
     5    6    5 ar   
     6    7    5 ar   
     7    8    5 1    
     8   12    5 1    
     9   10    9 ar   
    10   11    9 ar   
    11   12    9 1    
    12   13    9 1    
    13   14   13 1    
    14   15   14 1    
    15   32   14 1    
    16   33   14 1    
    17   16   15 1    
    18   17   15 1    
    19   34   15 1    
    20   21   16 1    
    21   18   17 1    
    22   19   17 1    
    23   35   17 1    
    24   42   18 1    
    25   20   19 1    
    26   21   19 1    
    27   36   19 1    
    28   43   20 1    
    29   22   21 1    
    30   37   21 1    
    31   23   22 1    
    32   31   22 1    
    33   24   23 2    
    34   38   23 1    
    35   25   24 1    
    36   26   25 ar   
    37   31   25 ar   
    38   27   26 1    
    39   28   26 ar   
    40   39   27 1    
    41   40   27 1    
    42   29   28 ar   
    43   30   29 ar   
    44   41   29 1    
    45   31   30 ar   
@<TRIPOS>SUBSTRUCTURE
     1 ATP457      1 GROUP   
@<TRIPOS>SET

