#    Name: 3rd1_GDP_2_INTS_M
#    Modification time : Tue Mar 25 11:22:14 2014

@<TRIPOS>MOLECULE
3rd1_GDP_2_INTS_M
   59     0    15     0     0
SMALL
NO_CHARGES


@<TRIPOS>ATOM
      1 N          38.2290    8.2770   28.5565 N.am      2 SEC2        0.0000 
      2 N          38.6800    7.8830   27.2790 N.am     12 SEL2        0.0000 
      3 N          37.7780    8.6710   29.8340 N.am      7 SEP2        0.0000 
      4 NZ         35.6870    7.9140   26.6620 N.4       3 LYC4        0.0000 
      5 NZ         36.4400    6.8990   27.0360 N.4      13 LYL4        0.0000 
      6 NZ         34.9340    8.9290   26.2880 N.4       8 LYP4        0.0000 
      7 N          36.0360    5.6505   27.8255 N.am      2 SEC2        0.0000 
      8 N          36.4400    6.8990   27.0360 N.am     12 SEL2        0.0000 
      9 N          35.6320    4.4020   28.6150 N.am      7 SEP2        0.0000 
     10 N          35.8915    5.6025   26.4505 N.am      2 SEC2        0.0000 
     11 N          35.3430    4.3060   25.8650 N.am      7 SEP2        0.0000 
     12 N          35.6870    7.9140   26.6620 N.am      2 SEC2        0.0000 
     13 N          34.9340    8.9290   26.2880 N.am      7 SEP2        0.0000 
     14 Zn         38.7700    7.0910   24.6975 Zn        4 ZIC7        0.0000 
     15 Zn         38.1610    6.4870   25.2100 Zn       14 ZIL7        0.0000 
     16 Zn         39.3790    7.6950   24.1850 Zn        9 ZIP7        0.0000 
     17 N          37.6365    5.3855   24.3830 N.am      2 SEC2        0.0000 
     18 N          38.1610    6.4870   25.2100 N.am     12 SEL2        0.0000 
     19 N          37.1120    4.2840   23.5560 N.am      7 SEP2        0.0000 
     20 N          37.0030    4.9235   28.0690 N.am      2 SEC2        0.0000 
     21 N          38.3740    5.4450   27.5230 N.am     12 SEL2        0.0000 
     22 N          38.5915    2.5520   25.0465 N.am      2 SEC2        0.0000 
     23 N          38.9170    3.3080   26.2090 N.am     12 SEL2        0.0000 
     24 N          38.2660    1.7960   23.8840 N.am      7 SEP2        0.0000 
     25 N          39.1890    2.0145   26.2350 N.am      2 SEC2        0.0000 
     26 N          39.4610    0.7210   26.2610 N.am      7 SEP2        0.0000 
     27 CA         39.0715    5.9075   30.2010 C.3       5 GLC5        0.0000 
     28 CA         40.0550    4.3210   29.7570 C.3      15 GLL5        0.0000 
     29 CA         38.0880    7.4940   30.6450 C.3      10 GLP5        0.0000 
     30 CA         38.2830    1.8295   31.9625 C.3       5 GLC5        0.0000 
     31 CA         40.0680    1.0970   31.0540 C.3      15 GLL5        0.0000 
     32 CA         36.4980    2.5620   32.8710 C.3      10 GLP5        0.0000 
     33 N          35.4905    0.1965   29.6835 N.am      2 SEC2        0.0000 
     34 N          36.9700   -0.2600   29.7440 N.am     12 SEL2        0.0000 
     35 N          34.0110    0.6530   29.6230 N.am      7 SEP2        0.0000 
     36 CA         36.0155   -0.1670   32.0780 C.3       5 GLC5        0.0000 
     37 CA         37.1190   -1.0070   30.8490 C.3      15 GLL5        0.0000 
     38 CA         34.9120    0.6730   33.3070 C.3      10 GLP5        0.0000 
     39 CA         36.3670   -1.4600   28.8875 C.3       5 GLC5        0.0000 
     40 CA         35.6150   -1.9130   26.9260 C.3      10 GLP5        0.0000 
     41 N          34.0255   -1.7735   31.7610 N.am      2 SEC2        0.0000 
     42 N          35.2940   -2.4670   31.0050 N.am     12 SEL2        0.0000 
     43 N          32.7570   -1.0800   32.5170 N.am      7 SEP2        0.0000 
     44 N          34.9205   -3.0335   29.6920 N.am      2 SEC2        0.0000 
     45 N          34.5470   -3.6000   28.3790 N.am      7 SEP2        0.0000 
     46 O          36.0820   -3.4885   33.2795 O.2       1 ALC1        0.0000 
     47 O          36.8520   -2.5790   32.6040 O.2      11 ALL1        0.0000 
     48 O          35.3120   -4.3980   33.9550 O.2       6 ALP1        0.0000 
     49 O          36.9840   -3.9315   33.7010 O.2       1 ALC1        0.0000 
     50 O          37.1160   -5.2840   34.7980 O.2       6 ALP1        0.0000 
     51 O          37.7735   -4.0165   34.5560 O.2       1 ALC1        0.0000 
     52 O          38.4310   -2.7490   34.3140 O.2      11 ALL1        0.0000 
     53 CA         37.4255    0.9810   32.1870 C.3       5 GLC5        0.0000 
     54 CA         38.3530   -0.6000   31.5030 C.3      15 GLL5        0.0000 
     55 CA         43.2533    1.1947   29.5192 C.3       5 GLC5        0.0000 
     56 CA         41.0520    1.1520   29.9150 C.3      15 GLL5        0.0000 
     57 CA         45.1150    0.5740   28.9820 C.3      10 GLP5        0.0000 
     58 CA         38.1925   -2.5612   30.7840 C.3       5 GLC5        0.0000 
     59 CA         38.6490   -4.3190   30.3920 C.3      10 GLP5        0.0000 
@<TRIPOS>BOND
@<TRIPOS>SUBSTRUCTURE
     1 ALC1       46 GROUP        1 X    ALC  0     ROOT ALC X 1
     2 SEC2        1 GROUP        1 X    SEC  0     **** SEC X 2
     3 LYC4        4 GROUP        1 X    LYC  0     **** LYC X 4
     4 ZIC7       14 GROUP        1 X    ZIC  0     **** ZIC X 5
     5 GLC5       27 GROUP        1 X    GLC  0     **** GLC X 6
     6 ALP1       48 GROUP        1 Y    ALP  0     ROOT ALP Y 8
     7 SEP2        3 GROUP        1 Y    SEP  0     **** SEP Y 9
     8 LYP4        6 GROUP        1 Y    LYP  0     **** LYP Y 11
     9 ZIP7       16 GROUP        1 Y    ZIP  0     **** ZIP Y 12
    10 GLP5       29 GROUP        1 Y    GLP  0     **** GLP Y 13
    11 ALL1       47 GROUP        1 Z    ALL  0     ROOT ALL Z 15
    12 SEL2        2 GROUP        1 Z    SEL  0     **** SEL Z 16
    13 LYL4        5 GROUP        1 Z    LYL  0     **** LYL Z 18
    14 ZIL7       15 GROUP        1 Z    ZIL  0     **** ZIL Z 19
    15 GLL5       28 GROUP        1 Z    GLL  0     **** GLL Z 20
@<TRIPOS>SET

