#    Name: 3rd1_GDP_2_ligand
#    Modification time : Tue Mar 25 11:22:14 2014

@<TRIPOS>MOLECULE
3rd1_GDP_2_ligand
   40    42     1     0     0
SMALL
NO_CHARGES


@<TRIPOS>ATOM
      1 PB         37.8920    6.7410   26.6890 P.3       1 GDP172      0.0000 
      2 O1B        38.6800    7.8830   27.2790 O.co2     1 GDP172      0.0000 
      3 O2B        36.4400    6.8990   27.0360 O.co2     1 GDP172      0.0000 
      4 O3B        38.1610    6.4870   25.2100 O.co2     1 GDP172      0.0000 
      5 O3A        38.3740    5.4450   27.5230 O.3       1 GDP172      0.0000 
      6 PA         39.4790    4.3280   27.1490 P.3       1 GDP172      0.0000 
      7 O1A        38.9170    3.3080   26.2090 O.co2     1 GDP172      0.0000 
      8 O2A        40.7660    4.9540   26.7420 O.co2     1 GDP172      0.0000 
      9 O5'        39.5920    3.6170   28.6110 O.3       1 GDP172      0.0000 
     10 C5'        40.0550    4.3210   29.7570 C.3       1 GDP172      0.0000 
     11 C4'        40.6500    3.3640   30.7880 C.3       1 GDP172      0.0000 
     12 O4'        39.6530    2.4550   31.2900 O.3       1 GDP172      0.0000 
     13 C3'        41.7310    2.4790   30.1980 C.3       1 GDP172      0.0000 
     14 O3'        42.7410    2.2950   31.1950 O.3       1 GDP172      0.0000 
     15 C2'        41.0520    1.1520   29.9150 C.3       1 GDP172      0.0000 
     16 O2'        41.8850    0.0030   30.0110 O.3       1 GDP172      0.0000 
     17 C1'        40.0680    1.0970   31.0540 C.3       1 GDP172      0.0000 
     18 N9         38.8440    0.3460   30.7350 N.pl3     1 GDP172      0.0000 
     19 C8         38.0280    0.5550   29.7030 C.2       1 GDP172      0.0000 
     20 N7         36.9700   -0.2600   29.7440 N.2       1 GDP172      0.0000 
     21 C5         37.1190   -1.0070   30.8490 C.2       1 GDP172      0.0000 
     22 C6         36.3620   -2.0730   31.4910 C.2       1 GDP172      0.0000 
     23 O6         35.2940   -2.4670   31.0050 O.2       1 GDP172      0.0000 
     24 N1         36.8520   -2.5790   32.6040 N.am      1 GDP172      0.0000 
     25 C2         38.0100   -2.1690   33.1740 C.2       1 GDP172      0.0000 
     26 N2         38.4310   -2.7490   34.3140 N.pl3     1 GDP172      0.0000 
     27 N3         38.7590   -1.1810   32.6500 N.2       1 GDP172      0.0000 
     28 C4         38.3530   -0.6000   31.5030 C.2       1 GDP172      0.0000 
     29 H          39.2411    4.8773   30.2510 H         1 GDP172      0.0000 
     30 H          40.8348    5.0561   29.4973 H         1 GDP172      0.0000 
     31 H          41.0809    3.9285   31.5951 H         1 GDP172      0.0000 
     32 H          42.0828    2.8977   29.3114 H         1 GDP172      0.0000 
     33 H          40.5007    1.2263   29.0204 H         1 GDP172      0.0000 
     34 H          40.5413    0.7048   31.9212 H         1 GDP172      0.0000 
     35 H          38.1839    1.2290   28.9936 H         1 GDP172      0.0000 
     36 H          36.3131   -3.3632   33.1001 H         1 GDP172      0.0000 
     37 H          37.8359   -3.4577   34.6929 H         1 GDP172      0.0000 
     38 H          39.3012   -2.4193   34.6801 H         1 GDP172      0.0000 
     39 H          42.9151    1.3103   31.2083 H         1 GDP172      0.0000 
     40 H          41.3854   -0.6301   30.6022 H         1 GDP172      0.0000 
@<TRIPOS>BOND
     1    2    1 ar   
     2    3    1 ar   
     3    4    1 ar   
     4    5    1 1    
     5    6    5 1    
     6    7    6 ar   
     7    8    6 ar   
     8    9    6 1    
     9   10    9 1    
    10   11   10 1    
    11   29   10 1    
    12   30   10 1    
    13   12   11 1    
    14   13   11 1    
    15   31   11 1    
    16   17   12 1    
    17   14   13 1    
    18   15   13 1    
    19   32   13 1    
    20   39   14 1    
    21   16   15 1    
    22   17   15 1    
    23   33   15 1    
    24   40   16 1    
    25   18   17 1    
    26   34   17 1    
    27   19   18 1    
    28   28   18 1    
    29   20   19 2    
    30   35   19 1    
    31   21   20 1    
    32   22   21 1    
    33   28   21 2    
    34   23   22 2    
    35   24   22 am   
    36   25   24 1    
    37   36   24 1    
    38   26   25 1    
    39   27   25 2    
    40   37   26 1    
    41   38   26 1    
    42   28   27 1    
@<TRIPOS>SUBSTRUCTURE
     1 GDP172      1 GROUP   
@<TRIPOS>SET

