#    Name: 2v7a_627_2_INTS_M
#    Modification time : Tue Mar 25 01:06:20 2014

@<TRIPOS>MOLECULE
2v7a_627_2_INTS_M
   59     0     9     0     0
SMALL
NO_CHARGES


@<TRIPOS>ATOM
      1 O          43.7765  -32.9525   -8.5055 O.2       1 ALC1        0.0000 
      2 O          43.2380  -33.8670   -9.5220 O.2       7 ALL1        0.0000 
      3 O          44.3150  -32.0380   -7.4890 O.2       4 ALP1        0.0000 
      4 N          44.8255  -32.4335  -10.8780 N.am      2 SEC2        0.0000 
      5 N          43.7020  -33.4420  -10.7960 N.am      8 SEL2        0.0000 
      6 N          45.9490  -31.4250  -10.9600 N.am      5 SEP2        0.0000 
      7 O          44.8575  -33.2895  -13.3240 O.2       1 ALC1        0.0000 
      8 O          43.5350  -34.1570  -13.0270 O.2       7 ALL1        0.0000 
      9 O          46.1800  -32.4220  -13.6210 O.2       4 ALP1        0.0000 
     10 CA         41.5575  -33.4455  -15.0320 C.3       3 GLC5        0.0000 
     11 CA         43.1730  -34.4390  -15.4130 C.3       9 GLL5        0.0000 
     12 CA         39.9420  -32.4520  -14.6510 C.3       6 GLP5        0.0000 
     13 CA         42.0555  -35.0475   -7.0755 C.3       3 GLC5        0.0000 
     14 CA         41.7330  -35.9780   -8.9140 C.3       9 GLL5        0.0000 
     15 CA         42.3780  -34.1170   -5.2370 C.3       6 GLP5        0.0000 
     16 CA         43.5025  -36.6245   -9.2735 C.3       3 GLC5        0.0000 
     17 CA         45.2720  -37.2710   -9.6330 C.3       6 GLP5        0.0000 
     18 N          39.6775  -39.2790   -7.7920 N.am      2 SEC2        0.0000 
     19 N          40.8600  -38.5250   -8.3990 N.am      8 SEL2        0.0000 
     20 N          38.4950  -40.0330   -7.1850 N.am      5 SEP2        0.0000 
     21 CA         44.1535  -38.7775   -9.9805 C.3       3 GLC5        0.0000 
     22 CA         43.0350  -40.2840  -10.3280 C.3       9 GLL5        0.0000 
     23 CA         42.8730  -41.8785   -8.8725 C.3       3 GLC5        0.0000 
     24 CA         42.7110  -43.4730   -7.4170 C.3       6 GLP5        0.0000 
     25 CA         39.1375  -39.1450   -9.1535 C.3       3 GLC5        0.0000 
     26 CA         40.7580  -39.2530  -10.6350 C.3       9 GLL5        0.0000 
     27 CA         37.5170  -39.0370   -7.6720 C.3       6 GLP5        0.0000 
     28 CA         37.0475  -40.7450  -11.9955 C.3       3 GLC5        0.0000 
     29 CA         38.8430  -40.6180  -10.7550 C.3       9 GLL5        0.0000 
     30 CA         35.2520  -40.8720  -13.2360 C.3       6 GLP5        0.0000 
     31 CA         37.4930  -39.0915  -11.2945 C.3       3 GLC5        0.0000 
     32 CA         36.1430  -37.5650  -11.8340 C.3       6 GLP5        0.0000 
     33 CA         38.1800  -39.8275   -9.2135 C.3       3 GLC5        0.0000 
     34 CA         44.7022  -35.5857  -15.8630 C.3       3 GLC5        0.0000 
     35 CA         46.3620  -36.2440  -15.8320 C.3       6 GLP5        0.0000 
     36 CA         44.9968  -35.4313  -16.8582 C.3       3 GLC5        0.0000 
     37 CA         43.3060  -35.2110  -17.7000 C.3       9 GLL5        0.0000 
     38 CA         45.1905  -34.7030  -16.1360 C.3       3 GLC5        0.0000 
     39 CA         43.8230  -33.2650  -15.7780 C.3       9 GLL5        0.0000 
     40 CA         43.6823  -36.5600  -10.2583 C.3       3 GLC5        0.0000 
     41 CA         42.5030  -34.9820   -9.7180 C.3       9 GLL5        0.0000 
     42 CA         41.1670  -33.9025   -9.7878 C.3       3 GLC5        0.0000 
     43 CA         42.4790  -35.3020  -11.1080 C.3       9 GLL5        0.0000 
     44 CA         40.2220  -32.2450   -9.9120 C.3       6 GLP5        0.0000 
     45 CA         43.9318  -38.9278  -11.9192 C.3       3 GLC5        0.0000 
     46 CA         42.1660  -39.9520  -12.5560 C.3       9 GLL5        0.0000 
     47 CA         45.7740  -37.9620  -11.9690 C.3       6 GLP5        0.0000 
     48 CA         44.5365  -40.1803   -9.0442 C.3       3 GLC5        0.0000 
     49 CA         44.2070  -40.8470  -10.8610 C.3       9 GLL5        0.0000 
     50 CA         45.4520  -39.7950   -7.4940 C.3       6 GLP5        0.0000 
     51 CA         45.0945  -40.9142  -14.1025 C.3       3 GLC5        0.0000 
     52 CA         44.3610  -40.9600  -12.2530 C.3       9 GLL5        0.0000 
     53 CA         46.3410  -41.0990  -15.5350 C.3       6 GLP5        0.0000 
     54 CA         45.2245  -42.4952  -11.0545 C.3       3 GLC5        0.0000 
     55 CA         46.1650  -44.0870  -10.5520 C.3       6 GLP5        0.0000 
     56 CA         44.9008  -39.3751  -11.8672 C.3       3 GLC5        0.0000 
     57 CA         41.9875  -33.1304  -17.0783 C.3       3 GLC5        0.0000 
     58 CA         42.9120  -35.4160  -16.3750 C.3       9 GLL5        0.0000 
     59 CA         40.1990  -32.3450  -17.1600 C.3       6 GLP5        0.0000 
@<TRIPOS>BOND
@<TRIPOS>SUBSTRUCTURE
     1 ALC1        1 GROUP        1 X    ALC  0     ROOT ALC X 1
     2 SEC2        4 GROUP        1 X    SEC  0     **** SEC X 2
     3 GLC5       10 GROUP        1 X    GLC  0     **** GLC X 6
     4 ALP1        3 GROUP        1 Y    ALP  0     ROOT ALP Y 8
     5 SEP2        6 GROUP        1 Y    SEP  0     **** SEP Y 9
     6 GLP5       12 GROUP        1 Y    GLP  0     **** GLP Y 13
     7 ALL1        2 GROUP        1 Z    ALL  0     ROOT ALL Z 15
     8 SEL2        5 GROUP        1 Z    SEL  0     **** SEL Z 16
     9 GLL5       11 GROUP        1 Z    GLL  0     **** GLL Z 20
@<TRIPOS>SET

