#    Name: 2v7a_627_2_ligand
#    Modification time : Tue Mar 25 01:06:20 2014

@<TRIPOS>MOLECULE
2v7a_627_2_ligand
   66    70     1     0     0
SMALL
NO_CHARGES


@<TRIPOS>ATOM
      1 N1         41.4600  -37.0030   -9.9480 N.am      1 6271504     0.0000 
      2 N2         43.2380  -33.8670   -9.5220 N.pl3     1 6271504     0.0000 
      3 C3         43.2420  -34.3140  -11.7090 C.2       1 6271504     0.0000 
      4 N4         43.7020  -33.4420  -10.7960 N.2       1 6271504     0.0000 
      5 N5         43.5350  -34.1570  -13.0270 N.am      1 6271504     0.0000 
      6 C6         42.7720  -34.6500  -13.9870 C.2       1 6271504     0.0000 
      7 C7         43.1730  -34.4390  -15.4130 C.ar      1 6271504     0.0000 
      8 O8         41.7690  -35.2910  -13.7310 O.2       1 6271504     0.0000 
      9 C9         42.9120  -35.4160  -16.3750 C.ar      1 6271504     0.0000 
     10 C10        43.3060  -35.2110  -17.7000 C.ar      1 6271504     0.0000 
     11 C11        44.2150  -33.0590  -17.1020 C.ar      1 6271504     0.0000 
     12 C12        43.8230  -33.2650  -15.7780 C.ar      1 6271504     0.0000 
     13 C13        42.5030  -34.9820   -9.7180 C.2       1 6271504     0.0000 
     14 C14        42.4790  -35.3020  -11.1080 C.2       1 6271504     0.0000 
     15 C15        41.6940  -36.5560  -11.3540 C.3       1 6271504     0.0000 
     16 C16        41.7330  -35.9780   -8.9140 C.3       1 6271504     0.0000 
     17 N17        44.3750  -33.7950  -19.3980 N.3       1 6271504     0.0000 
     18 C18        44.0430  -34.5990  -20.3430 C.3       1 6271504     0.0000 
     19 C19        44.7970  -34.7150  -21.4480 C.3       1 6271504     0.0000 
     20 N20        45.5940  -33.5990  -21.8640 N.4       1 6271504     0.0000 
     21 C21        46.2960  -33.0630  -20.6810 C.3       1 6271504     0.0000 
     22 C22        45.2260  -32.6220  -19.6690 C.3       1 6271504     0.0000 
     23 C23        46.5480  -33.9760  -22.9230 C.3       1 6271504     0.0000 
     24 C24        43.9570  -34.0260  -18.0690 C.ar      1 6271504     0.0000 
     25 C25        41.0350  -38.2220   -9.5800 C.2       1 6271504     0.0000 
     26 O26        40.8600  -38.5250   -8.3990 O.2       1 6271504     0.0000 
     27 C27        42.0130  -39.8350  -11.1830 C.ar      1 6271504     0.0000 
     28 C28        42.1660  -39.9520  -12.5560 C.ar      1 6271504     0.0000 
     29 C29        43.0350  -40.2840  -10.3280 C.ar      1 6271504     0.0000 
     30 C31        43.3350  -40.4990  -13.0870 C.ar      1 6271504     0.0000 
     31 C33        44.2070  -40.8470  -10.8610 C.ar      1 6271504     0.0000 
     32 C20        40.7580  -39.2530  -10.6350 C.3       1 6271504     0.0000 
     33 C35        44.3610  -40.9600  -12.2530 C.ar      1 6271504     0.0000 
     34 C36        38.8430  -40.6180  -10.7550 C.3       1 6271504     0.0000 
     35 O34        40.0100  -40.3010  -10.0010 O.3       1 6271504     0.0000 
     36 H          43.4313  -33.4224   -8.7121 H         1 6271504     0.0000 
     37 H          44.4132  -33.6155  -13.2782 H         1 6271504     0.0000 
     38 H          42.4321  -36.2828  -16.1108 H         1 6271504     0.0000 
     39 H          43.1184  -35.9313  -18.4083 H         1 6271504     0.0000 
     40 H          44.6968  -32.1875  -17.3621 H         1 6271504     0.0000 
     41 H          44.0171  -32.5429  -15.0703 H         1 6271504     0.0000 
     42 H          40.7791  -36.3264  -11.8246 H         1 6271504     0.0000 
     43 H          42.2846  -37.2598  -11.8708 H         1 6271504     0.0000 
     44 H          42.3413  -36.3750   -8.1463 H         1 6271504     0.0000 
     45 H          40.8318  -35.5480   -8.5676 H         1 6271504     0.0000 
     46 H          42.9323  -34.3894  -20.6829 H         1 6271504     0.0000 
     47 H          43.8654  -35.6827  -19.9104 H         1 6271504     0.0000 
     48 H          44.1519  -35.0319  -22.3528 H         1 6271504     0.0000 
     49 H          45.5003  -35.6286  -21.3701 H         1 6271504     0.0000 
     50 H          44.9360  -32.8088  -22.2491 H         1 6271504     0.0000 
     51 H          46.8948  -32.2034  -20.9432 H         1 6271504     0.0000 
     52 H          46.9118  -33.8212  -20.2203 H         1 6271504     0.0000 
     53 H          45.7213  -32.2866  -18.7714 H         1 6271504     0.0000 
     54 H          44.6524  -31.8193  -20.1052 H         1 6271504     0.0000 
     55 H          41.4182  -39.6359  -13.1885 H         1 6271504     0.0000 
     56 H          42.9244  -40.2002   -9.3125 H         1 6271504     0.0000 
     57 H          43.4472  -40.5658  -14.1121 H         1 6271504     0.0000 
     58 H          44.9477  -41.1744  -10.2357 H         1 6271504     0.0000 
     59 H          40.1851  -38.8077  -11.4206 H         1 6271504     0.0000 
     60 H          45.2041  -41.3699  -12.6460 H         1 6271504     0.0000 
     61 H          47.1026  -33.1977  -23.2175 H         1 6271504     0.0000 
     62 H          47.1805  -34.6875  -22.6170 H         1 6271504     0.0000 
     63 H          46.0818  -34.3276  -23.7348 H         1 6271504     0.0000 
     64 H          39.0700  -40.9252  -11.6792 H         1 6271504     0.0000 
     65 H          38.3105  -41.3477  -10.3260 H         1 6271504     0.0000 
     66 H          38.2360  -39.8289  -10.8493 H         1 6271504     0.0000 
@<TRIPOS>BOND
     1   15    1 1    
     2   16    1 1    
     3   25    1 am   
     4    4    2 1    
     5   13    2 1    
     6   36    2 1    
     7    4    3 2    
     8    5    3 am   
     9   14    3 1    
    10    6    5 am   
    11   37    5 1    
    12    7    6 1    
    13    8    6 2    
    14    9    7 ar   
    15   12    7 ar   
    16   10    9 ar   
    17   38    9 1    
    18   24   10 ar   
    19   39   10 1    
    20   12   11 ar   
    21   24   11 ar   
    22   40   11 1    
    23   41   12 1    
    24   14   13 2    
    25   16   13 1    
    26   15   14 1    
    27   42   15 1    
    28   43   15 1    
    29   44   16 1    
    30   45   16 1    
    31   18   17 1    
    32   22   17 1    
    33   24   17 1    
    34   19   18 1    
    35   46   18 1    
    36   47   18 1    
    37   20   19 1    
    38   48   19 1    
    39   49   19 1    
    40   21   20 1    
    41   23   20 1    
    42   50   20 1    
    43   22   21 1    
    44   51   21 1    
    45   52   21 1    
    46   53   22 1    
    47   54   22 1    
    48   61   23 1    
    49   62   23 1    
    50   63   23 1    
    51   26   25 2    
    52   32   25 1    
    53   28   27 ar   
    54   29   27 ar   
    55   32   27 1    
    56   30   28 ar   
    57   55   28 1    
    58   31   29 ar   
    59   56   29 1    
    60   33   30 ar   
    61   57   30 1    
    62   33   31 ar   
    63   58   31 1    
    64   35   32 1    
    65   59   32 1    
    66   60   33 1    
    67   35   34 1    
    68   64   34 1    
    69   65   34 1    
    70   66   34 1    
@<TRIPOS>SUBSTRUCTURE
     1 6271504     1 GROUP   
@<TRIPOS>SET

