#    Name: 3dlc_SAM_1_INTS_M
#    Modification time : Mon Mar 24 23:41:45 2014

@<TRIPOS>MOLECULE
3dlc_SAM_1_INTS_M
   84     0    12     0     0
SMALL
NO_CHARGES


@<TRIPOS>ATOM
      1 O           1.6475    6.1270   16.6010 O.2       1 ALC1        0.0000 
      2 O           2.1180    7.4490   16.7900 O.2       9 ALL1        0.0000 
      3 O           1.1770    4.8050   16.4120 O.2       5 ALP1        0.0000 
      4 O           3.4950    7.0415   16.4450 O.2       1 ALC1        0.0000 
      5 O           4.8720    6.6340   16.1000 O.2       5 ALP1        0.0000 
      6 NZ          4.8540    9.9240   18.2185 N.4       3 LYC4        0.0000 
      7 NZ          3.5310    9.5020   17.7090 N.4      11 LYL4        0.0000 
      8 NZ          7.0350   11.1970   18.2090 N.4       7 LYP4        0.0000 
      9 N           4.8540    9.9240   18.2185 N.am      2 SEC2        0.0000 
     10 N           3.5310    9.5020   17.7090 N.am     10 SEL2        0.0000 
     11 N           6.1770   10.3460   18.7280 N.am      6 SEP2        0.0000 
     12 N           2.5425   11.1865   19.7025 N.am      2 SEC2        0.0000 
     13 N           2.2020    9.9310   19.3540 N.am     10 SEL2        0.0000 
     14 N           2.8830   12.4420   20.0510 N.am      6 SEP2        0.0000 
     15 CA          1.9000    7.2355   21.3550 C.3       4 GLC5        0.0000 
     16 CA          2.1020    6.8880   19.1930 C.3      12 GLL5        0.0000 
     17 CA          1.6980    7.5830   23.5170 C.3       8 GLP5        0.0000 
     18 CA          0.4280    7.3335   20.3270 C.3       4 GLC5        0.0000 
     19 CA         -1.2460    7.7790   21.4610 C.3       8 GLP5        0.0000 
     20 CA          5.4380    6.2500   18.1845 C.3       4 GLC5        0.0000 
     21 CA          3.5310    6.4650   19.3100 C.3      12 GLL5        0.0000 
     22 CA          7.3450    6.0350   17.0590 C.3       8 GLP5        0.0000 
     23 CA          4.4595    6.7680   22.1260 C.3       4 GLC5        0.0000 
     24 CA          5.3400    5.6000   21.0370 C.3      12 GLL5        0.0000 
     25 CA          3.5790    7.9360   23.2150 C.3       8 GLP5        0.0000 
     26 CA          6.3425    5.8175   19.0480 C.3       4 GLC5        0.0000 
     27 CA          6.5310    3.8795   20.9335 C.3       4 GLC5        0.0000 
     28 CA          7.7220    2.1590   20.8300 C.3       8 GLP5        0.0000 
     29 CA          4.0535    2.2545   21.2830 C.3       4 GLC5        0.0000 
     30 CA          3.8510    3.6050   19.6200 C.3      12 GLL5        0.0000 
     31 CA          4.2560    0.9040   22.9460 C.3       8 GLP5        0.0000 
     32 CA          4.9570    3.0750   17.9250 C.3       4 GLC5        0.0000 
     33 CA          6.0630    2.5450   16.2300 C.3       8 GLP5        0.0000 
     34 CA          5.7865    2.8820   20.2250 C.3       4 GLC5        0.0000 
     35 CA          1.6760    2.7785   17.2530 C.3       4 GLC5        0.0000 
     36 CA          2.5530    2.8800   19.1540 C.3      12 GLL5        0.0000 
     37 CA          0.7990    2.6770   15.3520 C.3       8 GLP5        0.0000 
     38 CA          3.6360    2.6810   17.3250 C.3       4 GLC5        0.0000 
     39 CA          4.7190    2.4820   15.4960 C.3       8 GLP5        0.0000 
     40 N           3.3510    1.5375   16.9810 N.am      2 SEC2        0.0000 
     41 N           2.6950    1.7830   18.1930 N.am     10 SEL2        0.0000 
     42 N           4.0070    1.2920   15.7690 N.am      6 SEP2        0.0000 
     43 CA          0.8905    3.1215   21.9155 C.3       4 GLC5        0.0000 
     44 CA          1.6570    2.3820   20.3160 C.3      12 GLL5        0.0000 
     45 CA          0.1240    3.8610   23.5150 C.3       8 GLP5        0.0000 
     46 O          -0.3885    2.7290   19.2475 O.2       1 ALC1        0.0000 
     47 O           0.4270    3.0340   20.2330 O.2       9 ALL1        0.0000 
     48 O          -1.2040    2.4240   18.2620 O.2       5 ALP1        0.0000 
     49 O          -0.7845    0.4135   19.8685 O.2       1 ALC1        0.0000 
     50 O           0.3890    0.2310   20.5260 O.2       9 ALL1        0.0000 
     51 O          -1.9580    0.5960   19.2110 O.2       5 ALP1        0.0000 
     52 CA          1.2565    1.7420   16.9360 C.3       4 GLC5        0.0000 
     53 CA          1.7140    0.8070   18.5200 C.3      12 GLL5        0.0000 
     54 CA          0.2480   -3.6835   16.7535 C.3       4 GLC5        0.0000 
     55 CA          2.1280   -3.2970   15.8800 C.3      12 GLL5        0.0000 
     56 CA         -1.6320   -4.0700   17.6270 C.3       8 GLP5        0.0000 
     57 CA          2.7770   -3.6060   14.0370 C.3       4 GLC5        0.0000 
     58 CA          3.4260   -3.9150   12.1940 C.3       8 GLP5        0.0000 
     59 O           2.0150   -5.4715   14.8255 O.2       1 ALC1        0.0000 
     60 O           2.7850   -4.4500   15.6570 O.2       9 ALL1        0.0000 
     61 O           1.2450   -6.4930   13.9940 O.2       5 ALP1        0.0000 
     62 N           0.7000   -3.6475   13.7065 N.am      2 SEC2        0.0000 
     63 N           1.0300   -3.0300   15.1390 N.am     10 SEL2        0.0000 
     64 N           0.3700   -4.2650   12.2740 N.am      6 SEP2        0.0000 
     65 CA         -1.3910   -0.7660   15.8435 C.3       4 GLC5        0.0000 
     66 CA          0.2760   -1.9000   15.3540 C.3      12 GLL5        0.0000 
     67 CA         -3.0580    0.3680   16.3330 C.3       8 GLP5        0.0000 
     68 CA         -0.6780   -2.9850   16.4905 C.3       4 GLC5        0.0000 
     69 CA         -0.5650   -3.5275   14.4970 C.3       4 GLC5        0.0000 
     70 CA         -1.4060   -5.1550   13.6400 C.3       8 GLP5        0.0000 
     71 N          -0.9820   -1.3635   16.8570 N.am      2 SEC2        0.0000 
     72 N           0.5570   -0.9820   16.3220 N.am     10 SEL2        0.0000 
     73 N          -2.5210   -1.7450   17.3920 N.am      6 SEP2        0.0000 
     74 CA          1.2325    0.7225   16.1835 C.3       4 GLC5        0.0000 
     75 CA          1.6660   -1.2320   17.0150 C.3      12 GLL5        0.0000 
     76 CA          0.0170   -2.6510   17.3210 C.3       4 GLC5        0.0000 
     77 CA          0.2218    6.4775   19.0990 C.3       4 GLC5        0.0000 
     78 CA         -1.5110    5.5350   19.5250 C.3       8 GLP5        0.0000 
     79 CA          3.5910    6.8835   21.5812 C.3       4 GLC5        0.0000 
     80 CA          2.2940    1.1685   21.8313 C.3       4 GLC5        0.0000 
     81 CA          2.9870    0.7060   23.4810 C.3       8 GLP5        0.0000 
     82 CA          1.3432   -1.0383   19.6873 C.3       4 GLC5        0.0000 
     83 CA          1.5450    0.8800   20.0470 C.3      12 GLL5        0.0000 
     84 CA          1.0570   -2.9200   20.0910 C.3       8 GLP5        0.0000 
@<TRIPOS>BOND
@<TRIPOS>SUBSTRUCTURE
     1 ALC1        1 GROUP        1 X    ALC  0     ROOT ALC X 1
     2 SEC2        9 GROUP        1 X    SEC  0     **** SEC X 2
     3 LYC4        6 GROUP        1 X    LYC  0     **** LYC X 4
     4 GLC5       15 GROUP        1 X    GLC  0     **** GLC X 6
     5 ALP1        3 GROUP        1 Y    ALP  0     ROOT ALP Y 8
     6 SEP2       11 GROUP        1 Y    SEP  0     **** SEP Y 9
     7 LYP4        8 GROUP        1 Y    LYP  0     **** LYP Y 11
     8 GLP5       17 GROUP        1 Y    GLP  0     **** GLP Y 13
     9 ALL1        2 GROUP        1 Z    ALL  0     ROOT ALL Z 15
    10 SEL2       10 GROUP        1 Z    SEL  0     **** SEL Z 16
    11 LYL4        7 GROUP        1 Z    LYL  0     **** LYL Z 18
    12 GLL5       16 GROUP        1 Z    GLL  0     **** GLL Z 20
@<TRIPOS>SET

