#    Name: 3dlc_SAM_1_ligand
#    Modification time : Mon Mar 24 23:41:45 2014

@<TRIPOS>MOLECULE
3dlc_SAM_1_ligand
   50    52     1     0     0
SMALL
NO_CHARGES


@<TRIPOS>ATOM
      1 N           2.1180    7.4490   16.7900 N.4       1 SAM220      0.0000 
      2 CA          1.8070    7.9520   18.1530 C.3       1 SAM220      0.0000 
      3 C           2.5560    9.2300   18.4130 C.2       1 SAM220      0.0000 
      4 O           3.5310    9.5020   17.7090 O.co2     1 SAM220      0.0000 
      5 OXT         2.2020    9.9310   19.3540 O.co2     1 SAM220      0.0000 
      6 CB          2.1020    6.8880   19.1930 C.3       1 SAM220      0.0000 
      7 CG          3.5310    6.4650   19.3100 C.3       1 SAM220      0.0000 
      8 SD          3.6750    5.1970   20.5850 S.3       1 SAM220      0.0000 
      9 CE          5.3400    5.6000   21.0370 C.3       1 SAM220      0.0000 
     10 C5'         3.8510    3.6050   19.6200 C.3       1 SAM220      0.0000 
     11 C4'         2.5530    2.8800   19.1540 C.3       1 SAM220      0.0000 
     12 O4'         2.6950    1.7830   18.1930 O.3       1 SAM220      0.0000 
     13 C3'         1.6570    2.3820   20.3160 C.3       1 SAM220      0.0000 
     14 O3'         0.4270    3.0340   20.2330 O.3       1 SAM220      0.0000 
     15 C2'         1.5450    0.8800   20.0470 C.3       1 SAM220      0.0000 
     16 O2'         0.3890    0.2310   20.5260 O.3       1 SAM220      0.0000 
     17 C1'         1.7140    0.8070   18.5200 C.3       1 SAM220      0.0000 
     18 N9          2.2090   -0.4890   18.0290 N.pl3     1 SAM220      0.0000 
     19 C8          3.3500   -1.1370   18.4400 C.2       1 SAM220      0.0000 
     20 N7          3.5450   -2.2650   17.7160 N.2       1 SAM220      0.0000 
     21 C5          2.4940   -2.3510   16.8410 C.ar      1 SAM220      0.0000 
     22 C6          2.1280   -3.2970   15.8800 C.ar      1 SAM220      0.0000 
     23 N6          2.7850   -4.4500   15.6570 N.pl3     1 SAM220      0.0000 
     24 N1          1.0300   -3.0300   15.1390 N.ar      1 SAM220      0.0000 
     25 C2          0.2760   -1.9000   15.3540 C.ar      1 SAM220      0.0000 
     26 N3          0.5570   -0.9820   16.3220 N.ar      1 SAM220      0.0000 
     27 C4          1.6660   -1.2320   17.0150 C.ar      1 SAM220      0.0000 
     28 H           0.7309    8.1741   18.1968 H         1 SAM220      0.0000 
     29 H           1.4710    5.9944   18.9710 H         1 SAM220      0.0000 
     30 H           1.7452    7.2564   20.1844 H         1 SAM220      0.0000 
     31 H           4.1853    7.2219   19.6714 H         1 SAM220      0.0000 
     32 H           3.9131    5.9651   18.4522 H         1 SAM220      0.0000 
     33 H           4.4531    3.0071   20.3051 H         1 SAM220      0.0000 
     34 H           4.4822    3.9278   18.7913 H         1 SAM220      0.0000 
     35 H           1.9148    3.6814   18.6467 H         1 SAM220      0.0000 
     36 H           2.1905    2.5318   21.2101 H         1 SAM220      0.0000 
     37 H           2.4781    0.4377   20.4515 H         1 SAM220      0.0000 
     38 H           0.7778    1.0567   18.0649 H         1 SAM220      0.0000 
     39 H           3.9306   -0.8193   19.1546 H         1 SAM220      0.0000 
     40 H           2.2256   -5.2258   15.3652 H         1 SAM220      0.0000 
     41 H           3.7740   -4.4282   15.8030 H         1 SAM220      0.0000 
     42 H          -0.5664   -1.7389   14.7321 H         1 SAM220      0.0000 
     43 H           3.0936    7.2603   16.6774 H         1 SAM220      0.0000 
     44 H           1.6299    6.6001   16.5871 H         1 SAM220      0.0000 
     45 H           1.8637    8.1094   16.0834 H         1 SAM220      0.0000 
     46 H           5.7364    4.9125   21.6454 H         1 SAM220      0.0000 
     47 H           5.9371    5.6629   20.2373 H         1 SAM220      0.0000 
     48 H           5.3936    6.4780   21.5126 H         1 SAM220      0.0000 
     49 H          -0.0026    2.6716   19.4059 H         1 SAM220      0.0000 
     50 H          -0.3349    0.4852   19.8846 H         1 SAM220      0.0000 
@<TRIPOS>BOND
     1    2    1 1    
     2   43    1 1    
     3   44    1 1    
     4   45    1 1    
     5    3    2 1    
     6    6    2 1    
     7   28    2 1    
     8    4    3 ar   
     9    5    3 ar   
    10    7    6 1    
    11   29    6 1    
    12   30    6 1    
    13    8    7 1    
    14   31    7 1    
    15   32    7 1    
    16    9    8 1    
    17   10    8 1    
    18   46    9 1    
    19   47    9 1    
    20   48    9 1    
    21   11   10 1    
    22   33   10 1    
    23   34   10 1    
    24   12   11 1    
    25   13   11 1    
    26   35   11 1    
    27   17   12 1    
    28   14   13 1    
    29   15   13 1    
    30   36   13 1    
    31   49   14 1    
    32   16   15 1    
    33   17   15 1    
    34   37   15 1    
    35   50   16 1    
    36   18   17 1    
    37   38   17 1    
    38   19   18 1    
    39   27   18 1    
    40   20   19 2    
    41   39   19 1    
    42   21   20 1    
    43   22   21 ar   
    44   27   21 ar   
    45   23   22 1    
    46   24   22 ar   
    47   40   23 1    
    48   41   23 1    
    49   25   24 ar   
    50   26   25 ar   
    51   42   25 1    
    52   27   26 ar   
@<TRIPOS>SUBSTRUCTURE
     1 SAM220      1 GROUP   
@<TRIPOS>SET

