#    Name: 3ig6_438_1_INTS_M
#    Modification time : Tue Mar 25 16:28:24 2014

@<TRIPOS>MOLECULE
3ig6_438_1_INTS_M
  106     0    12     0     0
SMALL
NO_CHARGES


@<TRIPOS>ATOM
      1 OD1        13.7490    2.9985   -3.2390 O.co2     3 ASC3        0.0000 
      2 OD1        14.6630    2.5310   -1.6670 O.co2    11 ASL3        0.0000 
      3 OD1        12.8350    3.4660   -4.8110 O.co2     7 ASP3        0.0000 
      4 OD1        13.7605    3.4580   -2.2460 O.co2     3 ASC3        0.0000 
      5 OD1        12.8580    4.3850   -2.8250 O.co2     7 ASP3        0.0000 
      6 O          13.7605    3.4580   -2.2460 O.2       1 ALC1        0.0000 
      7 O          14.6630    2.5310   -1.6670 O.2       9 ALL1        0.0000 
      8 O          12.8580    4.3850   -2.8250 O.2       5 ALP1        0.0000 
      9 O          13.5005    1.7305   -1.7935 O.2       1 ALC1        0.0000 
     10 O          12.3380    0.9300   -1.9200 O.2       5 ALP1        0.0000 
     11 O          14.7235    3.2210   -0.3310 O.2       1 ALC1        0.0000 
     12 O          14.7840    3.9110    1.0050 O.2       5 ALP1        0.0000 
     13 CA         16.3380    3.1375   -3.7060 C.3       4 GLC5        0.0000 
     14 CA         16.0800    2.1570   -1.7790 C.3      12 GLL5        0.0000 
     15 CA         16.5960    4.1180   -5.6330 C.3       8 GLP5        0.0000 
     16 CA         17.8445   -3.5910   -1.7560 C.3       4 GLC5        0.0000 
     17 CA         16.9000   -1.5950   -1.3520 C.3      12 GLL5        0.0000 
     18 CA         18.7890   -5.5870   -2.1600 C.3       8 GLP5        0.0000 
     19 CA         15.1355   -0.5305   -3.2170 C.3       4 GLC5        0.0000 
     20 CA         16.6820   -0.3220   -1.9450 C.3      12 GLL5        0.0000 
     21 CA         13.5890   -0.7390   -4.4890 C.3       8 GLP5        0.0000 
     22 CA         14.2315    0.9865    1.0520 C.3       4 GLC5        0.0000 
     23 CA         16.1350    0.6150    0.2700 C.3      12 GLL5        0.0000 
     24 CA         12.3280    1.3580    1.8340 C.3       8 GLP5        0.0000 
     25 CA         15.7655   -3.2840    4.5025 C.3       4 GLC5        0.0000 
     26 CA         16.8810   -1.9230    4.4540 C.3      12 GLL5        0.0000 
     27 CA         14.6500   -4.6450    4.5510 C.3       8 GLP5        0.0000 
     28 CA         19.7465   -4.2005    6.2045 C.3       4 GLC5        0.0000 
     29 CA         19.0340   -2.8730    4.7300 C.3      12 GLL5        0.0000 
     30 CA         20.4590   -5.5280    7.6790 C.3       8 GLP5        0.0000 
     31 CA         20.9515   -5.2780    5.0990 C.3       4 GLC5        0.0000 
     32 CA         20.6180   -4.1560    3.4670 C.3      12 GLL5        0.0000 
     33 CA         21.2850   -6.4000    6.7310 C.3       8 GLP5        0.0000 
     34 CA         19.2455    0.5645    6.4725 C.3       4 GLC5        0.0000 
     35 CA         19.5910   -0.7020    5.5180 C.3      12 GLL5        0.0000 
     36 CA         18.9000    1.8310    7.4270 C.3       8 GLP5        0.0000 
     37 CA         19.5355   -1.4310    7.2000 C.3       4 GLC5        0.0000 
     38 CA         19.4800   -2.1600    8.8820 C.3       8 GLP5        0.0000 
     39 CA         16.0575   -7.3310    1.3465 C.3       4 GLC5        0.0000 
     40 CA         18.0230   -7.5350    2.0120 C.3      12 GLL5        0.0000 
     41 CA         14.0920   -7.1270    0.6810 C.3       8 GLP5        0.0000 
     42 CA         18.7960   -5.9685   -0.0680 C.3       4 GLC5        0.0000 
     43 CA         18.8030   -6.3500    2.0240 C.3      12 GLL5        0.0000 
     44 N          15.7850   -5.4420    1.0540 N.am      2 SEC2        0.0000 
     45 N          17.1170   -5.0530    0.8790 N.am     10 SEL2        0.0000 
     46 N          14.4530   -5.8310    1.2290 N.am      6 SEP2        0.0000 
     47 N          18.0295   -4.6365   -0.4670 N.am      2 SEC2        0.0000 
     48 N          18.9420   -4.2200   -1.8130 N.am      6 SEP2        0.0000 
     49 N          20.4580   -4.6790    0.3785 N.am      2 SEC2        0.0000 
     50 N          19.1850   -4.2720    0.8550 N.am     10 SEL2        0.0000 
     51 N          21.7310   -5.0860   -0.0980 N.am      6 SEP2        0.0000 
     52 N          19.0635   -4.2460   -0.4790 N.am      2 SEC2        0.0000 
     53 CA         19.4785  -12.1435    2.3275 C.3       4 GLC5        0.0000 
     54 CA         19.3860  -11.1220    3.9790 C.3      12 GLL5        0.0000 
     55 CA         19.5710  -13.1650    0.6760 C.3       8 GLP5        0.0000 
     56 CA         17.8385  -11.6750    5.2920 C.3       4 GLC5        0.0000 
     57 CA         16.2910  -12.2280    6.6050 C.3       8 GLP5        0.0000 
     58 CA         21.3895   -8.1555    5.7130 C.3       4 GLC5        0.0000 
     59 CA         21.4940   -9.9110    4.6950 C.3      12 GLL5        0.0000 
     60 CA         25.1810    0.6260    6.9065 C.3       4 GLC5        0.0000 
     61 CA         23.7950    0.4740    5.3980 C.3      12 GLL5        0.0000 
     62 CA         26.5670    0.7780    8.4150 C.3       8 GLP5        0.0000 
     63 CA         20.6120    0.9580    6.4525 C.3       4 GLC5        0.0000 
     64 CA         22.3240    0.0850    5.4780 C.3      12 GLL5        0.0000 
     65 CA         27.7865   -0.7185    2.8415 C.3       4 GLC5        0.0000 
     66 CA         26.2630   -0.4100    3.7870 C.3      12 GLL5        0.0000 
     67 CA         29.3100   -1.0270    1.8960 C.3       8 GLP5        0.0000 
     68 CA         27.4125   -0.0025    1.9420 C.3       4 GLC5        0.0000 
     69 CA         25.5150    1.0220    1.9880 C.3      12 GLL5        0.0000 
     70 CA         25.6700    3.1615    2.0225 C.3       4 GLC5        0.0000 
     71 CA         25.8250    5.3010    2.0570 C.3       8 GLP5        0.0000 
     72 CA         26.0280    2.1210    0.4695 C.3       4 GLC5        0.0000 
     73 CA         26.5410    3.2200   -1.0490 C.3       8 GLP5        0.0000 
     74 CA         25.5285   -0.4145    0.3855 C.3       4 GLC5        0.0000 
     75 CA         25.5420   -1.8510   -1.2170 C.3       8 GLP5        0.0000 
     76 CA         17.6397    2.8558   -1.4410 C.3       4 GLC5        0.0000 
     77 CA         16.3010    0.7820   -1.1370 C.3      12 GLL5        0.0000 
     78 CA         19.0890    4.2420   -1.4240 C.3       8 GLP5        0.0000 
     79 CA         14.5060   -1.2138    0.1358 C.3       4 GLC5        0.0000 
     80 CA         16.3480   -0.6640    0.8860 C.3      12 GLL5        0.0000 
     81 CA         12.4700   -1.2120   -0.1970 C.3       8 GLP5        0.0000 
     82 CA         15.2685   -2.4527    1.3718 C.3       4 GLC5        0.0000 
     83 CA         13.9950   -3.6900    2.2750 C.3       8 GLP5        0.0000 
     84 CA         16.8105   -1.8363   -3.2963 C.3       4 GLC5        0.0000 
     85 CA         16.8300   -2.7140   -4.9440 C.3       8 GLP5        0.0000 
     86 CA         18.5778    0.5660   -1.8810 C.3       4 GLC5        0.0000 
     87 CA         20.6640    0.9020   -2.2210 C.3       8 GLP5        0.0000 
     88 CA         14.3440   -0.2567   -0.3153 C.3       4 GLC5        0.0000 
     89 CA         14.6197   -2.1985    4.2905 C.3       4 GLC5        0.0000 
     90 CA         15.8850   -1.1760    5.1430 C.3      12 GLL5        0.0000 
     91 CA         13.7690   -3.6770    3.7900 C.3       8 GLP5        0.0000 
     92 CA         16.6247    0.1316    5.9949 C.3       4 GLC5        0.0000 
     93 CA         15.0560   -0.2640    4.4390 C.3      12 GLL5        0.0000 
     94 CA         17.5300    1.1700    7.3710 C.3       8 GLP5        0.0000 
     95 CA         13.5077    0.1635    2.6311 C.3       4 GLC5        0.0000 
     96 CA         14.9550   -2.1892    2.5635 C.3       4 GLC5        0.0000 
     97 CA         15.2130   -0.0880    3.0370 C.3      12 GLL5        0.0000 
     98 CA         22.4099   -4.5461    1.8623 C.3       4 GLC5        0.0000 
     99 CA         22.7830   -3.3390    2.9980 C.3      12 GLL5        0.0000 
    100 CA         22.8770   -5.5960    0.4620 C.3       8 GLP5        0.0000 
    101 CA         19.0488   -9.1515    1.0587 C.3       4 GLC5        0.0000 
    102 CA         19.7140   -8.7030    3.4060 C.3      12 GLL5        0.0000 
    103 CA         19.0070   -9.6050   -0.9300 C.3       8 GLP5        0.0000 
    104 CA         20.6390   -7.1044    4.9895 C.3       4 GLC5        0.0000 
    105 CA         18.7100   -8.2737    0.5440 C.3       4 GLC5        0.0000 
    106 CA         21.2073   -6.1141    1.5095 C.3       4 GLC5        0.0000 
@<TRIPOS>BOND
@<TRIPOS>SUBSTRUCTURE
     1 ALC1        6 GROUP        1 X    ALC  0     ROOT ALC X 1
     2 SEC2       44 GROUP        1 X    SEC  0     **** SEC X 2
     3 ASC3        1 GROUP        1 X    ASC  0     **** ASC X 3
     4 GLC5       13 GROUP        1 X    GLC  0     **** GLC X 6
     5 ALP1        8 GROUP        1 Y    ALP  0     ROOT ALP Y 8
     6 SEP2       46 GROUP        1 Y    SEP  0     **** SEP Y 9
     7 ASP3        3 GROUP        1 Y    ASP  0     **** ASP Y 10
     8 GLP5       15 GROUP        1 Y    GLP  0     **** GLP Y 13
     9 ALL1        7 GROUP        1 Z    ALL  0     ROOT ALL Z 15
    10 SEL2       45 GROUP        1 Z    SEL  0     **** SEL Z 16
    11 ASL3        2 GROUP        1 Z    ASL  0     **** ASL Z 17
    12 GLL5       14 GROUP        1 Z    GLL  0     **** GLL Z 20
@<TRIPOS>SET

