#    Name: 3ig6_438_1_ligand
#    Modification time : Tue Mar 25 16:28:25 2014

@<TRIPOS>MOLECULE
3ig6_438_1_ligand
   81    85     1     0     0
SMALL
NO_CHARGES


@<TRIPOS>ATOM
      1 N1         14.6630    2.5310   -1.6670 N.4       1 438400      0.0000 
      2 C2         16.0800    2.1570   -1.7790 C.3       1 438400      0.0000 
      3 C3         16.3480   -0.6640    0.8860 C.ar      1 438400      0.0000 
      4 C4         16.7360   -1.7670    0.0510 C.ar      1 438400      0.0000 
      5 C5         16.9000   -1.5950   -1.3520 C.ar      1 438400      0.0000 
      6 C6         16.6820   -0.3220   -1.9450 C.ar      1 438400      0.0000 
      7 C7         16.3010    0.7820   -1.1370 C.ar      1 438400      0.0000 
      8 C8         16.1350    0.6150    0.2700 C.ar      1 438400      0.0000 
      9 C9         16.2030   -0.8280    2.3060 C.ar      1 438400      0.0000 
     10 C10        17.0310   -1.7500    3.0280 C.ar      1 438400      0.0000 
     11 C11        16.8810   -1.9230    4.4540 C.ar      1 438400      0.0000 
     12 C12        15.8850   -1.1760    5.1430 C.ar      1 438400      0.0000 
     13 C13        15.0560   -0.2640    4.4390 C.ar      1 438400      0.0000 
     14 C14        15.2130   -0.0880    3.0370 C.ar      1 438400      0.0000 
     15 O15        17.7350   -2.7360    5.2120 O.3       1 438400      0.0000 
     16 N16        19.3800   -3.9960    4.0400 N.pl3     1 438400      0.0000 
     17 C17        19.0340   -2.8730    4.7300 C.ar      1 438400      0.0000 
     18 C18        19.9720   -1.8200    4.8780 C.ar      1 438400      0.0000 
     19 C19        21.2800   -1.9430    4.3020 C.ar      1 438400      0.0000 
     20 C20        21.5870   -3.1510    3.5870 C.ar      1 438400      0.0000 
     21 C21        20.6180   -4.1560    3.4670 C.ar      1 438400      0.0000 
     22 F22        19.5910   -0.7020    5.5180 F         1 438400      0.0000 
     23 N23        22.1950   -0.9100    4.3660 N.3       1 438400      0.0000 
     24 F24        22.7830   -3.3390    2.9980 F         1 438400      0.0000 
     25 O25        20.9010   -5.2430    2.6630 O.3       1 438400      0.0000 
     26 C26        20.0530   -6.3310    2.7490 C.ar      1 438400      0.0000 
     27 C27        20.4910   -7.4980    3.4310 C.ar      1 438400      0.0000 
     28 C28        19.7140   -8.7030    3.4060 C.ar      1 438400      0.0000 
     29 N29        20.1700   -9.8590    4.0210 N.pl3     1 438400      0.0000 
     30 C30        18.4670   -8.6930    2.6890 C.ar      1 438400      0.0000 
     31 C31        18.0230   -7.5350    2.0120 C.ar      1 438400      0.0000 
     32 C32        18.8030   -6.3500    2.0240 C.ar      1 438400      0.0000 
     33 C33        18.3290   -5.1230    1.1960 C.2       1 438400      0.0000 
     34 O34        17.1170   -5.0530    0.8790 O.co2     1 438400      0.0000 
     35 O35        19.1850   -4.2720    0.8550 O.co2     1 438400      0.0000 
     36 C36        19.3860  -11.1220    3.9790 C.3       1 438400      0.0000 
     37 C37        21.4940   -9.9110    4.6950 C.3       1 438400      0.0000 
     38 C38        23.2270   -0.6110    3.3290 C.3       1 438400      0.0000 
     39 C39        23.9520    0.6380    3.8860 C.3       1 438400      0.0000 
     40 C40        23.7950    0.4740    5.3980 C.3       1 438400      0.0000 
     41 C41        22.3240    0.0850    5.4780 C.3       1 438400      0.0000 
     42 N42        25.4030    0.7680    3.4450 N.4       1 438400      0.0000 
     43 C43        26.2630   -0.4100    3.7870 C.3       1 438400      0.0000 
     44 C44        25.5150    1.0220    1.9880 C.3       1 438400      0.0000 
     45 H          16.7141    2.8800   -1.2666 H         1 438400      0.0000 
     46 H          16.3853    2.1002   -2.8235 H         1 438400      0.0000 
     47 H          16.8944   -2.6819    0.4747 H         1 438400      0.0000 
     48 H          17.1742   -2.3865   -1.9318 H         1 438400      0.0000 
     49 H          16.7991   -0.2019   -2.9494 H         1 438400      0.0000 
     50 H          15.8623    1.4100    0.8475 H         1 438400      0.0000 
     51 H          17.7363   -2.2927    2.5319 H         1 438400      0.0000 
     52 H          15.7672   -1.2979    6.1498 H         1 438400      0.0000 
     53 H          14.3442    0.2680    4.9402 H         1 438400      0.0000 
     54 H          14.6154    0.5735    2.5364 H         1 438400      0.0000 
     55 H          18.6759   -4.7719    3.9399 H         1 438400      0.0000 
     56 H          21.3730   -7.4842    3.9492 H         1 438400      0.0000 
     57 H          17.8989   -9.5458    2.6755 H         1 438400      0.0000 
     58 H          17.1321   -7.5486    1.5083 H         1 438400      0.0000 
     59 H          22.7740   -0.3584    2.4029 H         1 438400      0.0000 
     60 H          23.9270   -1.4049    3.2486 H         1 438400      0.0000 
     61 H          23.3776    1.5001    3.5910 H         1 438400      0.0000 
     62 H          23.9505    1.3939    5.8742 H         1 438400      0.0000 
     63 H          24.3950   -0.3157    5.7349 H         1 438400      0.0000 
     64 H          22.1293   -0.3732    6.4124 H         1 438400      0.0000 
     65 H          21.7222    0.9352    5.2889 H         1 438400      0.0000 
     66 H          25.8320    1.6526    3.9641 H         1 438400      0.0000 
     67 H          14.0660    1.7288   -1.6674 H         1 438400      0.0000 
     68 H          14.4773    3.0341   -0.8229 H         1 438400      0.0000 
     69 H          14.3716    3.1137   -2.4257 H         1 438400      0.0000 
     70 H          19.2375  -11.4359    3.0412 H         1 438400      0.0000 
     71 H          19.8486  -11.8627    4.4663 H         1 438400      0.0000 
     72 H          18.4845  -11.0136    4.3980 H         1 438400      0.0000 
     73 H          22.2416   -9.7144    4.0607 H         1 438400      0.0000 
     74 H          21.5584   -9.2459    5.4390 H         1 438400      0.0000 
     75 H          21.6743  -10.8116    5.0905 H         1 438400      0.0000 
     76 H          27.2067   -0.2820    3.4819 H         1 438400      0.0000 
     77 H          26.2934   -0.5738    4.7730 H         1 438400      0.0000 
     78 H          25.9285   -1.2503    3.3604 H         1 438400      0.0000 
     79 H          26.4681    1.1109    1.6987 H         1 438400      0.0000 
     80 H          25.1132    0.2811    1.4499 H         1 438400      0.0000 
     81 H          25.0478    1.8649    1.7210 H         1 438400      0.0000 
@<TRIPOS>BOND
     1    2    1 1    
     2   67    1 1    
     3   68    1 1    
     4   69    1 1    
     5    7    2 1    
     6   45    2 1    
     7   46    2 1    
     8    4    3 ar   
     9    8    3 ar   
    10    9    3 1    
    11    5    4 ar   
    12   47    4 1    
    13    6    5 ar   
    14   48    5 1    
    15    7    6 ar   
    16   49    6 1    
    17    8    7 ar   
    18   50    8 1    
    19   10    9 ar   
    20   14    9 ar   
    21   11   10 ar   
    22   51   10 1    
    23   12   11 ar   
    24   15   11 1    
    25   13   12 ar   
    26   52   12 1    
    27   14   13 ar   
    28   53   13 1    
    29   54   14 1    
    30   17   15 1    
    31   17   16 ar   
    32   21   16 ar   
    33   55   16 1    
    34   18   17 ar   
    35   19   18 ar   
    36   22   18 1    
    37   20   19 ar   
    38   23   19 1    
    39   21   20 ar   
    40   24   20 1    
    41   25   21 1    
    42   38   23 1    
    43   41   23 1    
    44   26   25 1    
    45   27   26 ar   
    46   32   26 ar   
    47   28   27 ar   
    48   56   27 1    
    49   29   28 1    
    50   30   28 ar   
    51   36   29 1    
    52   37   29 1    
    53   31   30 ar   
    54   57   30 1    
    55   32   31 ar   
    56   58   31 1    
    57   33   32 1    
    58   34   33 ar   
    59   35   33 ar   
    60   70   36 1    
    61   71   36 1    
    62   72   36 1    
    63   73   37 1    
    64   74   37 1    
    65   75   37 1    
    66   39   38 1    
    67   59   38 1    
    68   60   38 1    
    69   40   39 1    
    70   42   39 1    
    71   61   39 1    
    72   41   40 1    
    73   62   40 1    
    74   63   40 1    
    75   64   41 1    
    76   65   41 1    
    77   43   42 1    
    78   44   42 1    
    79   66   42 1    
    80   76   43 1    
    81   77   43 1    
    82   78   43 1    
    83   79   44 1    
    84   80   44 1    
    85   81   44 1    
@<TRIPOS>SUBSTRUCTURE
     1 438400      1 GROUP   
@<TRIPOS>SET

