#    Name: 2AZR_1_CAVITY_N1_ALL.mol2
#    Modification time : Tue Mar 11 02:47:40 2014

@<TRIPOS>MOLECULE
2AZR_1_CAVITY_N1_ALL.mol2
   49     0     6     0     0
SMALL
NO_CHARGES


@<TRIPOS>ATOM
      1 CZ         44.7260   17.2585   -1.0892 C.ar      4 PHE5        0.0000 
      2 CZ         44.9493   15.1838   -0.7076 C.ar      4 PHE5        0.0000 
      3 OG         43.7903   16.0895   -1.0014 O.2       1 SER1        0.0000 
      4 CZ         46.3317   12.2034   -0.0320 C.ar      4 PHE5        0.0000 
      5 CZ         45.1726   13.1091   -0.3259 C.ar      4 PHE5        0.0000 
      6 CZ         44.0136   14.0147   -0.6198 C.ar      4 PHE5        0.0000 
      7 OG         42.8545   14.9204   -0.9136 O.2       1 SER1        0.0000 
      8 DU         45.3959   11.0344    0.0558 H         6 CUB7        0.0000 
      9 CZ         44.2369   11.9400   -0.2381 C.ar      4 PHE5        0.0000 
     10 CA         45.6192    8.9596    0.4375 C.3       5 GLY6        0.0000 
     11 CA         44.4602    9.8653    0.1436 C.3       5 GLY6        0.0000 
     12 OD1        44.5500   17.5097    0.3791 O.3       3 ASP3        0.0000 
     13 CZ         44.7733   15.4350    0.7607 C.ar      4 PHE5        0.0000 
     14 OG         43.6142   16.3406    0.4669 O.2       1 SER1        0.0000 
     15 N          47.3147   11.5489    1.7302 N.2       2 ALA2        0.0000 
     16 CZ         46.1556   12.4546    1.4363 C.ar      4 PHE5        0.0000 
     17 CZ         44.9966   13.3602    1.1424 C.ar      4 PHE5        0.0000 
     18 CZ         43.8375   14.2659    0.8485 C.ar      4 PHE5        0.0000 
     19 CA         46.3789   10.3799    1.8180 C.3       5 GLY6        0.0000 
     20 CA         45.2199   11.2855    1.5241 C.3       5 GLY6        0.0000 
     21 CZ         44.0608   12.1912    1.2302 C.ar      4 PHE5        0.0000 
     22 CA         44.2841   10.1165    1.6119 C.3       5 GLY6        0.0000 
     23 CZ         46.6920   15.9495    2.4351 C.ar      4 PHE5        0.0000 
     24 CZ         45.5330   16.8552    2.1413 C.ar      4 PHE5        0.0000 
     25 CA         44.3739   17.7609    1.8474 C.3       5 GLY6        0.0000 
     26 CZ         46.9153   13.8748    2.8168 C.ar      4 PHE5        0.0000 
     27 CZ         45.7563   14.7805    2.5229 C.ar      4 PHE5        0.0000 
     28 CZ         44.5972   15.6861    2.2291 C.ar      4 PHE5        0.0000 
     29 CA         43.4382   16.5918    1.9352 C.3       5 GLY6        0.0000 
     30 N          47.1386   11.8001    3.1985 N.2       2 ALA2        0.0000 
     31 CA         45.9796   12.7058    2.9046 C.3       5 GLY6        0.0000 
     32 CA         44.8205   13.6114    2.6107 C.3       5 GLY6        0.0000 
     33 CZ         43.6615   14.5171    2.3169 C.ar      4 PHE5        0.0000 
     34 CA         46.2029   10.6310    3.2863 C.3       5 GLY6        0.0000 
     35 CA         45.0438   11.5367    2.9924 C.3       5 GLY6        0.0000 
     36 O          48.6108   16.4641    4.1095 O.2       2 ALA2        0.0000 
     37 O          47.4518   17.3697    3.8157 O.2       2 ALA2        0.0000 
     38 CA         46.2927   18.2754    3.5218 C.3       5 GLY6        0.0000 
     39 CA         47.6751   15.2950    4.1973 C.3       5 GLY6        0.0000 
     40 DU         46.5160   16.2007    3.9035 H         6 CUB7        0.0000 
     41 O          45.3570   17.1064    3.6096 O.2       2 ALA2        0.0000 
     42 CA         46.7393   14.1260    4.2851 C.3       5 GLY6        0.0000 
     43 CA         45.5803   15.0316    3.9912 C.3       5 GLY6        0.0000 
     44 CA         44.4212   15.9373    3.6974 C.3       5 GLY6        0.0000 
     45 O          47.2757   17.6209    5.2840 O.2       2 ALA2        0.0000 
     46 CA         47.4990   15.5462    5.6656 C.3       5 GLY6        0.0000 
     47 CA         46.3400   16.4519    5.3718 C.3       5 GLY6        0.0000 
     48 O          45.1809   17.3575    5.0779 O.2       2 ALA2        0.0000 
     49 CA         45.4042   15.2828    5.4596 C.3       5 GLY6        0.0000 
@<TRIPOS>BOND
@<TRIPOS>SUBSTRUCTURE
     1 SER1        3 GROUP   
     2 ALA2       15 GROUP   
     3 ASP3       12 GROUP   
     4 PHE5        1 GROUP   
     5 GLY6       10 GROUP   
     6 CUB7        8 GROUP   
@<TRIPOS>SET

