#    Name: 2azr_982_1_INTS_M
#    Modification time : Mon Mar 24 19:45:30 2014

@<TRIPOS>MOLECULE
2azr_982_1_INTS_M
   39     0     9     0     0
SMALL
NO_CHARGES


@<TRIPOS>ATOM
      1 CA         48.1845   12.5875    3.9095 C.3       3 GLC5        0.0000 
      2 CA         46.4550   12.2720    2.9360 C.3       9 GLL5        0.0000 
      3 CA         49.9140   12.9030    4.8830 C.3       6 GLP5        0.0000 
      4 NZ         43.2425   18.4285    0.3630 N.4       2 LYC4        0.0000 
      5 NZ         43.8000   17.2620    0.6140 N.4       8 LYL4        0.0000 
      6 NZ         42.6850   19.5950    0.1120 N.4       5 LYP4        0.0000 
      7 N          43.2425   18.4285    0.3630 N.am      1 SEC2        0.0000 
      8 N          43.8000   17.2620    0.6140 N.am      7 SEL2        0.0000 
      9 N          42.6850   19.5950    0.1120 N.am      4 SEP2        0.0000 
     10 CA         47.7030   15.3700    1.9390 C.3       3 GLC5        0.0000 
     11 CA         47.2510   16.0130    3.6410 C.3       9 GLL5        0.0000 
     12 CA         48.1550   14.7270    0.2370 C.3       6 GLP5        0.0000 
     13 CA         48.1290   15.5095    5.6170 C.3       3 GLC5        0.0000 
     14 CA         49.0070   15.0060    7.5930 C.3       6 GLP5        0.0000 
     15 CA         48.5825   14.4580    4.2620 C.3       3 GLC5        0.0000 
     16 N          48.7330   18.5020    3.6505 N.am      1 SEC2        0.0000 
     17 N          48.5250   17.6360    4.7770 N.am      7 SEL2        0.0000 
     18 N          48.9410   19.3680    2.5240 N.am      4 SEP2        0.0000 
     19 N          49.8265   18.0420    5.3480 N.am      1 SEC2        0.0000 
     20 N          51.1280   18.4480    5.9190 N.am      4 SEP2        0.0000 
     21 NZ         43.5695   18.5700    1.4370 N.4       2 LYC4        0.0000 
     22 NZ         44.4540   17.5450    2.7620 N.4       8 LYL4        0.0000 
     23 N          44.2330   18.7075    3.6650 N.am      1 SEC2        0.0000 
     24 N          44.4540   17.5450    2.7620 N.am      7 SEL2        0.0000 
     25 N          44.0120   19.8700    4.5680 N.am      4 SEP2        0.0000 
     26 N          47.5010   17.0905    7.0530 N.am      1 SEC2        0.0000 
     27 N          46.6160   16.9760    5.7460 N.am      7 SEL2        0.0000 
     28 N          48.3860   17.2050    8.3600 N.am      4 SEP2        0.0000 
     29 N          46.2000   18.5540    5.8885 N.am      1 SEC2        0.0000 
     30 N          45.7840   20.1320    6.0310 N.am      4 SEP2        0.0000 
     31 CA         44.9510   12.1052    3.7418 C.3       3 GLC5        0.0000 
     32 CA         46.4850   11.0190    2.3170 C.3       9 GLL5        0.0000 
     33 CA         43.4320   12.5650    4.8570 C.3       6 GLP5        0.0000 
     34 CA         46.8000   10.8837    4.1772 C.3       3 GLC5        0.0000 
     35 CA         47.1300   10.1220    5.7280 C.3       6 GLP5        0.0000 
     36 CA         45.2185    9.9364    2.7809 C.3       3 GLC5        0.0000 
     37 CA         44.2900    8.6250    3.6940 C.3       6 GLP5        0.0000 
     38 CA         44.3651   13.3344    3.4010 C.3       3 GLC5        0.0000 
     39 CA         45.5370   14.7090    2.6630 C.3       9 GLL5        0.0000 
@<TRIPOS>BOND
@<TRIPOS>SUBSTRUCTURE
     1 SEC2        7 GROUP        1 X    SEC  0     ROOT SEC X 2
     2 LYC4        4 GROUP        1 X    LYC  0     **** LYC X 4
     3 GLC5        1 GROUP        1 X    GLC  0     **** GLC X 6
     4 SEP2        9 GROUP        1 Y    SEP  0     ROOT SEP Y 9
     5 LYP4        6 GROUP        1 Y    LYP  0     **** LYP Y 11
     6 GLP5        3 GROUP        1 Y    GLP  0     **** GLP Y 13
     7 SEL2        8 GROUP        1 Z    SEL  0     ROOT SEL Z 16
     8 LYL4        5 GROUP        1 Z    LYL  0     **** LYL Z 18
     9 GLL5        2 GROUP        1 Z    GLL  0     **** GLL Z 20
@<TRIPOS>SET

