#    Name: 2azr_982_1_ligand
#    Modification time : Mon Mar 24 19:45:30 2014

@<TRIPOS>MOLECULE
2azr_982_1_ligand
   22    23     1     0     0
SMALL
NO_CHARGES


@<TRIPOS>ATOM
      1 C1         46.4550   12.2720    2.9360 C.ar      1 982301      0.0000 
      2 C2         46.4850   11.0190    2.3170 C.ar      1 982301      0.0000 
      3 C3         45.8240   10.8500    1.1090 C.ar      1 982301      0.0000 
      4 N1         45.1360   11.8170    0.4610 N.ar      1 982301      0.0000 
      5 C5         45.1370   13.0150    1.0940 C.ar      1 982301      0.0000 
      6 C6         45.7540   13.3290    2.3110 C.ar      1 982301      0.0000 
      7 S10        44.3260   14.3420    0.4060 S.3       1 982301      0.0000 
      8 C11        44.7650   15.3620    1.7120 C.2       1 982301      0.0000 
      9 C12        45.5370   14.7090    2.6630 C.2       1 982301      0.0000 
     10 C13        44.3010   16.8600    1.7050 C.2       1 982301      0.0000 
     11 O14        43.8000   17.2620    0.6140 O.co2     1 982301      0.0000 
     12 O15        46.0160   15.2980    3.8050 O.3       1 982301      0.0000 
     13 C16        47.2510   16.0130    3.6410 C.3       1 982301      0.0000 
     14 C17        47.4750   16.9630    4.8310 C.2       1 982301      0.0000 
     15 O20        48.5250   17.6360    4.7770 O.co2     1 982301      0.0000 
     16 O21        44.4540   17.5450    2.7620 O.co2     1 982301      0.0000 
     17 O22        46.6160   16.9760    5.7460 O.co2     1 982301      0.0000 
     18 H          46.9276   12.4283    3.8219 H         1 982301      0.0000 
     19 H          46.9867   10.2435    2.7509 H         1 982301      0.0000 
     20 H          45.8704    9.8763    0.6683 H         1 982301      0.0000 
     21 H          47.2500   16.6197    2.7288 H         1 982301      0.0000 
     22 H          48.1093   15.3338    3.5936 H         1 982301      0.0000 
@<TRIPOS>BOND
     1    2    1 ar   
     2    6    1 ar   
     3   18    1 1    
     4    3    2 ar   
     5   19    2 1    
     6    4    3 ar   
     7   20    3 1    
     8    5    4 ar   
     9    6    5 ar   
    10    7    5 1    
    11    9    6 1    
    12    8    7 1    
    13    9    8 2    
    14   10    8 1    
    15   12    9 1    
    16   11   10 ar   
    17   16   10 ar   
    18   13   12 1    
    19   14   13 1    
    20   21   13 1    
    21   22   13 1    
    22   15   14 ar   
    23   17   14 ar   
@<TRIPOS>SUBSTRUCTURE
     1 982301      1 GROUP   
@<TRIPOS>SET

