#    Name: 1st4_GTA_1_INTS_M
#    Modification time : Tue Mar 25 02:43:17 2014

@<TRIPOS>MOLECULE
1st4_GTA_1_INTS_M
  112     0    12     0     0
SMALL
NO_CHARGES


@<TRIPOS>ATOM
      1 O          41.0995   56.5635   47.1470 O.2       1 ALC1        0.0000 
      2 O          40.7290   57.0030   48.5260 O.2       9 ALL1        0.0000 
      3 O          41.4700   56.1240   45.7680 O.2       5 ALP1        0.0000 
      4 O          40.4505   58.4215   48.1145 O.2       1 ALC1        0.0000 
      5 O          40.1720   59.8400   47.7030 O.2       5 ALP1        0.0000 
      6 CA         39.1010   50.1925   52.1475 C.3       4 GLC5        0.0000 
      7 CA         39.1670   51.8300   52.2280 C.3      12 GLL5        0.0000 
      8 CA         39.0350   48.5550   52.0670 C.3       8 GLP5        0.0000 
      9 CA         40.7570   51.0995   52.6470 C.3       4 GLC5        0.0000 
     10 CA         42.3470   50.3690   53.0660 C.3       8 GLP5        0.0000 
     11 CA         37.5685   52.5910   51.2435 C.3       4 GLC5        0.0000 
     12 CA         35.9700   53.3520   50.2590 C.3       8 GLP5        0.0000 
     13 CA         39.1700   51.4905   54.2900 C.3       4 GLC5        0.0000 
     14 CA         39.1730   51.1510   56.3520 C.3       8 GLP5        0.0000 
     15 CA         40.7750   54.0475   53.5455 C.3       4 GLC5        0.0000 
     16 CA         39.0460   54.2110   53.1670 C.3      12 GLL5        0.0000 
     17 CA         42.5040   53.8840   53.9240 C.3       8 GLP5        0.0000 
     18 CA         37.8090   55.0380   51.6340 C.3       4 GLC5        0.0000 
     19 CA         36.5720   55.8650   50.1010 C.3       8 GLP5        0.0000 
     20 CA         39.1730   53.3230   54.9310 C.3       4 GLC5        0.0000 
     21 CA         39.3000   52.4350   56.6950 C.3       8 GLP5        0.0000 
     22 N          38.7660   57.2780   50.1595 N.am      2 SEC2        0.0000 
     23 N          39.9960   56.4190   50.6160 N.am     10 SEL2        0.0000 
     24 N          37.5360   58.1370   49.7030 N.am      6 SEP2        0.0000 
     25 O          41.1120   54.4605   47.8610 O.2       1 ALC1        0.0000 
     26 O          40.4530   54.7760   49.0050 O.2       9 ALL1        0.0000 
     27 O          41.7710   54.1450   46.7170 O.2       5 ALP1        0.0000 
     28 N          36.8540   59.0360   56.2425 N.am      2 SEC2        0.0000 
     29 N          38.0540   58.8680   55.3390 N.am     10 SEL2        0.0000 
     30 N          35.6540   59.2040   57.1460 N.am      6 SEP2        0.0000 
     31 O          37.3715   59.1455   53.8715 O.2       1 ALC1        0.0000 
     32 O          38.0540   58.8680   55.3390 O.2       9 ALL1        0.0000 
     33 O          36.6890   59.4230   52.4040 O.2       5 ALP1        0.0000 
     34 O          38.3695   59.3585   54.2540 O.2       1 ALC1        0.0000 
     35 O          38.6850   59.8490   53.1690 O.2       5 ALP1        0.0000 
     36 CA         40.9160   55.8560   53.2890 C.3       4 GLC5        0.0000 
     37 CA         39.0690   56.7850   53.5130 C.3      12 GLL5        0.0000 
     38 CA         42.7630   54.9270   53.0650 C.3       8 GLP5        0.0000 
     39 CA         37.8205   56.3250   51.8070 C.3       4 GLC5        0.0000 
     40 CA         40.8945   59.1665   55.2660 C.3       4 GLC5        0.0000 
     41 CA         39.8700   57.4440   55.5930 C.3      12 GLL5        0.0000 
     42 CA         41.9190   60.8890   54.9390 C.3       8 GLP5        0.0000 
     43 CA         41.4310   55.2290   55.3075 C.3       4 GLC5        0.0000 
     44 CA         40.3580   56.5740   56.6910 C.3      12 GLL5        0.0000 
     45 CA         40.4460   54.7345   56.9975 C.3       4 GLC5        0.0000 
     46 CA         40.5340   52.8950   57.3040 C.3       8 GLP5        0.0000 
     47 O          36.7305   58.3170   53.0680 O.2       1 ALC1        0.0000 
     48 O          36.7720   57.2110   53.7320 O.2       9 ALL1        0.0000 
     49 O          37.7285   58.5300   53.4505 O.2       1 ALC1        0.0000 
     50 N          39.7325   58.9775   60.7125 N.am      2 SEC2        0.0000 
     51 N          40.5840   58.1490   60.3020 N.am     10 SEL2        0.0000 
     52 N          38.8810   59.8060   61.1230 N.am      6 SEP2        0.0000 
     53 N          40.7580   59.3190   59.2435 N.am      2 SEC2        0.0000 
     54 N          40.9320   60.4890   58.1850 N.am      6 SEP2        0.0000 
     55 N          41.9065   58.9105   60.5665 N.am      2 SEC2        0.0000 
     56 N          43.2290   59.6720   60.8310 N.am      6 SEP2        0.0000 
     57 N          40.8665   55.0220   60.6945 N.am      2 SEC2        0.0000 
     58 N          41.3450   55.8230   59.5120 N.am     10 SEL2        0.0000 
     59 N          40.3880   54.2210   61.8770 N.am      6 SEP2        0.0000 
     60 N          41.6620   54.3150   59.8890 N.am      2 SEC2        0.0000 
     61 N          41.9790   52.8070   60.2660 N.am      6 SEP2        0.0000 
     62 N          42.8520   56.3770   58.9990 N.am      2 SEC2        0.0000 
     63 N          44.3590   56.9310   58.4860 N.am      6 SEP2        0.0000 
     64 N          39.7055   55.1790   60.7800 N.am      2 SEC2        0.0000 
     65 N          39.0230   56.1370   59.6830 N.am     10 SEL2        0.0000 
     66 NZ         36.3990   57.1030   61.7660 N.4       3 LYC4        0.0000 
     67 NZ         36.8990   55.8690   60.7100 N.4      11 LYL4        0.0000 
     68 NZ         36.9350   57.8340   63.4280 N.4       7 LYP4        0.0000 
     69 N          36.3990   57.1030   61.7660 N.am      2 SEC2        0.0000 
     70 N          36.8990   55.8690   60.7100 N.am     10 SEL2        0.0000 
     71 N          35.8990   58.3370   62.8220 N.am      6 SEP2        0.0000 
     72 N          37.3120   56.3925   61.7895 N.am      2 SEC2        0.0000 
     73 N          37.7250   56.9160   62.8690 N.am      6 SEP2        0.0000 
     74 NZ         36.4805   58.5825   58.1735 N.4       3 LYC4        0.0000 
     75 NZ         37.3070   57.9610   59.2010 N.4      11 LYL4        0.0000 
     76 NZ         35.6540   59.2040   57.1460 N.4       7 LYP4        0.0000 
     77 N          36.4805   58.5825   58.1735 N.am      2 SEC2        0.0000 
     78 N          37.3070   57.9610   59.2010 N.am     10 SEL2        0.0000 
     79 N          36.6895   53.5000   60.0835 N.am      2 SEC2        0.0000 
     80 N          35.8050   53.6070   58.9480 N.am     10 SEL2        0.0000 
     81 N          37.5740   53.3930   61.2190 N.am      6 SEP2        0.0000 
     82 CA         34.4155   57.2930   57.6875 C.3       4 GLC5        0.0000 
     83 CA         34.0870   56.1110   59.5010 C.3      12 GLL5        0.0000 
     84 CA         34.7440   58.4750   55.8740 C.3       8 GLP5        0.0000 
     85 CA         32.1765   52.6185   58.4240 C.3       4 GLC5        0.0000 
     86 CA         32.2930   54.5310   59.2170 C.3      12 GLL5        0.0000 
     87 CA         32.0600   50.7060   57.6310 C.3       8 GLP5        0.0000 
     88 CA         29.4395   53.9005   57.7615 C.3       4 GLC5        0.0000 
     89 CA         30.8590   54.7180   58.7000 C.3      12 GLL5        0.0000 
     90 CA         28.0200   53.0830   56.8230 C.3       8 GLP5        0.0000 
     91 CA         30.8690   52.6240   58.5515 C.3       4 GLC5        0.0000 
     92 CA         30.8790   50.5300   58.4030 C.3       8 GLP5        0.0000 
     93 CA         29.0555   55.2190   57.6675 C.3       4 GLC5        0.0000 
     94 CA         30.7830   56.1680   58.1610 C.3      12 GLL5        0.0000 
     95 CA         27.3280   54.2700   57.1740 C.3       8 GLP5        0.0000 
     96 CA         32.7220   54.9185   52.0860 C.3       4 GLC5        0.0000 
     97 CA         31.2930   54.8060   53.4800 C.3      12 GLL5        0.0000 
     98 CA         34.1510   55.0310   50.6920 C.3       8 GLP5        0.0000 
     99 O          30.8210   54.5605   50.7715 O.2       1 ALC1        0.0000 
    100 O          31.0530   55.0700   52.2800 O.2       9 ALL1        0.0000 
    101 O          30.5890   54.0510   49.2630 O.2       5 ALP1        0.0000 
    102 CA         31.0345   52.5225   54.3425 C.3       4 GLC5        0.0000 
    103 CA         32.4330   53.4540   55.1230 C.3      12 GLL5        0.0000 
    104 CA         29.6360   51.5910   53.5620 C.3       8 GLP5        0.0000 
    105 CA         38.1330   55.2920   50.6955 C.3       4 GLC5        0.0000 
    106 CA         39.7050   54.0690   51.1110 C.3      12 GLL5        0.0000 
    107 CA         36.4103   57.7662   55.4623 C.3       4 GLC5        0.0000 
    108 CA         37.8370   56.6160   54.4850 C.3      12 GLL5        0.0000 
    109 CA         30.3460   53.3892   53.7820 C.3       4 GLC5        0.0000 
    110 CA         30.8190   55.5690   54.5240 C.3      12 GLL5        0.0000 
    111 CA         32.2635   56.9187   53.6725 C.3       4 GLC5        0.0000 
    112 CA         33.4710   58.6500   53.3430 C.3       8 GLP5        0.0000 
@<TRIPOS>BOND
@<TRIPOS>SUBSTRUCTURE
     1 ALC1        1 GROUP        1 X    ALC  0     ROOT ALC X 1
     2 SEC2       22 GROUP        1 X    SEC  0     **** SEC X 2
     3 LYC4       66 GROUP        1 X    LYC  0     **** LYC X 4
     4 GLC5        6 GROUP        1 X    GLC  0     **** GLC X 6
     5 ALP1        3 GROUP        1 Y    ALP  0     ROOT ALP Y 8
     6 SEP2       24 GROUP        1 Y    SEP  0     **** SEP Y 9
     7 LYP4       68 GROUP        1 Y    LYP  0     **** LYP Y 11
     8 GLP5        8 GROUP        1 Y    GLP  0     **** GLP Y 13
     9 ALL1        2 GROUP        1 Z    ALL  0     ROOT ALL Z 15
    10 SEL2       23 GROUP        1 Z    SEL  0     **** SEL Z 16
    11 LYL4       67 GROUP        1 Z    LYL  0     **** LYL Z 18
    12 GLL5        7 GROUP        1 Z    GLL  0     **** GLL Z 20
@<TRIPOS>SET

