#    Name: 1st4_GTA_1_ligand
#    Modification time : Tue Mar 25 02:43:17 2014

@<TRIPOS>MOLECULE
1st4_GTA_1_ligand
   79    84     1     0     0
SMALL
NO_CHARGES


@<TRIPOS>ATOM
      1 N2         40.7290   57.0030   48.5260 N.pl3     1 GTA451      0.0000 
      2 O6         40.1880   52.6490   49.4280 O.2       1 GTA451      0.0000 
      3 C6         40.1460   53.8080   49.8380 C.2       1 GTA451      0.0000 
      4 C5         39.7050   54.0690   51.1110 C.2       1 GTA451      0.0000 
      5 N7         39.3190   53.3150   52.1540 N.pl3     1 GTA451      0.0000 
      6 C7         39.1670   51.8300   52.2280 C.3       1 GTA451      0.0000 
      7 C8         39.0460   54.2110   53.1670 C.3       1 GTA451      0.0000 
      8 N9         39.2290   55.5460   52.7400 N.pl3     1 GTA451      0.0000 
      9 C4         39.6830   55.3690   51.4690 C.2       1 GTA451      0.0000 
     10 N3         39.9960   56.4190   50.6160 N.2       1 GTA451      0.0000 
     11 C2         40.3850   56.0530   49.3930 C.2       1 GTA451      0.0000 
     12 N1         40.4530   54.7760   49.0050 N.am      1 GTA451      0.0000 
     13 O3A        38.0540   58.8680   55.3390 O.3       1 GTA451      0.0000 
     14 C1A        39.0690   56.7850   53.5130 C.3       1 GTA451      0.0000 
     15 C2A        37.8370   56.6160   54.4850 C.3       1 GTA451      0.0000 
     16 C3A        38.3160   57.4990   55.6160 C.3       1 GTA451      0.0000 
     17 C4A        39.8700   57.4440   55.5930 C.3       1 GTA451      0.0000 
     18 C5A        40.3580   56.5740   56.6910 C.3       1 GTA451      0.0000 
     19 O4A        40.1840   56.7870   54.3740 O.3       1 GTA451      0.0000 
     20 O2A        36.7720   57.2110   53.7320 O.3       1 GTA451      0.0000 
     21 P1         40.4080   56.9350   59.3540 P.3       1 GTA451      0.0000 
     22 O11        40.5840   58.1490   60.3020 O.co2     1 GTA451      0.0000 
     23 O12        41.3450   55.8230   59.5120 O.co2     1 GTA451      0.0000 
     24 O13        39.0230   56.1370   59.6830 O.3       1 GTA451      0.0000 
     25 O15        40.1650   57.4430   57.8340 O.3       1 GTA451      0.0000 
     26 P2         37.5020   56.5250   59.5340 P.3       1 GTA451      0.0000 
     27 O22        36.8990   55.8690   60.7100 O.co2     1 GTA451      0.0000 
     28 O21        37.3070   57.9610   59.2010 O.co2     1 GTA451      0.0000 
     29 O23        37.1350   55.7330   58.2020 O.3       1 GTA451      0.0000 
     30 P3         35.8330   54.7880   57.9220 P.3       1 GTA451      0.0000 
     31 O32        36.0270   54.4770   56.4660 O.co2     1 GTA451      0.0000 
     32 O31        35.8050   53.6070   58.9480 O.co2     1 GTA451      0.0000 
     33 O33        34.7390   55.8980   58.2160 O.3       1 GTA451      0.0000 
     34 C5B        34.0870   56.1110   59.5010 C.3       1 GTA451      0.0000 
     35 C4B        32.7380   55.9570   59.5230 C.3       1 GTA451      0.0000 
     36 O4B        31.9490   56.8680   58.6740 O.3       1 GTA451      0.0000 
     37 C3B        32.2930   54.5310   59.2170 C.3       1 GTA451      0.0000 
     38 O3B        32.4960   53.6120   60.2940 O.3       1 GTA451      0.0000 
     39 C2B        30.8590   54.7180   58.7000 C.3       1 GTA451      0.0000 
     40 O2B        29.8430   54.5780   59.7220 O.3       1 GTA451      0.0000 
     41 C1B        30.7830   56.1680   58.1610 C.3       1 GTA451      0.0000 
     42 N9C        30.6270   56.1460   56.6940 N.pl3     1 GTA451      0.0000 
     43 C8C        29.8210   57.1270   55.9370 C.2       1 GTA451      0.0000 
     44 N7C        30.0100   56.6840   54.5120 N.2       1 GTA451      0.0000 
     45 C5C        30.8190   55.5690   54.5240 C.ar      1 GTA451      0.0000 
     46 C6C        31.2930   54.8060   53.4800 C.ar      1 GTA451      0.0000 
     47 N6C        31.0530   55.0700   52.2800 N.pl3     1 GTA451      0.0000 
     48 N1C        32.1090   53.7570   53.8110 N.ar      1 GTA451      0.0000 
     49 C2C        32.4330   53.4540   55.1230 C.ar      1 GTA451      0.0000 
     50 N3C        31.9720   54.2030   56.1410 N.ar      1 GTA451      0.0000 
     51 C4C        31.1860   55.2380   55.8280 C.ar      1 GTA451      0.0000 
     52 H          41.3781   56.7349   47.8141 H         1 GTA451      0.0000 
     53 H          40.3073   57.8990   48.6648 H         1 GTA451      0.0000 
     54 H          39.6927   54.0122   54.0608 H         1 GTA451      0.0000 
     55 H          37.9988   54.0794   53.5449 H         1 GTA451      0.0000 
     56 H          40.7566   54.5545   48.0204 H         1 GTA451      0.0000 
     57 H          38.9602   57.6139   52.9507 H         1 GTA451      0.0000 
     58 H          37.7609   55.6567   54.7313 H         1 GTA451      0.0000 
     59 H          37.9889   57.1765   56.5332 H         1 GTA451      0.0000 
     60 H          40.2483   58.4045   55.6489 H         1 GTA451      0.0000 
     61 H          41.3873   56.3492   56.5448 H         1 GTA451      0.0000 
     62 H          39.7514   55.7030   56.7599 H         1 GTA451      0.0000 
     63 H          34.3919   57.1447   59.8713 H         1 GTA451      0.0000 
     64 H          34.5943   55.4274   60.2587 H         1 GTA451      0.0000 
     65 H          32.3440   56.1257   60.5875 H         1 GTA451      0.0000 
     66 H          32.8895   54.2391   58.3170 H         1 GTA451      0.0000 
     67 H          30.6985   54.0673   57.8711 H         1 GTA451      0.0000 
     68 H          29.8734   56.5919   58.6197 H         1 GTA451      0.0000 
     69 H          29.3489   57.7992   56.2282 H         1 GTA451      0.0000 
     70 H          30.5207   55.8993   52.1099 H         1 GTA451      0.0000 
     71 H          31.4166   54.4263   51.6066 H         1 GTA451      0.0000 
     72 H          33.0451   52.6287   55.3066 H         1 GTA451      0.0000 
     73 H          40.0284   51.3586   52.0388 H         1 GTA451      0.0000 
     74 H          38.8626   51.5325   53.1329 H         1 GTA451      0.0000 
     75 H          38.4967   51.4919   51.5674 H         1 GTA451      0.0000 
     76 H          37.9286   58.9120   54.3478 H         1 GTA451      0.0000 
     77 H          37.1561   58.0586   53.3660 H         1 GTA451      0.0000 
     78 H          33.1786   54.0477   60.8807 H         1 GTA451      0.0000 
     79 H          30.3246   54.2083   60.5166 H         1 GTA451      0.0000 
@<TRIPOS>BOND
     1   11    1 1    
     2   52    1 1    
     3   53    1 1    
     4    3    2 2    
     5    4    3 1    
     6   12    3 am   
     7    5    4 1    
     8    9    4 2    
     9    6    5 1    
    10    7    5 1    
    11   73    6 1    
    12   74    6 1    
    13   75    6 1    
    14    8    7 1    
    15   54    7 1    
    16   55    7 1    
    17    9    8 1    
    18   14    8 1    
    19   10    9 1    
    20   11   10 2    
    21   12   11 1    
    22   56   12 1    
    23   16   13 1    
    24   76   13 1    
    25   15   14 1    
    26   19   14 1    
    27   57   14 1    
    28   16   15 1    
    29   20   15 1    
    30   58   15 1    
    31   17   16 1    
    32   59   16 1    
    33   18   17 1    
    34   19   17 1    
    35   60   17 1    
    36   25   18 1    
    37   61   18 1    
    38   62   18 1    
    39   77   20 1    
    40   22   21 ar   
    41   23   21 ar   
    42   24   21 1    
    43   25   21 1    
    44   26   24 1    
    45   27   26 ar   
    46   28   26 ar   
    47   29   26 1    
    48   30   29 1    
    49   31   30 ar   
    50   32   30 ar   
    51   33   30 1    
    52   34   33 1    
    53   35   34 1    
    54   63   34 1    
    55   64   34 1    
    56   36   35 1    
    57   37   35 1    
    58   65   35 1    
    59   41   36 1    
    60   38   37 1    
    61   39   37 1    
    62   66   37 1    
    63   78   38 1    
    64   40   39 1    
    65   41   39 1    
    66   67   39 1    
    67   79   40 1    
    68   42   41 1    
    69   68   41 1    
    70   43   42 1    
    71   51   42 1    
    72   44   43 2    
    73   69   43 1    
    74   45   44 1    
    75   46   45 ar   
    76   51   45 ar   
    77   47   46 1    
    78   48   46 ar   
    79   70   47 1    
    80   71   47 1    
    81   49   48 ar   
    82   50   49 ar   
    83   72   49 1    
    84   51   50 ar   
@<TRIPOS>SUBSTRUCTURE
     1 GTA451      1 GROUP   
@<TRIPOS>SET

