#    Name: 3ETR_1_CAVITY_N1_6.mol2
#    Modification time : Mon Mar 10 14:18:46 2014

@<TRIPOS>MOLECULE
3ETR_1_CAVITY_N1_6.mol2
   56     0     6     0     0
SMALL
NO_CHARGES


@<TRIPOS>ATOM
      1 N           8.0587   -8.2292   15.4784 N.2       2 ALA2        0.0000 
      2 CA          7.0074   -8.2431   16.5483 C.3       5 GLY6        0.0000 
      3 O           5.9562   -8.2571   17.6182 O.2       2 ALA2        0.0000 
      4 CA          8.3013   -9.6931   15.6977 C.3       5 GLY6        0.0000 
      5 DU          7.2501   -9.7070   16.7676 H         6 CUB7        0.0000 
      6 CA          6.1989   -9.7210   17.8375 C.3       5 GLY6        0.0000 
      7 CA          7.8069   -6.4525   17.3572 C.3       5 GLY6        0.0000 
      8 CA          6.7557   -6.4664   18.4271 C.3       5 GLY6        0.0000 
      9 CA          8.5440  -11.1570   15.9170 C.3       5 GLY6        0.0000 
     10 O           7.4927  -11.1710   16.9869 O.2       2 ALA2        0.0000 
     11 N           6.4415  -11.1849   18.0568 N.2       2 ALA2        0.0000 
     12 CZ         10.1339   -7.2629   19.6329 C.ar      4 PHE5        0.0000 
     13 CA          9.8197  -11.9814   19.2626 C.3       5 GLY6        0.0000 
     14 O           8.7684  -11.9953   20.3325 O.2       2 ALA2        0.0000 
     15 NZ         10.0623  -13.4453   19.4819 N.2       3 LYS4        0.0000 
     16 CA          9.0111  -13.4592   20.5518 C.3       5 GLY6        0.0000 
     17 O           7.7354  -12.6349   17.2062 O.2       2 ALA2        0.0000 
     18 CA          7.5643   -4.9886   17.1379 C.3       5 GLY6        0.0000 
     19 O          10.8618  -11.6546   20.2908 O.2       2 ALA2        0.0000 
     20 NZ         11.1044  -13.1185   20.5100 N.2       3 LYS4        0.0000 
     21 O           9.9003   -6.1117   17.3155 O.2       2 ALA2        0.0000 
     22 CZ          8.8491   -6.1257   18.3854 C.ar      4 PHE5        0.0000 
     23 CA          7.7979   -6.1397   19.4553 C.3       5 GLY6        0.0000 
     24 CA          9.8287  -12.2941   17.1644 C.3       5 GLY6        0.0000 
     25 O           8.7775  -12.3081   18.2344 O.2       2 ALA2        0.0000 
     26 CA          7.7263  -12.3221   19.3043 C.3       5 GLY6        0.0000 
     27 CA          9.3435   -9.3663   16.7259 C.3       5 GLY6        0.0000 
     28 DU          8.2922   -9.3803   17.7958 H         6 CUB7        0.0000 
     29 CA          7.2410   -9.3943   18.8657 C.3       5 GLY6        0.0000 
     30 CA          9.5861  -10.8302   16.9452 C.3       5 GLY6        0.0000 
     31 DU          8.5349  -10.8442   18.0151 H         6 CUB7        0.0000 
     32 CA          7.4837  -10.8582   19.0850 C.3       5 GLY6        0.0000 
     33 O           5.1567  -10.0478   16.8093 O.2       2 ALA2        0.0000 
     34 CA          6.4506  -11.4977   15.9587 C.3       5 GLY6        0.0000 
     35 OG          5.3994  -11.5117   17.0286 O.2       1 SER1        0.0000 
     36 N           9.1008   -7.9024   16.5066 N.2       2 ALA2        0.0000 
     37 CA          8.0496   -7.9164   17.5765 C.3       5 GLY6        0.0000 
     38 CA          6.9984   -7.9303   18.6464 C.3       5 GLY6        0.0000 
     39 O          10.3050  -14.9092   19.7011 O.2       2 ALA2        0.0000 
     40 CA          9.2537  -14.9231   20.7711 C.3       5 GLY6        0.0000 
     41 CA         10.6282  -10.5035   17.9733 C.3       5 GLY6        0.0000 
     42 DU          9.5770  -10.5174   19.0433 H         6 CUB7        0.0000 
     43 O           8.5258  -10.5314   20.1132 O.2       2 ALA2        0.0000 
     44 N           8.3638   -3.1979   17.9468 N.2       2 ALA2        0.0000 
     45 O           9.6577   -4.6478   17.0962 O.2       2 ALA2        0.0000 
     46 CZ          8.6064   -4.6618   18.1661 C.ar      4 PHE5        0.0000 
     47 N           7.5552   -4.6758   19.2360 N.2       2 ALA2        0.0000 
     48 CA         10.3765   -8.7268   19.8522 C.3       5 GLY6        0.0000 
     49 CA         10.6192  -10.1907   20.0715 C.3       5 GLY6        0.0000 
     50 O          10.1429   -7.5756   17.5348 O.2       2 ALA2        0.0000 
     51 DU          9.0917   -7.5896   18.6047 H         6 CUB7        0.0000 
     52 CA          8.0405   -7.6036   19.6746 C.3       5 GLY6        0.0000 
     53 CA         10.3856   -9.0396   17.7541 C.3       5 GLY6        0.0000 
     54 DU          9.3344   -9.0535   18.8240 H         6 CUB7        0.0000 
     55 CA          8.2831   -9.0675   19.8939 C.3       5 GLY6        0.0000 
     56 CA         10.0532  -13.1325   21.5800 C.3       5 GLY6        0.0000 
@<TRIPOS>BOND
@<TRIPOS>SUBSTRUCTURE
     1 SER1       35 GROUP   
     2 ALA2        1 GROUP   
     3 LYS4       15 GROUP   
     4 PHE5       12 GROUP   
     5 GLY6        2 GROUP   
     6 CUB7        5 GROUP   
@<TRIPOS>SET

