#    Name: 3etr_MTE_1_INTS_M
#    Modification time : Tue Mar 25 02:28:41 2014

@<TRIPOS>MOLECULE
3etr_MTE_1_INTS_M
   64     0     9     0     0
SMALL
NO_CHARGES


@<TRIPOS>ATOM
      1 N          10.1900   -3.6425   16.9750 N.am      2 SEC2        0.0000 
      2 N           8.7770   -4.2870   17.4340 N.am      8 SEL2        0.0000 
      3 N          11.6030   -2.9980   16.5160 N.am      5 SEP2        0.0000 
      4 O           8.6390   -1.6330   16.7735 O.2       1 ALC1        0.0000 
      5 O           8.1650   -2.2180   18.0670 O.2       7 ALL1        0.0000 
      6 O           9.1130   -1.0480   15.4800 O.2       4 ALP1        0.0000 
      7 N           8.0605   -5.6700   22.5715 N.am      2 SEC2        0.0000 
      8 N           8.2420   -5.6650   21.2220 N.am      8 SEL2        0.0000 
      9 N           7.8790   -5.6750   23.9210 N.am      5 SEP2        0.0000 
     10 N           8.9275   -6.7500   22.0910 N.am      2 SEC2        0.0000 
     11 N           9.6130   -7.8350   22.9600 N.am      5 SEP2        0.0000 
     12 CA         10.8115   -6.8730   19.6885 C.3       3 GLC5        0.0000 
     13 CA          9.9530   -8.1870   18.2710 C.3       9 GLL5        0.0000 
     14 CA         11.6700   -5.5590   21.1060 C.3       6 GLP5        0.0000 
     15 CA          7.5785   -6.8340   16.2625 C.3       3 GLC5        0.0000 
     16 CA          9.4380   -7.8740   16.8790 C.3       9 GLL5        0.0000 
     17 CA          5.7190   -5.7940   15.6460 C.3       6 GLP5        0.0000 
     18 CA          9.9485   -8.7085   15.1005 C.3       3 GLC5        0.0000 
     19 CA         10.4590   -9.5430   13.3220 C.3       6 GLP5        0.0000 
     20 O           9.3180   -6.0835   15.4650 O.2       1 ALC1        0.0000 
     21 O           9.4480   -6.4510   16.6620 O.2       7 ALL1        0.0000 
     22 O           9.1880   -5.7160   14.2680 O.2       4 ALP1        0.0000 
     23 CA          7.3775   -7.1670   20.0680 C.3       3 GLC5        0.0000 
     24 CA          8.8520   -6.1510   19.0010 C.3       9 GLL5        0.0000 
     25 CA          5.9030   -8.1830   21.1350 C.3       6 GLP5        0.0000 
     26 CA          7.3720   -5.7015   16.6505 C.3       3 GLC5        0.0000 
     27 CA          9.0250   -5.6090   17.6550 C.3       9 GLL5        0.0000 
     28 CA         12.1575   -9.8580   18.9140 C.3       3 GLC5        0.0000 
     29 CA         10.7770  -10.3600   19.7160 C.3       9 GLL5        0.0000 
     30 CA         13.5380   -9.3560   18.1120 C.3       6 GLP5        0.0000 
     31 CA          7.6600  -13.3360   18.2700 C.3       3 GLC5        0.0000 
     32 CA          8.8840  -11.9750   17.1680 C.3       9 GLL5        0.0000 
     33 CA          6.4360  -14.6970   19.3720 C.3       6 GLP5        0.0000 
     34 CA          8.7980  -14.1755   16.9390 C.3       3 GLC5        0.0000 
     35 CA          8.7120  -16.3760   16.7100 C.3       6 GLP5        0.0000 
     36 CA          8.4605  -12.8020   15.6895 C.3       3 GLC5        0.0000 
     37 CA          8.0370  -13.6290   14.2110 C.3       6 GLP5        0.0000 
     38 CA          9.1795   -9.6145   15.0515 C.3       3 GLC5        0.0000 
     39 CA          7.9000   -9.6860   16.7810 C.3       9 GLL5        0.0000 
     40 CA          5.7045   -9.8170   18.8960 C.3       3 GLC5        0.0000 
     41 CA          6.5800  -10.2380   17.3330 C.3       9 GLL5        0.0000 
     42 CA          4.8290   -9.3960   20.4590 C.3       6 GLP5        0.0000 
     43 CA          4.6070  -10.7285   18.1725 C.3       3 GLC5        0.0000 
     44 CA          2.6340  -11.2190   19.0120 C.3       6 GLP5        0.0000 
     45 N           4.4060   -9.1165   16.9305 N.am      2 SEC2        0.0000 
     46 N           5.4580  -10.0730   16.4600 N.am      8 SEL2        0.0000 
     47 N           3.3540   -8.1600   17.4010 N.am      5 SEP2        0.0000 
     48 N           4.2910  -13.2165   14.5985 N.am      2 SEC2        0.0000 
     49 N           5.1520  -12.1140   15.3010 N.am      8 SEL2        0.0000 
     50 N           3.4300  -14.3190   13.8960 N.am      5 SEP2        0.0000 
     51 N           3.9145  -12.6770   15.8140 N.am      2 SEC2        0.0000 
     52 N           2.6770  -13.2400   16.3270 N.am      5 SEP2        0.0000 
     53 N           3.6540   -9.0605   15.9500 N.am      2 SEC2        0.0000 
     54 N           3.9540   -9.9610   14.4990 N.am      8 SEL2        0.0000 
     55 CA         11.7203   -9.1433   18.2323 C.3       3 GLC5        0.0000 
     56 CA          9.8520   -9.6740   18.4340 C.3       9 GLL5        0.0000 
     57 CA         10.6402   -9.1405   20.8035 C.3       3 GLC5        0.0000 
     58 CA         10.9660   -8.2640   22.5320 C.3       6 GLP5        0.0000 
     59 CA         11.4758  -11.3390   17.8520 C.3       3 GLC5        0.0000 
     60 CA         12.6370  -12.6610   16.6290 C.3       6 GLP5        0.0000 
     61 CA         10.7868  -11.9085   17.0008 C.3       3 GLC5        0.0000 
     62 CA          8.9890  -10.3370   17.5770 C.3       9 GLL5        0.0000 
     63 CA          5.9180   -8.4205   16.3895 C.3       3 GLC5        0.0000 
     64 CA          4.5960   -6.8790   15.7220 C.3       6 GLP5        0.0000 
@<TRIPOS>BOND
@<TRIPOS>SUBSTRUCTURE
     1 ALC1        4 GROUP        1 X    ALC  0     ROOT ALC X 1
     2 SEC2        1 GROUP        1 X    SEC  0     **** SEC X 2
     3 GLC5       12 GROUP        1 X    GLC  0     **** GLC X 6
     4 ALP1        6 GROUP        1 Y    ALP  0     ROOT ALP Y 8
     5 SEP2        3 GROUP        1 Y    SEP  0     **** SEP Y 9
     6 GLP5       14 GROUP        1 Y    GLP  0     **** GLP Y 13
     7 ALL1        5 GROUP        1 Z    ALL  0     ROOT ALL Z 15
     8 SEL2        2 GROUP        1 Z    SEL  0     **** SEL Z 16
     9 GLL5       13 GROUP        1 Z    GLL  0     **** GLL Z 20
@<TRIPOS>SET

