#    Name: 3etr_MTE_1_ligand
#    Modification time : Tue Mar 25 02:28:41 2014

@<TRIPOS>MOLECULE
3etr_MTE_1_ligand
   34    36     1     0     0
SMALL
NO_CHARGES


@<TRIPOS>ATOM
      1 N1          8.7770   -4.2870   17.4340 N.2       1 MTE1326     0.0000 
      2 C2          8.3620   -3.4930   18.4390 C.2       1 MTE1326     0.0000 
      3 N2          8.1650   -2.2180   18.0670 N.pl3     1 MTE1326     0.0000 
      4 N3          8.1710   -3.9270   19.7190 N.am      1 MTE1326     0.0000 
      5 C4          8.3870   -5.2170   20.0610 C.2       1 MTE1326     0.0000 
      6 O4          8.2420   -5.6650   21.2220 O.2       1 MTE1326     0.0000 
      7 N5          9.1000   -7.4780   19.2150 N.pl3     1 MTE1326     0.0000 
      8 C6          9.9530   -8.1870   18.2710 C.3       1 MTE1326     0.0000 
      9 C7          9.4380   -7.8740   16.8790 C.3       1 MTE1326     0.0000 
     10 N8          9.4480   -6.4510   16.6620 N.pl3     1 MTE1326     0.0000 
     11 C9          8.8520   -6.1510   19.0010 C.2       1 MTE1326     0.0000 
     12 C10         9.0250   -5.6090   17.6550 C.2       1 MTE1326     0.0000 
     13 C1'         9.8520   -9.6740   18.4340 C.2       1 MTE1326     0.0000 
     14 S1'        10.7770  -10.3600   19.7160 S.3       1 MTE1326     0.0000 
     15 C2'         8.9890  -10.3370   17.5770 C.2       1 MTE1326     0.0000 
     16 S2'         8.8840  -11.9750   17.1680 S.3       1 MTE1326     0.0000 
     17 C3'         7.9000   -9.6860   16.7810 C.3       1 MTE1326     0.0000 
     18 O3'         8.0750   -8.2780   16.8270 O.3       1 MTE1326     0.0000 
     19 C4'         6.5800  -10.2380   17.3330 C.3       1 MTE1326     0.0000 
     20 O4'         5.4580  -10.0730   16.4600 O.3       1 MTE1326     0.0000 
     21 P           5.2400  -10.6530   14.9580 P.3       1 MTE1326     0.0000 
     22 O1P         5.1520  -12.1140   15.3010 O.co2     1 MTE1326     0.0000 
     23 O2P         6.4090  -10.0870   14.1570 O.co2     1 MTE1326     0.0000 
     24 O3P         3.9540   -9.9610   14.4990 O.co2     1 MTE1326     0.0000 
     25 H           8.3487   -2.0063   17.1071 H         1 MTE1326     0.0000 
     26 H           7.8523   -1.5940   18.7831 H         1 MTE1326     0.0000 
     27 H           7.8512   -3.2436   20.4454 H         1 MTE1326     0.0000 
     28 H           8.7195   -7.9928   19.9982 H         1 MTE1326     0.0000 
     29 H          10.9613   -7.8768   18.3344 H         1 MTE1326     0.0000 
     30 H          10.0235   -8.3835   16.1651 H         1 MTE1326     0.0000 
     31 H           9.7757   -6.1016   15.7585 H         1 MTE1326     0.0000 
     32 H           8.0031  -10.0689   15.7548 H         1 MTE1326     0.0000 
     33 H           6.4020   -9.7426   18.3161 H         1 MTE1326     0.0000 
     34 H           6.7486  -11.3138   17.5737 H         1 MTE1326     0.0000 
@<TRIPOS>BOND
     1    2    1 2    
     2   12    1 1    
     3    3    2 1    
     4    4    2 1    
     5   25    3 1    
     6   26    3 1    
     7    5    4 am   
     8   27    4 1    
     9    6    5 2    
    10   11    5 1    
    11    8    7 1    
    12   11    7 1    
    13   28    7 1    
    14    9    8 1    
    15   13    8 1    
    16   29    8 1    
    17   10    9 1    
    18   18    9 1    
    19   30    9 1    
    20   12   10 1    
    21   31   10 1    
    22   12   11 2    
    23   14   13 1    
    24   15   13 2    
    25   16   15 1    
    26   17   15 1    
    27   18   17 1    
    28   19   17 1    
    29   32   17 1    
    30   20   19 1    
    31   33   19 1    
    32   34   19 1    
    33   21   20 1    
    34   22   21 ar   
    35   23   21 ar   
    36   24   21 ar   
@<TRIPOS>SUBSTRUCTURE
     1 MTE1326     1 GROUP   
@<TRIPOS>SET

