#    Name: 4bb5_HD2_3_INTS_M
#    Modification time : Tue Mar 25 07:11:50 2014

@<TRIPOS>MOLECULE
4bb5_HD2_3_INTS_M
   88     0     6     0     0
SMALL
NO_CHARGES


@<TRIPOS>ATOM
      1 CA          9.7215   11.2560  -70.4385 C.3       2 GLC5        0.0000 
      2 CA         10.6460   12.0010  -68.6000 C.3       6 GLL5        0.0000 
      3 CA          8.7970   10.5110  -72.2770 C.3       4 GLP5        0.0000 
      4 CA         10.8420   13.2290  -70.1010 C.3       2 GLC5        0.0000 
      5 CA         11.0380   14.4570  -71.6020 C.3       4 GLP5        0.0000 
      6 CA         12.0575   13.5695  -68.6675 C.3       2 GLC5        0.0000 
      7 CA         13.4690   15.1380  -68.7350 C.3       4 GLP5        0.0000 
      8 CA         11.6260   10.8635  -71.2690 C.3       2 GLC5        0.0000 
      9 CA         12.2010   10.5600  -69.4290 C.3       6 GLL5        0.0000 
     10 CA         11.0510   11.1670  -73.1090 C.3       4 GLP5        0.0000 
     11 CA         10.4120    8.2395  -64.5770 C.3       2 GLC5        0.0000 
     12 CA         11.4750    9.3200  -66.0880 C.3       6 GLL5        0.0000 
     13 CA          9.3490    7.1590  -63.0660 C.3       4 GLP5        0.0000 
     14 CA         13.4810   11.4275  -65.7930 C.3       2 GLC5        0.0000 
     15 CA         12.8200    9.4100  -65.3980 C.3       6 GLL5        0.0000 
     16 CA         14.1420   13.4450  -66.1880 C.3       4 GLP5        0.0000 
     17 CA         14.3500   10.4710  -64.3435 C.3       2 GLC5        0.0000 
     18 CA         15.8800   11.5320  -63.2890 C.3       4 GLP5        0.0000 
     19 CA         14.9075    7.0095  -66.4255 C.3       2 GLC5        0.0000 
     20 CA         13.3230    7.9960  -65.2240 C.3       6 GLL5        0.0000 
     21 CA         16.4920    6.0230  -67.6270 C.3       4 GLP5        0.0000 
     22 CA         10.8740    7.1110  -64.5250 C.3       2 GLC5        0.0000 
     23 CA         12.3990    7.0630  -65.9840 C.3       6 GLL5        0.0000 
     24 CA         14.0140    6.1670  -67.1940 C.3       2 GLC5        0.0000 
     25 CA         15.6290    5.2710  -68.4040 C.3       4 GLP5        0.0000 
     26 CA          9.8680    6.7705  -65.7040 C.3       2 GLC5        0.0000 
     27 CA         11.2180    7.8750  -66.4780 C.3       6 GLL5        0.0000 
     28 CA          8.5180    5.6660  -64.9300 C.3       4 GLP5        0.0000 
     29 N           7.7790   11.8205  -67.5135 N.am      1 SEC2        0.0000 
     30 N           8.5690   12.0850  -66.5430 N.am      5 SEL2        0.0000 
     31 N           6.9890   11.5560  -68.4840 N.am      3 SEP2        0.0000 
     32 N           7.3510   12.4820  -65.8370 N.am      1 SEC2        0.0000 
     33 N           6.1330   12.8790  -65.1310 N.am      3 SEP2        0.0000 
     34 CA          9.5585   14.0225  -65.5645 C.3       2 GLC5        0.0000 
     35 CA          9.9010   12.7000  -64.0010 C.3       6 GLL5        0.0000 
     36 CA          9.2160   15.3450  -67.1280 C.3       4 GLP5        0.0000 
     37 CA         12.8470   14.4135  -61.9840 C.3       2 GLC5        0.0000 
     38 CA         11.9990   12.6310  -62.5850 C.3       6 GLL5        0.0000 
     39 CA         13.6950   16.1960  -61.3830 C.3       4 GLP5        0.0000 
     40 CA         13.9395   12.0815  -62.9370 C.3       2 GLC5        0.0000 
     41 CA          9.7810    9.0000  -62.7095 C.3       2 GLC5        0.0000 
     42 CA         10.2130   10.8410  -62.3530 C.3       6 GLL5        0.0000 
     43 CA          6.8695   13.5560  -61.1955 C.3       2 GLC5        0.0000 
     44 CA          8.4960   12.6020  -61.9340 C.3       6 GLL5        0.0000 
     45 CA          5.2430   14.5100  -60.4570 C.3       4 GLP5        0.0000 
     46 CA          7.6710   11.6995  -60.0680 C.3       2 GLC5        0.0000 
     47 CA          6.8460   10.7970  -58.2020 C.3       4 GLP5        0.0000 
     48 CA          6.8155   12.2390  -62.5550 C.3       2 GLC5        0.0000 
     49 CA          5.1350   11.8760  -63.1760 C.3       4 GLP5        0.0000 
     50 CA         16.2250   11.3405  -70.7935 C.3       2 GLC5        0.0000 
     51 CA         14.4410   10.1480  -70.3280 C.3       6 GLL5        0.0000 
     52 CA         18.0090   12.5330  -71.2590 C.3       4 GLP5        0.0000 
     53 CA         17.6025   10.1830  -70.0940 C.3       2 GLC5        0.0000 
     54 CA         16.2840    8.8390  -69.6530 C.3       6 GLL5        0.0000 
     55 CA         18.9210   11.5270  -70.5350 C.3       4 GLP5        0.0000 
     56 CA         13.4720    7.7265  -71.4175 C.3       2 GLC5        0.0000 
     57 CA         14.9940    9.3760  -71.4960 C.3       6 GLL5        0.0000 
     58 CA         11.9500    6.0770  -71.3390 C.3       4 GLP5        0.0000 
     59 CA         16.0660   10.3795  -72.5490 C.3       2 GLC5        0.0000 
     60 CA         17.1380   11.3830  -73.6020 C.3       4 GLP5        0.0000 
     61 CA         15.4015    8.3575  -73.0920 C.3       2 GLC5        0.0000 
     62 CA         15.8090    7.3390  -74.6880 C.3       4 GLP5        0.0000 
     63 CA         12.5815   12.1052  -66.7673 C.3       2 GLC5        0.0000 
     64 CA         11.4210   10.2040  -67.2900 C.3       6 GLL5        0.0000 
     65 CA         12.7763    8.3640  -63.3915 C.3       2 GLC5        0.0000 
     66 CA         12.4810    8.0250  -61.4720 C.3       4 GLP5        0.0000 
     67 CA         15.1448    8.6720  -65.2830 C.3       2 GLC5        0.0000 
     68 CA         17.2180    8.6410  -65.2550 C.3       4 GLP5        0.0000 
     69 CA         11.1513    6.0245  -67.1915 C.3       2 GLC5        0.0000 
     70 CA         10.4940    4.5800  -68.1520 C.3       4 GLP5        0.0000 
     71 CA          7.6703   11.9967  -63.9520 C.3       2 GLC5        0.0000 
     72 CA          9.1860   11.7570  -63.0210 C.3       6 GLL5        0.0000 
     73 CA          5.7970   11.7650  -64.3930 C.3       4 GLP5        0.0000 
     74 CA         12.8160   13.2670  -64.5670 C.3       2 GLC5        0.0000 
     75 CA         10.9810   13.5470  -63.3070 C.3       6 GLL5        0.0000 
     76 CA         11.9965   15.2940  -62.7883 C.3       2 GLC5        0.0000 
     77 CA         13.3660   16.6230  -62.8040 C.3       4 GLP5        0.0000 
     78 CA          9.9630   15.1530  -64.3708 C.3       2 GLC5        0.0000 
     79 CA         10.2730   14.3830  -62.2380 C.3       6 GLL5        0.0000 
     80 CA          9.2990   16.3410  -65.9690 C.3       4 GLP5        0.0000 
     81 CA         11.6110    9.6440  -61.7267 C.3       2 GLC5        0.0000 
     82 CA         11.2690   11.6850  -61.6100 C.3       6 GLL5        0.0000 
     83 CA         12.4545   12.4232  -60.0249 C.3       2 GLC5        0.0000 
     84 CA         13.8020   12.4950  -58.7260 C.3       4 GLP5        0.0000 
     85 CA         16.8955    9.6683  -68.1790 C.3       2 GLC5        0.0000 
     86 CA         14.9780    9.3820  -69.1590 C.3       6 GLL5        0.0000 
     87 CA         18.1600   10.2260  -66.9520 C.3       4 GLP5        0.0000 
     88 CA         16.0615    7.5667  -68.5165 C.3       2 GLC5        0.0000 
@<TRIPOS>BOND
@<TRIPOS>SUBSTRUCTURE
     1 SEC2       29 GROUP        1 X    SEC  0     ROOT SEC X 2
     2 GLC5        1 GROUP        1 X    GLC  0     **** GLC X 6
     3 SEP2       31 GROUP        1 Y    SEP  0     ROOT SEP Y 9
     4 GLP5        3 GROUP        1 Y    GLP  0     **** GLP Y 13
     5 SEL2       30 GROUP        1 Z    SEL  0     ROOT SEL Z 16
     6 GLL5        2 GROUP        1 Z    GLL  0     **** GLL Z 20
@<TRIPOS>SET

