#    Name: 4bb5_HD2_3_ligand
#    Modification time : Tue Mar 25 07:11:50 2014

@<TRIPOS>MOLECULE
4bb5_HD2_3_ligand
   65    70     1     0     0
SMALL
NO_CHARGES


@<TRIPOS>ATOM
      1 C1         10.6460   12.0010  -68.6000 C.ar      1 HD21281     0.0000 
      2 C2         10.6210   11.3270  -67.4030 C.ar      1 HD21281     0.0000 
      3 C3         11.4210   10.2040  -67.2900 C.ar      1 HD21281     0.0000 
      4 N4         12.1990    9.8290  -68.3060 N.ar      1 HD21281     0.0000 
      5 C5         12.2010   10.5600  -69.4290 C.ar      1 HD21281     0.0000 
      6 N6         11.4210   11.6340  -69.6280 N.ar      1 HD21281     0.0000 
      7 N7         13.0030   10.1060  -70.4910 N.pl3     1 HD21281     0.0000 
      8 C8         11.4750    9.3200  -66.0880 C.3       1 HD21281     0.0000 
      9 C9         12.8200    9.4100  -65.3980 C.3       1 HD21281     0.0000 
     10 C10        13.3230    7.9960  -65.2240 C.3       1 HD21281     0.0000 
     11 C11        12.3990    7.0630  -65.9840 C.3       1 HD21281     0.0000 
     12 C12        11.2180    7.8750  -66.4780 C.3       1 HD21281     0.0000 
     13 C13         9.7520   11.8240  -66.3200 C.2       1 HD21281     0.0000 
     14 O14         8.5690   12.0850  -66.5430 O.2       1 HD21281     0.0000 
     15 N15        10.4340   11.9700  -65.1300 N.am      1 HD21281     0.0000 
     16 C16         9.9010   12.7000  -64.0010 C.3       1 HD21281     0.0000 
     17 C17        10.9810   13.5470  -63.3070 C.3       1 HD21281     0.0000 
     18 C18        11.9990   12.6310  -62.5850 C.3       1 HD21281     0.0000 
     19 C19        11.2690   11.6850  -61.6100 C.3       1 HD21281     0.0000 
     20 C20        10.2130   10.8410  -62.3530 C.3       1 HD21281     0.0000 
     21 C21         9.1860   11.7570  -63.0210 C.3       1 HD21281     0.0000 
     22 C22         8.4960   12.6020  -61.9340 C.3       1 HD21281     0.0000 
     23 C23         9.5610   13.4680  -61.2290 C.3       1 HD21281     0.0000 
     24 C24        10.5800   12.5450  -60.5500 C.3       1 HD21281     0.0000 
     25 C25        10.2730   14.3830  -62.2380 C.3       1 HD21281     0.0000 
     26 O26         8.9390   14.2730  -60.2340 O.3       1 HD21281     0.0000 
     27 C27        14.4410   10.1480  -70.3280 C.3       1 HD21281     0.0000 
     28 C28        14.9780    9.3820  -69.1590 C.3       1 HD21281     0.0000 
     29 C29        16.2840    8.8390  -69.6530 C.3       1 HD21281     0.0000 
     30 O30        16.1970    8.7420  -71.0670 O.3       1 HD21281     0.0000 
     31 C31        14.9940    9.3760  -71.4960 C.3       1 HD21281     0.0000 
     32 H          10.0170   12.8492  -68.6995 H         1 HD21281     0.0000 
     33 H          12.6083    9.7591  -71.3456 H         1 HD21281     0.0000 
     34 H          10.7077    9.6195  -65.3830 H         1 HD21281     0.0000 
     35 H          12.7027    9.8765  -64.4351 H         1 HD21281     0.0000 
     36 H          13.5056    9.9680  -66.0121 H         1 HD21281     0.0000 
     37 H          13.3179    7.7330  -64.1749 H         1 HD21281     0.0000 
     38 H          14.3255    7.9134  -65.6214 H         1 HD21281     0.0000 
     39 H          12.0520    6.2815  -65.3254 H         1 HD21281     0.0000 
     40 H          12.9251    6.6387  -66.8255 H         1 HD21281     0.0000 
     41 H          11.1457    7.7969  -67.5484 H         1 HD21281     0.0000 
     42 H          10.3158    7.5282  -66.0060 H         1 HD21281     0.0000 
     43 H          11.3789   11.5450  -65.0115 H         1 HD21281     0.0000 
     44 H           9.1287   13.4135  -64.3667 H         1 HD21281     0.0000 
     45 H          11.4620   14.1658  -63.9893 H         1 HD21281     0.0000 
     46 H          12.6972   13.2459  -62.0314 H         1 HD21281     0.0000 
     47 H          12.5310   12.0435  -63.3225 H         1 HD21281     0.0000 
     48 H          11.9755   11.0476  -61.1425 H         1 HD21281     0.0000 
     49 H           9.7132   10.1947  -61.6414 H         1 HD21281     0.0000 
     50 H          10.7077   10.2407  -63.1073 H         1 HD21281     0.0000 
     51 H           8.4661   11.1833  -63.5338 H         1 HD21281     0.0000 
     52 H           8.0343   11.9491  -61.2127 H         1 HD21281     0.0000 
     53 H           7.7621   13.2436  -62.3917 H         1 HD21281     0.0000 
     54 H          11.3191   13.1451  -60.0365 H         1 HD21281     0.0000 
     55 H          10.0678   11.9053  -59.8440 H         1 HD21281     0.0000 
     56 H           9.5401   15.0282  -62.7120 H         1 HD21281     0.0000 
     57 H          11.0035   14.9906  -61.7134 H         1 HD21281     0.0000 
     58 H          14.8411   11.1149  -70.3596 H         1 HD21281     0.0000 
     59 H          14.3180    8.5804  -68.9105 H         1 HD21281     0.0000 
     60 H          15.1427   10.0389  -68.3336 H         1 HD21281     0.0000 
     61 H          16.4528    7.8656  -69.1905 H         1 HD21281     0.0000 
     62 H          17.0813    9.5155  -69.3424 H         1 HD21281     0.0000 
     63 H          15.1753   10.0722  -72.3154 H         1 HD21281     0.0000 
     64 H          14.2465    8.6488  -71.8144 H         1 HD21281     0.0000 
     65 H           8.6039   15.0775  -60.7244 H         1 HD21281     0.0000 
@<TRIPOS>BOND
     1    2    1 ar   
     2    6    1 ar   
     3   32    1 1    
     4    3    2 ar   
     5   13    2 1    
     6    4    3 ar   
     7    8    3 1    
     8    5    4 ar   
     9    6    5 ar   
    10    7    5 1    
    11   27    7 1    
    12   33    7 1    
    13    9    8 1    
    14   12    8 1    
    15   34    8 1    
    16   10    9 1    
    17   35    9 1    
    18   36    9 1    
    19   11   10 1    
    20   37   10 1    
    21   38   10 1    
    22   12   11 1    
    23   39   11 1    
    24   40   11 1    
    25   41   12 1    
    26   42   12 1    
    27   14   13 2    
    28   15   13 am   
    29   16   15 1    
    30   43   15 1    
    31   17   16 1    
    32   21   16 1    
    33   44   16 1    
    34   18   17 1    
    35   25   17 1    
    36   45   17 1    
    37   19   18 1    
    38   46   18 1    
    39   47   18 1    
    40   20   19 1    
    41   24   19 1    
    42   48   19 1    
    43   21   20 1    
    44   49   20 1    
    45   50   20 1    
    46   22   21 1    
    47   51   21 1    
    48   23   22 1    
    49   52   22 1    
    50   53   22 1    
    51   24   23 1    
    52   25   23 1    
    53   26   23 1    
    54   54   24 1    
    55   55   24 1    
    56   56   25 1    
    57   57   25 1    
    58   65   26 1    
    59   28   27 1    
    60   31   27 1    
    61   58   27 1    
    62   29   28 1    
    63   59   28 1    
    64   60   28 1    
    65   30   29 1    
    66   61   29 1    
    67   62   29 1    
    68   31   30 1    
    69   63   31 1    
    70   64   31 1    
@<TRIPOS>SUBSTRUCTURE
     1 HD21281     1 GROUP   
@<TRIPOS>SET

