#    Name: 2qt5_GLY_THR_GLU_VAL_1_INTS_M
#    Modification time : Mon Mar 24 22:43:23 2014

@<TRIPOS>MOLECULE
2qt5_GLY_THR_GLU_VAL_1_INTS_M
   64     0    12     0     0
SMALL
NO_CHARGES


@<TRIPOS>ATOM
      1 CA          9.1300   23.4475    1.9205 C.3       4 GLC5        0.0000 
      2 CA          7.6030   24.9110    1.5200 C.3      12 GLL5        0.0000 
      3 CA         10.6570   21.9840    2.3210 C.3       8 GLP5        0.0000 
      4 CA          6.0780   23.7420    1.4895 C.3       4 GLC5        0.0000 
      5 CA          4.5530   22.5730    1.4590 C.3       8 GLP5        0.0000 
      6 O           7.4340   23.7950    3.6495 O.2       1 ALC1        0.0000 
      7 O           8.4710   24.7190    3.7690 O.2       9 ALL1        0.0000 
      8 O           6.3970   22.8710    3.5300 O.2       5 ALP1        0.0000 
      9 CA         10.0225   23.4875    3.6000 C.3       4 GLC5        0.0000 
     10 CA          9.3880   24.9910    4.8790 C.3      12 GLL5        0.0000 
     11 N           8.6385   21.6630    4.8265 N.am      2 SEC2        0.0000 
     12 N           9.2210   22.7170    5.6540 N.am     10 SEL2        0.0000 
     13 N           8.0560   20.6090    3.9990 N.am      6 SEP2        0.0000 
     14 CA          7.4545   24.7070    6.8890 C.3       4 GLC5        0.0000 
     15 CA          8.6800   25.7940    5.9930 C.3      12 GLL5        0.0000 
     16 CA          6.2290   23.6200    7.7850 C.3       8 GLP5        0.0000 
     17 O           6.5980   26.6685    5.1325 O.2       1 ALC1        0.0000 
     18 O           7.8960   26.8450    5.4070 O.2       9 ALL1        0.0000 
     19 O           5.3000   26.4920    4.8580 O.2       5 ALP1        0.0000 
     20 CA          8.5945   25.8460    8.6125 C.3       4 GLC5        0.0000 
     21 CA          9.6890   26.3720    6.9910 C.3      12 GLL5        0.0000 
     22 CA          7.5000   25.3200   10.2340 C.3       8 GLP5        0.0000 
     23 CA         11.1610   21.2545    5.0560 C.3       4 GLC5        0.0000 
     24 CA         11.9490   22.5410    6.2840 C.3      12 GLL5        0.0000 
     25 CA         10.3730   19.9680    3.8280 C.3       8 GLP5        0.0000 
     26 CA         12.3025   21.5675    4.2845 C.3       4 GLC5        0.0000 
     27 CA         13.4370   22.5520    5.9090 C.3      12 GLL5        0.0000 
     28 CA         11.1680   20.5830    2.6600 C.3       8 GLP5        0.0000 
     29 NZ         17.4380   22.2350    4.9515 N.4       3 LYC4        0.0000 
     30 NZ         16.2810   22.2430    5.6890 N.4      11 LYL4        0.0000 
     31 NZ         19.2730   21.0960    4.3660 N.4       7 LYP4        0.0000 
     32 N          17.4905   21.1530    5.3380 N.am      2 SEC2        0.0000 
     33 N          16.2810   22.2430    5.6890 N.am     10 SEL2        0.0000 
     34 N          18.7000   20.0630    4.9870 N.am      6 SEP2        0.0000 
     35 N          17.4380   22.2350    4.9515 N.am      2 SEC2        0.0000 
     36 N          18.5950   22.2270    4.2140 N.am      6 SEP2        0.0000 
     37 NZ         17.3640   20.0715    5.1890 N.4       3 LYC4        0.0000 
     38 NZ         16.0280   20.0800    5.3910 N.4      11 LYL4        0.0000 
     39 N          17.3640   20.0715    5.1890 N.am      2 SEC2        0.0000 
     40 N          16.0280   20.0800    5.3910 N.am     10 SEL2        0.0000 
     41 O          11.1855   20.2495    7.3770 O.2       1 ALC1        0.0000 
     42 O          11.5420   21.2370    8.2720 O.2       9 ALL1        0.0000 
     43 O          10.8290   19.2620    6.4820 O.2       5 ALP1        0.0000 
     44 N          13.8375   18.2600   10.0940 N.am      2 SEC2        0.0000 
     45 N          13.1510   19.2670    9.0970 N.am     10 SEL2        0.0000 
     46 N          14.5240   17.2530   11.0910 N.am      6 SEP2        0.0000 
     47 N          14.0735   18.0670    8.7550 N.am      2 SEC2        0.0000 
     48 N          14.9960   16.8670    8.4130 N.am      6 SEP2        0.0000 
     49 N          13.0725   18.2500    7.8390 N.am      2 SEC2        0.0000 
     50 N          12.9940   17.2330    6.5810 N.am      6 SEP2        0.0000 
     51 CA          8.3320   23.5650   10.1355 C.3       4 GLC5        0.0000 
     52 CA          9.1640   21.8100   10.0370 C.3      12 GLL5        0.0000 
     53 CA         10.0195   17.5690   10.6925 C.3       4 GLC5        0.0000 
     54 CA          9.5050   19.3660    9.5050 C.3      12 GLL5        0.0000 
     55 CA         10.5340   15.7720   11.8800 C.3       8 GLP5        0.0000 
     56 CA          8.9745   17.5655    8.6130 C.3       4 GLC5        0.0000 
     57 CA          8.4440   15.7650    7.7210 C.3       8 GLP5        0.0000 
     58 N          13.5625   18.3020   11.1215 N.am      2 SEC2        0.0000 
     59 N          12.6010   19.3510   11.1520 N.am     10 SEL2        0.0000 
     60 CA          9.7477   22.3980   11.8025 C.3       4 GLC5        0.0000 
     61 CA          9.8730   23.5880   13.4810 C.3       8 GLP5        0.0000 
     62 CA          8.0264   20.0275   10.8843 C.3       4 GLC5        0.0000 
     63 CA         10.0810   20.6060   10.2110 C.3      12 GLL5        0.0000 
     64 CA          6.4890   19.7680   11.9540 C.3       8 GLP5        0.0000 
@<TRIPOS>BOND
@<TRIPOS>SUBSTRUCTURE
     1 ALC1        6 GROUP        1 X    ALC  0     ROOT ALC X 1
     2 SEC2       11 GROUP        1 X    SEC  0     **** SEC X 2
     3 LYC4       29 GROUP        1 X    LYC  0     **** LYC X 4
     4 GLC5        1 GROUP        1 X    GLC  0     **** GLC X 6
     5 ALP1        8 GROUP        1 Y    ALP  0     ROOT ALP Y 8
     6 SEP2       13 GROUP        1 Y    SEP  0     **** SEP Y 9
     7 LYP4       31 GROUP        1 Y    LYP  0     **** LYP Y 11
     8 GLP5        3 GROUP        1 Y    GLP  0     **** GLP Y 13
     9 ALL1        7 GROUP        1 Z    ALL  0     ROOT ALL Z 15
    10 SEL2       12 GROUP        1 Z    SEL  0     **** SEL Z 16
    11 LYL4       30 GROUP        1 Z    LYL  0     **** LYL Z 18
    12 GLL5        2 GROUP        1 Z    GLL  0     **** GLL Z 20
@<TRIPOS>SET

