#    Name: 2qt5_GLY_THR_GLU_VAL_1_ligand
#    Modification time : Mon Mar 24 22:43:23 2014

@<TRIPOS>MOLECULE
2qt5_GLY_THR_GLU_VAL_1_ligand
   56    55     4     0     0
SMALL
NO_CHARGES


@<TRIPOS>ATOM
      1 N           7.7610   25.6870    0.2540 N.4       1 GLY1006     0.0000
      2 CA          7.6030   24.9110    1.5200 C.3       1 GLY1006     0.0000
      3 C           8.6570   25.2400    2.5600 C.2       1 GLY1006     0.0000
      4 O           9.6320   25.9400    2.2730 O.2       1 GLY1006     0.0000
      5 HA2         7.6478   23.8297    1.3004 H         1 GLY1006     0.0000
      6 HA3         6.6059   25.1059    1.9526 H         1 GLY1006     0.0000
      7 HNCA        8.6436   25.5109   -0.1819 H         1 GLY1006     0.0000
      8 H           7.0532   25.4565   -0.4137 H         1 GLY1006     0.0000
      9 H           7.7041   26.6726    0.4130 H         1 GLY1006     0.0000
     10 N           8.4710   24.7190    3.7690 N.am      2 THR1007     0.0000
     11 CA          9.3880   24.9910    4.8790 C.3       2 THR1007     0.0000
     12 C           9.9550   23.6930    5.4550 C.2       2 THR1007     0.0000
     13 O           9.2210   22.7170    5.6540 O.2       2 THR1007     0.0000
     14 CB          8.6800   25.7940    5.9930 C.3       2 THR1007     0.0000
     15 OG1         7.8960   26.8450    5.4070 O.3       2 THR1007     0.0000
     16 CG2         9.6890   26.3720    6.9910 C.3       2 THR1007     0.0000
     17 HNCA        7.6690   24.0934    3.9918 H         2 THR1007     0.0000
     18 HA         10.2267   25.5939    4.5306 H         2 THR1007     0.0000
     19 HB          8.0379   25.0986    6.5334 H         2 THR1007     0.0000
     20 HG21       10.2248   25.6540    7.4353 H         2 THR1007     0.0000
     21 HG22       10.3380   26.9900    6.5472 H         2 THR1007     0.0000
     22 HG23        9.2378   26.8922    7.7161 H         2 THR1007     0.0000
     23 HG1         7.0612   26.3971    5.0866 H         2 THR1007     0.0000
     24 N          11.2600   23.6980    5.7220 N.am      3 GLU1008     0.0000
     25 CA         11.9490   22.5410    6.2840 C.3       3 GLU1008     0.0000
     26 C          11.8140   22.4500    7.7980 C.2       3 GLU1008     0.0000
     27 O          11.9580   23.4490    8.5140 O.2       3 GLU1008     0.0000
     28 CB         13.4370   22.5520    5.9090 C.3       3 GLU1008     0.0000
     29 CG         14.1760   21.2640    6.2970 C.3       3 GLU1008     0.0000
     30 CD         15.5940   21.1940    5.7530 C.2       3 GLU1008     0.0000
     31 OE1        16.2810   22.2430    5.6890 O.co2     3 GLU1008     0.0000
     32 OE2        16.0280   20.0800    5.3910 O.co2     3 GLU1008     0.0000
     33 HNCA       11.8594   24.5355    5.5414 H         3 GLU1008     0.0000
     34 HA         11.5276   21.6161    5.8617 H         3 GLU1008     0.0000
     35 HB2        13.9230   23.4044    6.4038 H         3 GLU1008     0.0000
     36 HB3        13.5302   22.7033    4.8245 H         3 GLU1008     0.0000
     37 HG2        13.6018   20.4024    5.9257 H         3 GLU1008     0.0000
     38 HG3        14.2041   21.1903    7.3941 H         3 GLU1008     0.0000
     39 N          11.5420   21.2370    8.2720 N.am      4 VAL1009     0.0000
     40 CA         11.5150   20.9340    9.6990 C.3       4 VAL1009     0.0000
     41 C          12.4770   19.7840   10.0020 C.2       4 VAL1009     0.0000
     42 O          13.1510   19.2670    9.0970 O.2       4 VAL1009     0.0000
     43 CB         10.0810   20.6060   10.2110 C.3       4 VAL1009     0.0000
     44 CG1         9.1640   21.8100   10.0370 C.3       4 VAL1009     0.0000
     45 CG2         9.5050   19.3660    9.5050 C.3       4 VAL1009     0.0000
     46 OXT        12.6010   19.3510   11.1520 O.3       4 VAL1009     0.0000
     47 HNCA       11.3312   20.4295    7.6378 H         4 VAL1009     0.0000
     48 HA         11.8658   21.8053   10.2679 H         4 VAL1009     0.0000
     49 HB         10.1580   20.3844   11.2761 H         4 VAL1009     0.0000
     50 H           9.4925   22.6041   10.5484 H         4 VAL1009     0.0000
     51 H           9.0930   22.0874    9.0789 H         4 VAL1009     0.0000
     52 H           8.2358   21.6192   10.3565 H         4 VAL1009     0.0000
     53 HG21        9.4434   19.4971    8.5155 H         4 VAL1009     0.0000
     54 HG22       10.0699   18.5553    9.6586 H         4 VAL1009     0.0000
     55 HG23        8.5847   19.1478    9.8296 H         4 VAL1009     0.0000
     56 H          12.5709   20.1608   11.7380 H         4 VAL1009     0.0000
@<TRIPOS>BOND
     1    2    1 1
     2    7    1 1
     3    8    1 1
     4    9    1 1
     5    3    2 1
     6    5    2 1
     7    6    2 1
     8    4    3 2
     9   11   10 1
    10   17   10 1
    11   12   11 1
    12   14   11 1
    13   18   11 1
    14   13   12 2
    15   15   14 1
    16   16   14 1
    17   19   14 1
    18   23   15 1
    19   20   16 1
    20   21   16 1
    21   22   16 1
    22   25   24 1
    23   33   24 1
    24   26   25 1
    25   28   25 1
    26   34   25 1
    27   27   26 2
    28   29   28 1
    29   35   28 1
    30   36   28 1
    31   30   29 1
    32   37   29 1
    33   38   29 1
    34   31   30 ar
    35   32   30 ar
    36   40   39 1
    37   47   39 1
    38   41   40 1
    39   43   40 1
    40   48   40 1
    41   42   41 2
    42   46   41 1
    43   44   43 1
    44   45   43 1
    45   49   43 1
    46   50   44 1
    47   51   44 1
    48   52   44 1
    49   53   45 1
    50   54   45 1
    51   55   45 1
    52   56   46 1
    53   10    3 am
    54   24   12 am
    55   39   26 am
@<TRIPOS>SUBSTRUCTURE
     1 GLY1006     1 RESIDUE
     2 THR1007    10 RESIDUE
     3 GLU1008    24 RESIDUE
     4 VAL1009    39 RESIDUE
@<TRIPOS>SET

