#    Name: 3a29_2T0_4_INTS_M
#    Modification time : Mon Apr  7 18:54:53 2014

@<TRIPOS>MOLECULE
3a29_2T0_4_INTS_M
   48     0    12     0     0
SMALL
NO_CHARGES


@<TRIPOS>ATOM
      1 CA         19.4205    2.4165   45.2215 C.3       4 GLC5        0.0000 
      2 CA         20.4440    1.3590   46.4340 C.3      12 GLL5        0.0000 
      3 CA         18.3970    3.4740   44.0090 C.3       8 GLP5        0.0000 
      4 CA         22.6590    4.0165   46.7025 C.3       4 GLC5        0.0000 
      5 CA         20.7020    3.7170   47.2110 C.3      12 GLL5        0.0000 
      6 CA         24.6160    4.3160   46.1940 C.3       8 GLP5        0.0000 
      7 CA         22.8070    5.2440   46.9130 C.3       4 GLC5        0.0000 
      8 CA         20.9980    6.1720   47.6320 C.3      12 GLL5        0.0000 
      9 CA         19.3480    5.1685   46.9690 C.3       4 GLC5        0.0000 
     10 CA         17.6980    4.1650   46.3060 C.3       8 GLP5        0.0000 
     11 CA         19.7600    7.4320   46.3595 C.3       4 GLC5        0.0000 
     12 CA         18.5220    8.6920   45.0870 C.3       8 GLP5        0.0000 
     13 O          22.5945    5.8060   43.9585 O.2       1 ALC1        0.0000 
     14 O          21.9220    6.4020   45.0530 O.2       9 ALL1        0.0000 
     15 O          23.2670    5.2100   42.8640 O.2       5 ALP1        0.0000 
     16 CA         19.3960    6.3095   49.7060 C.3       4 GLC5        0.0000 
     17 CA         19.9950    4.4370   49.6070 C.3      12 GLL5        0.0000 
     18 CA         18.7970    8.1820   49.8050 C.3       8 GLP5        0.0000 
     19 N          22.5185   -0.0495   42.7870 N.am      2 SEC2        0.0000 
     20 N          21.9350    0.0820   44.0220 N.am     10 SEL2        0.0000 
     21 N          23.1020   -0.1810   41.5520 N.am      6 SEP2        0.0000 
     22 NZ         18.8725   -2.5970   43.6185 N.4       3 LYC4        0.0000 
     23 NZ         20.5950   -1.9180   43.3170 N.4      11 LYL4        0.0000 
     24 NZ         17.1500   -3.2760   43.9200 N.4       7 LYP4        0.0000 
     25 N          21.8165   -2.2900   43.0255 N.am      2 SEC2        0.0000 
     26 N          20.5950   -1.9180   43.3170 N.am     10 SEL2        0.0000 
     27 N          23.0380   -2.6620   42.7340 N.am      6 SEP2        0.0000 
     28 N          20.7550   -1.9830   41.9655 N.am      2 SEC2        0.0000 
     29 N          20.9150   -2.0480   40.6140 N.am      6 SEP2        0.0000 
     30 N          19.2705    1.4685   42.6415 N.am      2 SEC2        0.0000 
     31 N          19.5390    0.3560   43.4740 N.am     10 SEL2        0.0000 
     32 N          19.0020    2.5810   41.8090 N.am      6 SEP2        0.0000 
     33 N          18.3670    0.3715   44.1335 N.am      2 SEC2        0.0000 
     34 N          17.1950    0.3870   44.7930 N.am      6 SEP2        0.0000 
     35 CA         21.6382    0.3510   48.0510 C.3       4 GLC5        0.0000 
     36 CA         20.1300    0.0170   46.6740 C.3      12 GLL5        0.0000 
     37 CA         23.3380    0.8920   48.7950 C.3       8 GLP5        0.0000 
     38 CA         18.9405    3.1322   47.2032 C.3       4 GLC5        0.0000 
     39 CA         19.9900    1.9020   48.7440 C.3      12 GLL5        0.0000 
     40 CA         22.3227    6.4277   48.6230 C.3       4 GLC5        0.0000 
     41 CA         20.5290    4.6650   48.2220 C.3      12 GLL5        0.0000 
     42 CA         23.8820    7.4370   49.3190 C.3       8 GLP5        0.0000 
     43 CA         19.1568    4.1780   47.0112 C.3       4 GLC5        0.0000 
     44 CA         19.7803    6.8003   48.8660 C.3       4 GLC5        0.0000 
     45 CA         21.9470    1.8322   47.9366 C.3       4 GLC5        0.0000 
     46 CA         18.8235    3.9183   48.0343 C.3       4 GLC5        0.0000 
     47 CA         19.9030    2.9060   49.9180 C.3      12 GLL5        0.0000 
     48 CA         21.6034    1.4786   49.0910 C.3       4 GLC5        0.0000 
@<TRIPOS>BOND
@<TRIPOS>SUBSTRUCTURE
     1 ALC1       13 GROUP        1 X    ALC  0     ROOT ALC X 1
     2 SEC2       19 GROUP        1 X    SEC  0     **** SEC X 2
     3 LYC4       22 GROUP        1 X    LYC  0     **** LYC X 4
     4 GLC5        1 GROUP        1 X    GLC  0     **** GLC X 6
     5 ALP1       15 GROUP        1 Y    ALP  0     ROOT ALP Y 8
     6 SEP2       21 GROUP        1 Y    SEP  0     **** SEP Y 9
     7 LYP4       24 GROUP        1 Y    LYP  0     **** LYP Y 11
     8 GLP5        3 GROUP        1 Y    GLP  0     **** GLP Y 13
     9 ALL1       14 GROUP        1 Z    ALL  0     ROOT ALL Z 15
    10 SEL2       20 GROUP        1 Z    SEL  0     **** SEL Z 16
    11 LYL4       23 GROUP        1 Z    LYL  0     **** LYL Z 18
    12 GLL5        2 GROUP        1 Z    GLL  0     **** GLL Z 20
@<TRIPOS>SET

