#    Name: 3a29_2T0_4_ligand
#    Modification time : Mon Apr  7 18:54:53 2014

@<TRIPOS>MOLECULE
3a29_2T0_4_ligand
   28    30     1     0     0
SMALL
NO_CHARGES


@<TRIPOS>ATOM
      1 C1         20.1300    0.0170   46.6740 C.ar      1 2T0401      0.0000 
      2 C2         19.7470   -0.3970   47.9400 C.ar      1 2T0401      0.0000 
      3 C3         19.6790    0.5470   48.9680 C.ar      1 2T0401      0.0000 
      4 C4         19.9900    1.9020   48.7440 C.ar      1 2T0401      0.0000 
      5 C52        20.3760    2.2970   47.4570 C.ar      1 2T0401      0.0000 
      6 C6         20.4440    1.3590   46.4340 C.ar      1 2T0401      0.0000 
      7 P8         20.5640   -0.6080   44.1330 P.3       1 2T0401      0.0000 
      8 C9         20.5290    4.6650   48.2220 C.2       1 2T0401      0.0000 
      9 C10        20.7020    3.7170   47.2110 C.2       1 2T0401      0.0000 
     10 S11        20.9980    6.1720   47.6320 S.3       1 2T0401      0.0000 
     11 C12        21.4050    5.5530   46.1170 C.2       1 2T0401      0.0000 
     12 N13        21.1950    4.2180   46.0310 N.2       1 2T0401      0.0000 
     13 N14        21.9220    6.4020   45.0530 N.pl3     1 2T0401      0.0000 
     14 O18        20.2020   -0.9270   45.6210 O.3       1 2T0401      0.0000 
     15 C20        19.9950    4.4370   49.6070 C.3       1 2T0401      0.0000 
     16 C21        19.9030    2.9060   49.9180 C.3       1 2T0401      0.0000 
     17 O26        21.9350    0.0820   44.0220 O.co2     1 2T0401      0.0000 
     18 O27        20.5950   -1.9180   43.3170 O.co2     1 2T0401      0.0000 
     19 O28        19.5390    0.3560   43.4740 O.co2     1 2T0401      0.0000 
     20 H          19.5173   -1.3741   48.1237 H         1 2T0401      0.0000 
     21 H          19.3942    0.2483   49.9169 H         1 2T0401      0.0000 
     22 H          20.7286    1.6512   45.4862 H         1 2T0401      0.0000 
     23 H          22.0504    7.3667   45.2830 H         1 2T0401      0.0000 
     24 H          22.1061    5.9504   44.1800 H         1 2T0401      0.0000 
     25 H          18.9982    4.8596   49.7050 H         1 2T0401      0.0000 
     26 H          20.6496    4.8908   50.3468 H         1 2T0401      0.0000 
     27 H          20.7063    2.6587   50.6556 H         1 2T0401      0.0000 
     28 H          18.9457    2.7262   50.4674 H         1 2T0401      0.0000 
@<TRIPOS>BOND
     1    2    1 ar   
     2    6    1 ar   
     3   14    1 1    
     4    3    2 ar   
     5   20    2 1    
     6    4    3 ar   
     7   21    3 1    
     8    5    4 ar   
     9   16    4 1    
    10    6    5 ar   
    11    9    5 1    
    12   22    6 1    
    13   14    7 1    
    14   17    7 ar   
    15   18    7 ar   
    16   19    7 ar   
    17    9    8 2    
    18   10    8 1    
    19   15    8 1    
    20   12    9 1    
    21   11   10 1    
    22   12   11 2    
    23   13   11 1    
    24   23   13 1    
    25   24   13 1    
    26   16   15 1    
    27   25   15 1    
    28   26   15 1    
    29   27   16 1    
    30   28   16 1    
@<TRIPOS>SUBSTRUCTURE
     1 2T0401      1 GROUP   
@<TRIPOS>SET

