#    Name: 4ldl_XQC_1_INTS_M
#    Modification time : Mon Apr  7 23:59:04 2014

@<TRIPOS>MOLECULE
4ldl_XQC_1_INTS_M
   57     0    12     0     0
SMALL
NO_CHARGES


@<TRIPOS>ATOM
      1 CA         -3.7385   -9.4555  -51.9520 C.3       4 GLC5        0.0000 
      2 CA         -4.5840  -11.3200  -51.7090 C.3      12 GLL5        0.0000 
      3 CA         -2.8930   -7.5910  -52.1950 C.3       8 GLP5        0.0000 
      4 CA         -5.0025  -10.1915  -49.8125 C.3       4 GLC5        0.0000 
      5 CA         -5.4210   -9.0630  -47.9160 C.3       8 GLP5        0.0000 
      6 CA         -3.1835  -10.9265  -53.0060 C.3       4 GLC5        0.0000 
      7 CA         -1.7830  -10.5330  -54.3030 C.3       8 GLP5        0.0000 
      8 CA         -3.0575  -15.2050  -53.0480 C.3       4 GLC5        0.0000 
      9 CA         -3.5750  -13.4730  -52.4900 C.3      12 GLL5        0.0000 
     10 CA         -2.5400  -16.9370  -53.6060 C.3       8 GLP5        0.0000 
     11 CA         -7.6080  -11.8130  -52.3530 C.3       4 GLC5        0.0000 
     12 CA         -6.0460  -13.3600  -52.0050 C.3      12 GLL5        0.0000 
     13 CA         -9.1700  -10.2660  -52.7010 C.3       8 GLP5        0.0000 
     14 CA         -0.8275  -10.5420  -46.0645 C.3       4 GLC5        0.0000 
     15 CA         -0.1000  -12.5810  -46.0290 C.3      12 GLL5        0.0000 
     16 CA         -1.5550   -8.5030  -46.1000 C.3       8 GLP5        0.0000 
     17 CA          0.9350  -10.3200  -46.7245 C.3       4 GLC5        0.0000 
     18 CA          0.9650  -12.3950  -46.9040 C.3      12 GLL5        0.0000 
     19 CA          0.9050   -8.2450  -46.5450 C.3       8 GLP5        0.0000 
     20 OD1        -5.1905  -12.2090  -49.5075 O.co2     3 ASC3        0.0000 
     21 OD1        -4.3850  -13.2090  -50.2490 O.co2    11 ASL3        0.0000 
     22 OD1        -5.9960  -11.2090  -48.7660 O.co2     7 ASP3        0.0000 
     23 N          -4.5140  -14.7280  -47.7050 N.am      2 SEC2        0.0000 
     24 N          -3.8720  -13.4640  -47.4600 N.am     10 SEL2        0.0000 
     25 N          -5.1560  -15.9920  -47.9500 N.am      6 SEP2        0.0000 
     26 O          -4.5410  -12.2950  -47.0915 O.2       1 ALC1        0.0000 
     27 O          -3.8720  -13.4640  -47.4600 O.2       9 ALL1        0.0000 
     28 O          -5.2100  -11.1260  -46.7230 O.2       5 ALP1        0.0000 
     29 O          -4.9340  -12.3365  -48.1130 O.2       1 ALC1        0.0000 
     30 O          -5.9960  -11.2090  -48.7660 O.2       5 ALP1        0.0000 
     31 O           2.7475  -11.5485  -45.0060 O.2       1 ALC1        0.0000 
     32 O           2.1800  -11.9960  -46.4310 O.2       9 ALL1        0.0000 
     33 O           3.3150  -11.1010  -43.5810 O.2       5 ALP1        0.0000 
     34 O           3.4760  -12.0730  -49.0580 O.2       1 ALC1        0.0000 
     35 O           1.8330  -12.4340  -49.1180 O.2       9 ALL1        0.0000 
     36 O           5.1190  -11.7120  -48.9980 O.2       5 ALP1        0.0000 
     37 CA         -2.9335  -12.4775  -53.4612 C.3       4 GLC5        0.0000 
     38 CA         -1.7510  -11.7980  -54.8660 C.3       8 GLP5        0.0000 
     39 CA         -4.5760  -12.5985  -54.8622 C.3       4 GLC5        0.0000 
     40 CA         -6.2460  -13.5140  -53.5010 C.3      12 GLL5        0.0000 
     41 CA         -2.8270  -12.2390  -55.8120 C.3       8 GLP5        0.0000 
     42 CA         -6.1925  -12.3355  -57.7057 C.3       4 GLC5        0.0000 
     43 CA         -6.5950  -12.5610  -55.6910 C.3      12 GLL5        0.0000 
     44 CA         -5.7660  -11.4720  -59.4450 C.3       8 GLP5        0.0000 
     45 CA         -4.7230  -12.7190  -55.8893 C.3       4 GLC5        0.0000 
     46 CA         -7.1060  -16.6283  -54.9112 C.3       4 GLC5        0.0000 
     47 CA         -6.4970  -14.9500  -55.4230 C.3      12 GLL5        0.0000 
     48 CA         -7.8100  -18.3870  -55.0830 C.3       8 GLP5        0.0000 
     49 CA         -2.1775  -15.0403  -49.1840 C.3       4 GLC5        0.0000 
     50 CA         -3.1120  -12.8260  -49.6700 C.3      12 GLL5        0.0000 
     51 CA         -1.3890  -16.8470  -49.3250 C.3       8 GLP5        0.0000 
     52 CA         -1.2497  -13.0653  -44.5463 C.3       4 GLC5        0.0000 
     53 CA         -1.3390  -12.9900  -46.5120 C.3      12 GLL5        0.0000 
     54 CA         -1.7800  -13.3450  -42.8220 C.3       8 GLP5        0.0000 
     55 CA         -0.2508  -10.7005  -48.4763 C.3       4 GLC5        0.0000 
     56 CA          0.7920  -12.6150  -48.2590 C.3      12 GLL5        0.0000 
     57 CA         -0.6750   -8.5830  -48.4510 C.3       8 GLP5        0.0000 
@<TRIPOS>BOND
@<TRIPOS>SUBSTRUCTURE
     1 ALC1       26 GROUP        1 X    ALC  0     ROOT ALC X 1
     2 SEC2       23 GROUP        1 X    SEC  0     **** SEC X 2
     3 ASC3       20 GROUP        1 X    ASC  0     **** ASC X 3
     4 GLC5        1 GROUP        1 X    GLC  0     **** GLC X 6
     5 ALP1       28 GROUP        1 Y    ALP  0     ROOT ALP Y 8
     6 SEP2       25 GROUP        1 Y    SEP  0     **** SEP Y 9
     7 ASP3       22 GROUP        1 Y    ASP  0     **** ASP Y 10
     8 GLP5        3 GROUP        1 Y    GLP  0     **** GLP Y 13
     9 ALL1       27 GROUP        1 Z    ALL  0     ROOT ALL Z 15
    10 SEL2       24 GROUP        1 Z    SEL  0     **** SEL Z 16
    11 ASL3       21 GROUP        1 Z    ASL  0     **** ASL Z 17
    12 GLL5        2 GROUP        1 Z    GLL  0     **** GLL Z 20
@<TRIPOS>SET

