#    Name: 4ldl_XQC_1_ligand
#    Modification time : Mon Apr  7 23:59:04 2014

@<TRIPOS>MOLECULE
4ldl_XQC_1_ligand
   45    46     1     0     0
SMALL
NO_CHARGES


@<TRIPOS>ATOM
      1 CAA        -4.5840  -11.3200  -51.7090 C.3       1 XQC1401     0.0000 
      2 CAB        -4.6570  -12.8410  -51.6230 C.3       1 XQC1401     0.0000 
      3 CAC        -3.5750  -13.4730  -52.4900 C.3       1 XQC1401     0.0000 
      4 CAD        -6.0460  -13.3600  -52.0050 C.3       1 XQC1401     0.0000 
      5 CAE        -6.2460  -13.5140  -53.5010 C.ar      1 XQC1401     0.0000 
      6 CAF        -6.4040  -12.4020  -54.3240 C.ar      1 XQC1401     0.0000 
      7 CAG        -6.5950  -12.5610  -55.6910 C.ar      1 XQC1401     0.0000 
      8 CAH        -6.6430  -13.8370  -56.2420 C.ar      1 XQC1401     0.0000 
      9 CAJ        -6.4970  -14.9500  -55.4230 C.ar      1 XQC1401     0.0000 
     10 CAK        -6.3070  -14.7890  -54.0560 C.ar      1 XQC1401     0.0000 
     11 CAM        -3.1120  -12.8260  -49.6700 C.3       1 XQC1401     0.0000 
     12 CAN        -2.8200  -13.6410  -48.4160 C.3       1 XQC1401     0.0000 
     13 CAP        -1.5120  -13.2050  -47.8740 C.ar      1 XQC1401     0.0000 
     14 CAQ        -1.3390  -12.9900  -46.5120 C.ar      1 XQC1401     0.0000 
     15 CAR        -0.1000  -12.5810  -46.0290 C.ar      1 XQC1401     0.0000 
     16 CAS         0.9650  -12.3950  -46.9040 C.ar      1 XQC1401     0.0000 
     17 CAU         0.7920  -12.6150  -48.2590 C.ar      1 XQC1401     0.0000 
     18 CAW        -0.4450  -13.0210  -48.7440 C.ar      1 XQC1401     0.0000 
     19 NAL        -4.3850  -13.2090  -50.2490 N.4       1 XQC1401     0.0000 
     20 OAI        -6.8320  -13.9960  -57.5820 O.3       1 XQC1401     0.0000 
     21 OAO        -3.8720  -13.4640  -47.4600 O.3       1 XQC1401     0.0000 
     22 OAT         2.1800  -11.9960  -46.4310 O.3       1 XQC1401     0.0000 
     23 OAV         1.8330  -12.4340  -49.1180 O.3       1 XQC1401     0.0000 
     24 H          -6.8040  -12.6673  -51.6064 H         1 XQC1401     0.0000 
     25 H          -6.2068  -14.3332  -51.5147 H         1 XQC1401     0.0000 
     26 H          -6.3789  -11.4559  -53.9155 H         1 XQC1401     0.0000 
     27 H          -6.7009  -11.7360  -56.2955 H         1 XQC1401     0.0000 
     28 H          -6.5296  -15.8950  -55.8295 H         1 XQC1401     0.0000 
     29 H          -6.2107  -15.6164  -53.4496 H         1 XQC1401     0.0000 
     30 H          -2.2906  -12.9875  -50.3809 H         1 XQC1401     0.0000 
     31 H          -3.1076  -11.7628  -49.3947 H         1 XQC1401     0.0000 
     32 H          -2.7440  -14.6808  -48.7209 H         1 XQC1401     0.0000 
     33 H          -2.1224  -13.1323  -45.8638 H         1 XQC1401     0.0000 
     34 H           0.0287  -12.4156  -45.0211 H         1 XQC1401     0.0000 
     35 H          -0.5712  -13.1863  -49.7534 H         1 XQC1401     0.0000 
     36 H          -3.6985  -10.9726  -51.4003 H         1 XQC1401     0.0000 
     37 H          -4.7165  -10.9942  -52.6451 H         1 XQC1401     0.0000 
     38 H          -5.2836  -10.8821  -51.1444 H         1 XQC1401     0.0000 
     39 H          -2.6587  -13.1938  -52.2028 H         1 XQC1401     0.0000 
     40 H          -3.6032  -14.4718  -52.4498 H         1 XQC1401     0.0000 
     41 H          -3.6720  -13.2155  -53.4514 H         1 XQC1401     0.0000 
     42 H          -5.9461  -13.7848  -57.9951 H         1 XQC1401     0.0000 
     43 H          -4.1002  -12.4914  -47.5036 H         1 XQC1401     0.0000 
     44 H           2.0232  -11.7759  -45.4682 H         1 XQC1401     0.0000 
     45 H           2.6112  -12.1990  -48.5355 H         1 XQC1401     0.0000 
@<TRIPOS>BOND
     1    2    1 1    
     2   36    1 1    
     3   37    1 1    
     4   38    1 1    
     5    3    2 1    
     6    4    2 1    
     7   19    2 1    
     8   39    3 1    
     9   40    3 1    
    10   41    3 1    
    11    5    4 1    
    12   24    4 1    
    13   25    4 1    
    14    6    5 ar   
    15   10    5 ar   
    16    7    6 ar   
    17   26    6 1    
    18    8    7 ar   
    19   27    7 1    
    20    9    8 ar   
    21   20    8 1    
    22   10    9 ar   
    23   28    9 1    
    24   29   10 1    
    25   12   11 1    
    26   19   11 1    
    27   30   11 1    
    28   31   11 1    
    29   13   12 1    
    30   21   12 1    
    31   32   12 1    
    32   14   13 ar   
    33   18   13 ar   
    34   15   14 ar   
    35   33   14 1    
    36   16   15 ar   
    37   34   15 1    
    38   17   16 ar   
    39   22   16 1    
    40   18   17 ar   
    41   23   17 1    
    42   35   18 1    
    43   42   20 1    
    44   43   21 1    
    45   44   22 1    
    46   45   23 1    
@<TRIPOS>SUBSTRUCTURE
     1 XQC1401     1 GROUP   
@<TRIPOS>SET

