#    Name: 1yl7_NAD_5_INTS_M
#    Modification time : Tue Mar 25 11:09:30 2014

@<TRIPOS>MOLECULE
1yl7_NAD_5_INTS_M
   82     0     9     0     0
SMALL
NO_CHARGES


@<TRIPOS>ATOM
      1 N         145.5610   34.8380   60.4455 N.am      2 SEC2        0.0000 
      2 N         145.2380   36.2950   60.3290 N.am      8 SEL2        0.0000 
      3 N         145.8840   33.3810   60.5620 N.am      5 SEP2        0.0000 
      4 N         145.9590   34.7010   57.4455 N.am      2 SEC2        0.0000 
      5 N         146.0280   36.2020   57.9840 N.am      8 SEL2        0.0000 
      6 N         145.8900   33.2000   56.9070 N.am      5 SEP2        0.0000 
      7 CA        148.7185   34.9105   55.5915 C.3       3 GLC5        0.0000 
      8 CA        148.0260   36.3840   56.8010 C.3       9 GLL5        0.0000 
      9 CA        149.4110   33.4370   54.3820 C.3       6 GLP5        0.0000 
     10 O         150.6435   35.5020   57.6665 O.2       1 ALC1        0.0000 
     11 O         149.6810   36.2330   58.5600 O.2       7 ALL1        0.0000 
     12 O         151.6060   34.7710   56.7730 O.2       4 ALP1        0.0000 
     13 O         152.0735   37.2515   57.3920 O.2       1 ALC1        0.0000 
     14 O         151.1530   38.1340   57.3620 O.2       7 ALL1        0.0000 
     15 O         152.9940   36.3690   57.4220 O.2       4 ALP1        0.0000 
     16 O         151.3795   36.4525   57.0675 O.2       1 ALC1        0.0000 
     17 CA        149.6145   35.2850   54.9835 C.3       3 GLC5        0.0000 
     18 CA        149.8180   37.1330   55.5850 C.3       9 GLL5        0.0000 
     19 CA        151.9790   34.5920   50.3720 C.3       3 GLC5        0.0000 
     20 CA        152.0260   35.8520   51.8700 C.3       9 GLL5        0.0000 
     21 CA        151.9320   33.3320   48.8740 C.3       6 GLP5        0.0000 
     22 CA        150.7185   34.6445   53.1260 C.3       3 GLC5        0.0000 
     23 CA        152.9605   35.2915   53.2645 C.3       3 GLC5        0.0000 
     24 CA        153.8950   34.7310   54.6590 C.3       6 GLP5        0.0000 
     25 CA        150.0135   35.6980   51.6895 C.3       3 GLC5        0.0000 
     26 CA        148.0010   35.5440   51.5090 C.3       6 GLP5        0.0000 
     27 CA        150.1415   35.3975   53.8445 C.3       3 GLC5        0.0000 
     28 CA        150.8720   37.3580   53.3070 C.3       9 GLL5        0.0000 
     29 CA        152.3835   36.0445   53.9830 C.3       3 GLC5        0.0000 
     30 N         143.8395   32.9370   58.7635 N.am      2 SEC2        0.0000 
     31 N         143.7070   34.2600   58.1370 N.am      8 SEL2        0.0000 
     32 N         143.9720   31.6140   59.3900 N.am      5 SEP2        0.0000 
     33 N         144.7985   33.7300   57.5220 N.am      2 SEC2        0.0000 
     34 CA        143.3980   34.0200   54.7860 C.3       3 GLC5        0.0000 
     35 CA        142.7560   35.8120   55.6570 C.3       9 GLL5        0.0000 
     36 CA        144.0400   32.2280   53.9150 C.3       6 GLP5        0.0000 
     37 CA        144.4450   36.1835   54.2610 C.3       3 GLC5        0.0000 
     38 CA        146.1340   36.5550   52.8650 C.3       6 GLP5        0.0000 
     39 CA        143.0835   34.6405   53.6435 C.3       3 GLC5        0.0000 
     40 CA        141.7750   36.0930   54.4960 C.3       9 GLL5        0.0000 
     41 CA        144.3920   33.1880   52.7910 C.3       6 GLP5        0.0000 
     42 N         139.9120   37.6050   52.1615 N.am      2 SEC2        0.0000 
     43 N         140.6190   37.9270   53.5200 N.am      8 SEL2        0.0000 
     44 N         139.2050   37.2830   50.8030 N.am      5 SEP2        0.0000 
     45 N         139.2555   38.3105   53.1275 N.am      2 SEC2        0.0000 
     46 N         137.8920   38.6940   52.7350 N.am      5 SEP2        0.0000 
     47 O         138.1425   38.0550   53.8210 O.2       1 ALC1        0.0000 
     48 O         138.3930   37.4160   54.9070 O.2       7 ALL1        0.0000 
     49 O         137.8920   38.6940   52.7350 O.2       4 ALP1        0.0000 
     50 CA        140.5750   33.5465   54.0675 C.3       3 GLC5        0.0000 
     51 CA        139.5740   35.3080   54.3460 C.3       9 GLL5        0.0000 
     52 CA        141.5760   31.7850   53.7890 C.3       6 GLP5        0.0000 
     53 CA        140.2505   35.4500   52.4780 C.3       3 GLC5        0.0000 
     54 CA        140.9270   35.5920   50.6100 C.3       6 GLP5        0.0000 
     55 CA        138.8660   32.7750   52.0070 C.3       3 GLC5        0.0000 
     56 CA        138.0410   33.5310   53.8140 C.3       9 GLL5        0.0000 
     57 CA        139.6910   32.0190   50.2000 C.3       6 GLP5        0.0000 
     58 CA        137.2765   35.1515   52.9900 C.3       3 GLC5        0.0000 
     59 CA        136.5120   36.7720   52.1660 C.3       6 GLP5        0.0000 
     60 N         135.0450   29.6900   52.7995 N.am      2 SEC2        0.0000 
     61 N         135.7500   30.6460   53.4680 N.am      8 SEL2        0.0000 
     62 N         134.3400   28.7340   52.1310 N.am      5 SEP2        0.0000 
     63 O         137.6230   33.1010   51.5355 O.2       1 ALC1        0.0000 
     64 O         136.5290   32.2360   51.9360 O.2       7 ALL1        0.0000 
     65 O         138.7170   33.9660   51.1350 O.2       4 ALP1        0.0000 
     66 O         136.1865   32.1765   50.4930 O.2       1 ALC1        0.0000 
     67 O         135.8440   32.1170   49.0500 O.2       4 ALP1        0.0000 
     68 CA        146.7222   36.5932   54.8560 C.3       3 GLC5        0.0000 
     69 CA        148.0004   35.2889   58.2728 C.3       3 GLC5        0.0000 
     70 CA        146.5950   36.8790   56.8930 C.3       9 GLL5        0.0000 
     71 CA        147.8780   33.6920   59.2360 C.3       6 GLP5        0.0000 
     72 CA        152.7848   38.1745   53.7097 C.3       3 GLC5        0.0000 
     73 CA        154.6200   38.4850   54.5810 C.3       6 GLP5        0.0000 
     74 CA        149.4753   36.7040   52.1737 C.3       3 GLC5        0.0000 
     75 CA        149.7523   39.1868   50.9603 C.3       3 GLC5        0.0000 
     76 CA        151.0270   38.3700   52.3700 C.3       9 GLL5        0.0000 
     77 CA        148.1440   40.1320   50.1490 C.3       6 GLP5        0.0000 
     78 CA        141.1093   36.1340   52.6163 C.3       3 GLC5        0.0000 
     79 CA        138.0277   36.3615   53.4642 C.3       3 GLC5        0.0000 
     80 CA        139.8015   32.3485   57.3582 C.3       3 GLC5        0.0000 
     81 CA        138.8490   33.6490   56.0590 C.3       9 GLL5        0.0000 
     82 CA        141.1320   31.6130   58.4880 C.3       6 GLP5        0.0000 
@<TRIPOS>BOND
@<TRIPOS>SUBSTRUCTURE
     1 ALC1       10 GROUP        1 X    ALC  0     ROOT ALC X 1
     2 SEC2        1 GROUP        1 X    SEC  0     **** SEC X 2
     3 GLC5        7 GROUP        1 X    GLC  0     **** GLC X 6
     4 ALP1       12 GROUP        1 Y    ALP  0     ROOT ALP Y 8
     5 SEP2        3 GROUP        1 Y    SEP  0     **** SEP Y 9
     6 GLP5        9 GROUP        1 Y    GLP  0     **** GLP Y 13
     7 ALL1       11 GROUP        1 Z    ALL  0     ROOT ALL Z 15
     8 SEL2        2 GROUP        1 Z    SEL  0     **** SEL Z 16
     9 GLL5        8 GROUP        1 Z    GLL  0     **** GLL Z 20
@<TRIPOS>SET

