#    Name: 1yl7_NAD_5_ligand
#    Modification time : Tue Mar 25 11:09:30 2014

@<TRIPOS>MOLECULE
1yl7_NAD_5_ligand
   70    74     1     0     0
SMALL
NO_CHARGES


@<TRIPOS>ATOM
      1 PA        145.0890   36.9820   59.0200 P.3       1 NAD505      0.0000 
      2 O1A       145.2380   36.2950   60.3290 O.co2     1 NAD505      0.0000 
      3 O2A       145.3570   38.4450   59.0960 O.co2     1 NAD505      0.0000 
      4 O5B       146.0280   36.2020   57.9840 O.3       1 NAD505      0.0000 
      5 C5B       146.5950   36.8790   56.8930 C.3       1 NAD505      0.0000 
      6 C4B       148.0260   36.3840   56.8010 C.3       1 NAD505      0.0000 
      7 O4B       148.5110   36.5890   55.4940 O.3       1 NAD505      0.0000 
      8 C3B       148.9350   37.1400   57.7720 C.3       1 NAD505      0.0000 
      9 O3B       149.6810   36.2330   58.5600 O.3       1 NAD505      0.0000 
     10 C2B       149.8420   37.9560   56.8620 C.3       1 NAD505      0.0000 
     11 O2B       151.1530   38.1340   57.3620 O.3       1 NAD505      0.0000 
     12 C1B       149.8180   37.1330   55.5850 C.3       1 NAD505      0.0000 
     13 N9A       150.1840   37.8910   54.3800 N.pl3     1 NAD505      0.0000 
     14 C8A       149.9250   39.2070   54.1000 C.2       1 NAD505      0.0000 
     15 N7A       150.4450   39.4770   52.8800 N.2       1 NAD505      0.0000 
     16 C5A       151.0270   38.3700   52.3700 C.ar      1 NAD505      0.0000 
     17 C6A       151.6940   38.1130   51.1730 C.ar      1 NAD505      0.0000 
     18 N6A       151.8780   39.0810   50.2900 N.pl3     1 NAD505      0.0000 
     19 N1A       152.2000   36.8460   50.9260 N.ar      1 NAD505      0.0000 
     20 C2A       152.0260   35.8520   51.8700 C.ar      1 NAD505      0.0000 
     21 N3A       151.3620   36.1180   53.0580 N.ar      1 NAD505      0.0000 
     22 C4A       150.8720   37.3580   53.3070 C.ar      1 NAD505      0.0000 
     23 O3        143.6060   36.8020   58.3880 O.3       1 NAD505      0.0000 
     24 PN        142.7890   35.4220   58.2860 P.3       1 NAD505      0.0000 
     25 O1N       141.7650   35.4030   59.3580 O.co2     1 NAD505      0.0000 
     26 O2N       143.7070   34.2600   58.1370 O.co2     1 NAD505      0.0000 
     27 O5D       142.0410   35.6500   56.8760 O.3       1 NAD505      0.0000 
     28 C5D       142.7560   35.8120   55.6570 C.3       1 NAD505      0.0000 
     29 C4D       141.7750   36.0930   54.4960 C.3       1 NAD505      0.0000 
     30 O4D       140.9560   34.9610   54.2550 O.3       1 NAD505      0.0000 
     31 C3D       140.8080   37.2590   54.7490 C.3       1 NAD505      0.0000 
     32 O3D       140.6190   37.9270   53.5200 O.3       1 NAD505      0.0000 
     33 C2D       139.5130   36.5940   55.1790 C.3       1 NAD505      0.0000 
     34 O2D       138.3930   37.4160   54.9070 O.3       1 NAD505      0.0000 
     35 C1D       139.5740   35.3080   54.3460 C.3       1 NAD505      0.0000 
     36 N1N       138.8050   34.1400   54.7720 N.pl3     1 NAD505      0.0000 
     37 C2N       138.0410   33.5310   53.8140 C.ar      1 NAD505      0.0000 
     38 C3N       137.2740   32.4020   54.1170 C.ar      1 NAD505      0.0000 
     39 C7N       136.5200   31.7490   53.1070 C.2       1 NAD505      0.0000 
     40 O7N       135.7500   30.6460   53.4680 O.2       1 NAD505      0.0000 
     41 N7N       136.5290   32.2360   51.9360 N.am      1 NAD505      0.0000 
     42 C4N       137.2910   31.9000   55.4310 C.ar      1 NAD505      0.0000 
     43 C5N       138.0930   32.5190   56.3980 C.ar      1 NAD505      0.0000 
     44 C6N       138.8490   33.6490   56.0590 C.ar      1 NAD505      0.0000 
     45 H         146.6209   37.9535   57.0363 H         1 NAD505      0.0000 
     46 H         146.1002   36.6488   55.9561 H         1 NAD505      0.0000 
     47 H         148.0484   35.3400   57.0693 H         1 NAD505      0.0000 
     48 H         148.3324   37.8084   58.3327 H         1 NAD505      0.0000 
     49 H         149.3287   38.8793   56.6470 H         1 NAD505      0.0000 
     50 H         150.5367   36.3105   55.7325 H         1 NAD505      0.0000 
     51 H         149.4597   39.8169   54.6705 H         1 NAD505      0.0000 
     52 H         151.4872   39.9710   50.5249 H         1 NAD505      0.0000 
     53 H         152.3912   38.8349   49.4678 H         1 NAD505      0.0000 
     54 H         152.3928   34.9021   51.6913 H         1 NAD505      0.0000 
     55 H         143.3261   34.9137   55.3895 H         1 NAD505      0.0000 
     56 H         143.4587   36.6535   55.6985 H         1 NAD505      0.0000 
     57 H         142.3518   36.3324   53.6077 H         1 NAD505      0.0000 
     58 H         141.1821   37.8488   55.5172 H         1 NAD505      0.0000 
     59 H         139.6264   36.3170   56.2031 H         1 NAD505      0.0000 
     60 H         139.2511   35.5976   53.3116 H         1 NAD505      0.0000 
     61 H         138.0218   33.9022   52.8456 H         1 NAD505      0.0000 
     62 H         136.0189   31.7260   51.2434 H         1 NAD505      0.0000 
     63 H         137.0454   33.0839   51.8160 H         1 NAD505      0.0000 
     64 H         136.7209   31.0888   55.6756 H         1 NAD505      0.0000 
     65 H         138.1271   32.1466   57.3514 H         1 NAD505      0.0000 
     66 H         139.4302   34.1020   56.7740 H         1 NAD505      0.0000 
     67 H         150.2808   35.7614   57.9136 H         1 NAD505      0.0000 
     68 H         151.5975   37.2459   57.2445 H         1 NAD505      0.0000 
     69 H         141.4521   38.4638   53.3865 H         1 NAD505      0.0000 
     70 H         138.6359   37.9178   54.0768 H         1 NAD505      0.0000 
@<TRIPOS>BOND
     1    2    1 ar   
     2    3    1 ar   
     3    4    1 1    
     4   23    1 1    
     5    5    4 1    
     6    6    5 1    
     7   45    5 1    
     8   46    5 1    
     9    7    6 1    
    10    8    6 1    
    11   47    6 1    
    12   12    7 1    
    13    9    8 1    
    14   10    8 1    
    15   48    8 1    
    16   67    9 1    
    17   11   10 1    
    18   12   10 1    
    19   49   10 1    
    20   68   11 1    
    21   13   12 1    
    22   50   12 1    
    23   14   13 1    
    24   22   13 1    
    25   15   14 2    
    26   51   14 1    
    27   16   15 1    
    28   17   16 ar   
    29   22   16 ar   
    30   18   17 1    
    31   19   17 ar   
    32   52   18 1    
    33   53   18 1    
    34   20   19 ar   
    35   21   20 ar   
    36   54   20 1    
    37   22   21 ar   
    38   24   23 1    
    39   25   24 ar   
    40   26   24 ar   
    41   27   24 1    
    42   28   27 1    
    43   29   28 1    
    44   55   28 1    
    45   56   28 1    
    46   30   29 1    
    47   31   29 1    
    48   57   29 1    
    49   35   30 1    
    50   32   31 1    
    51   33   31 1    
    52   58   31 1    
    53   69   32 1    
    54   34   33 1    
    55   35   33 1    
    56   59   33 1    
    57   70   34 1    
    58   36   35 1    
    59   60   35 1    
    60   37   36 ar   
    61   44   36 ar   
    62   38   37 ar   
    63   61   37 1    
    64   39   38 1    
    65   42   38 ar   
    66   40   39 2    
    67   41   39 am   
    68   62   41 1    
    69   63   41 1    
    70   43   42 ar   
    71   64   42 1    
    72   44   43 ar   
    73   65   43 1    
    74   66   44 1    
@<TRIPOS>SUBSTRUCTURE
     1 NAD505      1 GROUP   
@<TRIPOS>SET

