#    Name: 4dh1_ATP_1_INTS_M
#    Modification time : Tue Mar 25 09:42:29 2014

@<TRIPOS>MOLECULE
4dh1_ATP_1_INTS_M
   78     0    15     0     0
SMALL
NO_CHARGES


@<TRIPOS>ATOM
      1 N           0.9350   10.5120  -14.9265 N.am      2 SEC2        0.0000 
      2 N           0.3490   10.6780  -16.2440 N.am     12 SEL2        0.0000 
      3 N           1.5210   10.3460  -13.6090 N.am      7 SEP2        0.0000 
      4 N           1.1595   10.8105  -17.3805 N.am      2 SEC2        0.0000 
      5 N           1.9700   10.9430  -18.5170 N.am      7 SEP2        0.0000 
      6 NZ         -1.2945   10.9100  -18.8375 N.4       3 LYC4        0.0000 
      7 NZ         -1.4240   11.9410  -17.4710 N.4      13 LYL4        0.0000 
      8 NZ         -1.1650    9.8790  -20.2040 N.4       8 LYP4        0.0000 
      9 N          -1.2945   10.9100  -18.8375 N.am      2 SEC2        0.0000 
     10 N          -1.4240   11.9410  -17.4710 N.am     12 SEL2        0.0000 
     11 N          -1.1650    9.8790  -20.2040 N.am      7 SEP2        0.0000 
     12 NZ         -4.2040   13.6280  -13.0825 N.4       3 LYC4        0.0000 
     13 NZ         -3.1950   12.9910  -13.8080 N.4      13 LYL4        0.0000 
     14 NZ         -5.2130   14.2650  -12.3570 N.4       8 LYP4        0.0000 
     15 N          -4.2040   13.6280  -13.0825 N.am      2 SEC2        0.0000 
     16 N          -3.1950   12.9910  -13.8080 N.am     12 SEL2        0.0000 
     17 N          -5.2130   14.2650  -12.3570 N.am      7 SEP2        0.0000 
     18 N           0.1040   12.1300  -12.1945 N.am      2 SEC2        0.0000 
     19 N          -1.2430   11.7790  -12.6110 N.am     12 SEL2        0.0000 
     20 N           1.4510   12.4810  -11.7780 N.am      7 SEP2        0.0000 
     21 N          -0.7300   11.7995  -11.0960 N.am      2 SEC2        0.0000 
     22 N          -0.2170   11.8200   -9.5810 N.am      7 SEP2        0.0000 
     23 NZ         -5.4330   12.8055  -12.1690 N.4       3 LYC4        0.0000 
     24 NZ         -5.6530   11.3460  -11.9810 N.4      13 LYL4        0.0000 
     25 Zn         -4.8800   10.4805  -15.4475 Zn        4 ZIC7        0.0000 
     26 Zn         -5.6110   10.8420  -14.4970 Zn       14 ZIL7        0.0000 
     27 Zn         -4.1490   10.1190  -16.3980 Zn        9 ZIP7        0.0000 
     28 CA         -3.5065    7.0260  -12.5365 C.3       5 GLC5        0.0000 
     29 CA         -5.0460    7.9930  -13.7480 C.3      15 GLL5        0.0000 
     30 CA         -1.9670    6.0590  -11.3250 C.3      10 GLP5        0.0000 
     31 CA         -5.5405    5.3405  -12.5875 C.3       5 GLC5        0.0000 
     32 CA         -6.0100    6.8100  -13.7490 C.3      15 GLL5        0.0000 
     33 CA         -5.0710    3.8710  -11.4260 C.3      10 GLP5        0.0000 
     34 N          -4.7865    5.6015  -15.8080 N.am      2 SEC2        0.0000 
     35 N          -6.0940    6.3010  -16.1370 N.am     12 SEL2        0.0000 
     36 N          -3.4790    4.9020  -15.4790 N.am      7 SEP2        0.0000 
     37 O          -6.5530    6.3895  -17.4100 O.2       1 ALC1        0.0000 
     38 O          -6.0940    6.3010  -16.1370 O.2      11 ALL1        0.0000 
     39 O          -7.0120    6.4780  -18.6830 O.2       6 ALP1        0.0000 
     40 CA         -7.9705    4.4520  -16.0725 C.3       5 GLC5        0.0000 
     41 CA         -7.8780    5.6720  -14.4890 C.3      15 GLL5        0.0000 
     42 CA         -8.0630    3.2320  -17.6560 C.3      10 GLP5        0.0000 
     43 O          -6.7070    3.7510  -15.3945 O.2       1 ALC1        0.0000 
     44 O          -7.3210    4.3440  -14.4740 O.2      11 ALL1        0.0000 
     45 O          -6.0930    3.1580  -16.3150 O.2       6 ALP1        0.0000 
     46 CA         -6.6185    5.0030  -12.2520 C.3       5 GLC5        0.0000 
     47 CA         -8.1660    6.1350  -13.0780 C.3      15 GLL5        0.0000 
     48 CA         -7.8625    6.9335  -11.2655 C.3       5 GLC5        0.0000 
     49 CA         -7.5590    7.7320   -9.4530 C.3      10 GLP5        0.0000 
     50 N         -10.5725   10.0740  -13.8865 N.am      2 SEC2        0.0000 
     51 N         -10.5460    8.9640  -12.9690 N.am     12 SEL2        0.0000 
     52 N         -10.5990   11.1840  -14.8040 N.am      7 SEP2        0.0000 
     53 CA        -11.1420    9.7530  -11.6055 C.3       5 GLC5        0.0000 
     54 CA        -11.3840    7.9360  -12.7160 C.3      15 GLL5        0.0000 
     55 CA        -10.9000   11.5700  -10.4950 C.3      10 GLP5        0.0000 
     56 CA        -14.6695    7.5685  -13.6075 C.3       5 GLC5        0.0000 
     57 CA        -12.8340    7.7580  -12.4430 C.3      15 GLL5        0.0000 
     58 CA        -16.5050    7.3790  -14.7720 C.3      10 GLP5        0.0000 
     59 O         -14.9755    8.8585  -11.8440 O.2       1 ALC1        0.0000 
     60 O         -13.6520    8.8360  -12.4030 O.2      11 ALL1        0.0000 
     61 O         -16.2990    8.8810  -11.2850 O.2       6 ALP1        0.0000 
     62 N         -14.8695    6.0765  -12.3490 N.am      2 SEC2        0.0000 
     63 N         -13.3190    6.4960  -12.2310 N.am     12 SEL2        0.0000 
     64 N         -16.4200    5.6570  -12.4670 N.am      7 SEP2        0.0000 
     65 CA        -11.9315    4.7080  -10.6115 C.3       5 GLC5        0.0000 
     66 CA        -12.5210    5.4040  -12.2640 C.3      15 GLL5        0.0000 
     67 CA        -11.3420    4.0120   -8.9590 C.3      10 GLP5        0.0000 
     68 CA        -12.7030    6.5165  -10.6015 C.3       5 GLC5        0.0000 
     69 CA        -12.8850    7.6290   -8.9390 C.3      10 GLP5        0.0000 
     70 CA        -12.5540    6.3190  -14.0200 C.3       5 GLC5        0.0000 
     71 CA        -12.5870    7.2340  -15.7760 C.3      10 GLP5        0.0000 
     72 CA         -6.3440    8.2133  -11.9522 C.3       5 GLC5        0.0000 
     73 CA         -7.1600    9.0250  -10.1560 C.3      10 GLP5        0.0000 
     74 CA        -10.0260    7.4900  -11.0095 C.3       5 GLC5        0.0000 
     75 CA        -10.5740    6.6980  -12.7320 C.3      15 GLL5        0.0000 
     76 CA         -9.0730    7.6630   -9.2950 C.3      10 GLP5        0.0000 
     77 CA        -12.4970    7.7380  -10.7592 C.3       5 GLC5        0.0000 
     78 CA        -11.9642    7.2532  -14.2159 C.3       5 GLC5        0.0000 
@<TRIPOS>BOND
@<TRIPOS>SUBSTRUCTURE
     1 ALC1       37 GROUP        1 X    ALC  0     ROOT ALC X 1
     2 SEC2        1 GROUP        1 X    SEC  0     **** SEC X 2
     3 LYC4        6 GROUP        1 X    LYC  0     **** LYC X 4
     4 ZIC7       25 GROUP        1 X    ZIC  0     **** ZIC X 5
     5 GLC5       28 GROUP        1 X    GLC  0     **** GLC X 6
     6 ALP1       39 GROUP        1 Y    ALP  0     ROOT ALP Y 8
     7 SEP2        3 GROUP        1 Y    SEP  0     **** SEP Y 9
     8 LYP4        8 GROUP        1 Y    LYP  0     **** LYP Y 11
     9 ZIP7       27 GROUP        1 Y    ZIP  0     **** ZIP Y 12
    10 GLP5       30 GROUP        1 Y    GLP  0     **** GLP Y 13
    11 ALL1       38 GROUP        1 Z    ALL  0     ROOT ALL Z 15
    12 SEL2        2 GROUP        1 Z    SEL  0     **** SEL Z 16
    13 LYL4        7 GROUP        1 Z    LYL  0     **** LYL Z 18
    14 ZIL7       26 GROUP        1 Z    ZIL  0     **** ZIL Z 19
    15 GLL5       29 GROUP        1 Z    GLL  0     **** GLL Z 20
@<TRIPOS>SET

