#    Name: 4dh1_ATP_1_ligand
#    Modification time : Tue Mar 25 09:42:29 2014

@<TRIPOS>MOLECULE
4dh1_ATP_1_ligand
   43    45     1     0     0
SMALL
NO_CHARGES


@<TRIPOS>ATOM
      1 PG         -0.7360   11.7260  -16.1410 P.3       1 ATP402      0.0000 
      2 O1G         0.3490   10.6780  -16.2440 O.co2     1 ATP402      0.0000 
      3 O2G        -1.4240   11.9410  -17.4710 O.co2     1 ATP402      0.0000 
      4 O3G        -0.1370   12.9760  -15.5960 O.co2     1 ATP402      0.0000 
      5 PB         -2.3910   11.7500  -13.5810 P.3       1 ATP402      0.0000 
      6 O1B        -3.1950   12.9910  -13.8080 O.co2     1 ATP402      0.0000 
      7 O2B        -1.2430   11.7790  -12.6110 O.co2     1 ATP402      0.0000 
      8 O3B        -1.8880   11.1610  -15.0690 O.3       1 ATP402      0.0000 
      9 PA         -5.0980   10.5530  -13.1230 P.3       1 ATP402      0.0000 
     10 O1A        -5.6530   11.3460  -11.9810 O.co2     1 ATP402      0.0000 
     11 O2A        -5.6110   10.8420  -14.4970 O.co2     1 ATP402      0.0000 
     12 O3A        -3.4540   10.6010  -13.0720 O.3       1 ATP402      0.0000 
     13 O5'        -5.4210    8.9900  -12.8090 O.3       1 ATP402      0.0000 
     14 C5'        -5.0460    7.9930  -13.7480 C.3       1 ATP402      0.0000 
     15 C4'        -6.0100    6.8100  -13.7490 C.3       1 ATP402      0.0000 
     16 O4'        -6.9650    6.8110  -12.6590 O.3       1 ATP402      0.0000 
     17 C3'        -6.8700    6.6790  -14.9960 C.3       1 ATP402      0.0000 
     18 O3'        -6.0940    6.3010  -16.1370 O.3       1 ATP402      0.0000 
     19 C2'        -7.8780    5.6720  -14.4890 C.3       1 ATP402      0.0000 
     20 O2'        -7.3210    4.3440  -14.4740 O.3       1 ATP402      0.0000 
     21 C1'        -8.1660    6.1350  -13.0780 C.3       1 ATP402      0.0000 
     22 N9         -9.3210    7.0860  -12.9860 N.pl3     1 ATP402      0.0000 
     23 C8         -9.3130    8.4370  -13.1270 C.2       1 ATP402      0.0000 
     24 N7        -10.5460    8.9640  -12.9690 N.2       1 ATP402      0.0000 
     25 C5        -11.3840    7.9360  -12.7160 C.ar      1 ATP402      0.0000 
     26 C6        -12.8340    7.7580  -12.4430 C.ar      1 ATP402      0.0000 
     27 N6        -13.6520    8.8360  -12.4030 N.pl3     1 ATP402      0.0000 
     28 N1        -13.3190    6.4960  -12.2310 N.ar      1 ATP402      0.0000 
     29 C2        -12.5210    5.4040  -12.2640 C.ar      1 ATP402      0.0000 
     30 N3        -11.1870    5.4870  -12.5030 N.ar      1 ATP402      0.0000 
     31 C4        -10.5740    6.6980  -12.7320 C.ar      1 ATP402      0.0000 
     32 H          -4.0336    7.5952  -13.5389 H         1 ATP402      0.0000 
     33 H          -5.0139    8.3950  -14.7796 H         1 ATP402      0.0000 
     34 H          -5.4202    5.8744  -13.6845 H         1 ATP402      0.0000 
     35 H          -7.3802    7.6216  -15.1056 H         1 ATP402      0.0000 
     36 H          -8.7620    5.7514  -15.0607 H         1 ATP402      0.0000 
     37 H          -8.3371    5.2778  -12.4610 H         1 ATP402      0.0000 
     38 H          -8.5035    8.9642  -13.3210 H         1 ATP402      0.0000 
     39 H         -13.2138    9.7258  -12.5302 H         1 ATP402      0.0000 
     40 H         -14.6219    8.6469  -12.2498 H         1 ATP402      0.0000 
     41 H         -12.9486    4.4529  -12.0983 H         1 ATP402      0.0000 
     42 H          -6.6706    6.5167  -16.9250 H         1 ATP402      0.0000 
     43 H          -6.8741    4.2409  -15.3626 H         1 ATP402      0.0000 
@<TRIPOS>BOND
     1    2    1 ar   
     2    3    1 ar   
     3    4    1 ar   
     4    8    1 1    
     5    6    5 ar   
     6    7    5 ar   
     7    8    5 1    
     8   12    5 1    
     9   10    9 ar   
    10   11    9 ar   
    11   12    9 1    
    12   13    9 1    
    13   14   13 1    
    14   15   14 1    
    15   32   14 1    
    16   33   14 1    
    17   16   15 1    
    18   17   15 1    
    19   34   15 1    
    20   21   16 1    
    21   18   17 1    
    22   19   17 1    
    23   35   17 1    
    24   42   18 1    
    25   20   19 1    
    26   21   19 1    
    27   36   19 1    
    28   43   20 1    
    29   22   21 1    
    30   37   21 1    
    31   23   22 1    
    32   31   22 1    
    33   24   23 2    
    34   38   23 1    
    35   25   24 1    
    36   26   25 ar   
    37   31   25 ar   
    38   27   26 1    
    39   28   26 ar   
    40   39   27 1    
    41   40   27 1    
    42   29   28 ar   
    43   30   29 ar   
    44   41   29 1    
    45   31   30 ar   
@<TRIPOS>SUBSTRUCTURE
     1 ATP402      1 GROUP   
@<TRIPOS>SET

