#    Name: 2wmx_ZY6_1_INTS_M
#    Modification time : Tue Mar 25 04:29:50 2014

@<TRIPOS>MOLECULE
2wmx_ZY6_1_INTS_M
   50     0     9     0     0
SMALL
NO_CHARGES


@<TRIPOS>ATOM
      1 CA         19.2650   -1.0740   12.3700 C.3       3 GLC5        0.0000 
      2 CA         19.9780   -2.2090   10.8430 C.3       9 GLL5        0.0000 
      3 CA         18.5520    0.0610   13.8970 C.3       6 GLP5        0.0000 
      4 CA         18.7180   -3.4245    8.2900 C.3       3 GLC5        0.0000 
      5 CA         19.3760   -1.8780    9.6400 C.3       9 GLL5        0.0000 
      6 CA         18.0600   -4.9710    6.9400 C.3       6 GLP5        0.0000 
      7 CA         18.0055    1.7805    9.4750 C.3       3 GLC5        0.0000 
      8 CA         17.9290   -0.1020    9.0570 C.3       9 GLL5        0.0000 
      9 CA         18.0820    3.6630    9.8930 C.3       6 GLP5        0.0000 
     10 CA         15.4630    1.3905    7.9155 C.3       3 GLC5        0.0000 
     11 CA         15.6760   -0.0870    9.5460 C.3       9 GLL5        0.0000 
     12 CA         15.2500    2.8680    6.2850 C.3       6 GLP5        0.0000 
     13 CA         16.0485    1.9635   10.0025 C.3       3 GLC5        0.0000 
     14 CA         16.4210    4.0140   10.4590 C.3       6 GLP5        0.0000 
     15 O          13.9010    1.4785    8.9650 O.2       1 ALC1        0.0000 
     16 O          14.4120    0.3090    9.6520 O.2       7 ALL1        0.0000 
     17 O          13.3900    2.6480    8.2780 O.2       4 ALP1        0.0000 
     18 CA         18.4465   -1.8060   12.7080 C.3       3 GLC5        0.0000 
     19 CA         18.3410   -3.6730   11.5190 C.3       9 GLL5        0.0000 
     20 CA         17.0240   -4.5800    8.8575 C.3       3 GLC5        0.0000 
     21 CA         15.9880   -4.1890   10.7750 C.3       9 GLL5        0.0000 
     22 CA         14.8655   -5.1275    9.6545 C.3       3 GLC5        0.0000 
     23 CA         13.7430   -6.0660    8.5340 C.3       6 GLP5        0.0000 
     24 CA         16.7645   -6.6295   11.0170 C.3       3 GLC5        0.0000 
     25 CA         15.8580   -4.9280   12.1060 C.3       9 GLL5        0.0000 
     26 CA         17.6710   -8.3310    9.9280 C.3       6 GLP5        0.0000 
     27 CA         14.3395   -5.5200   10.9230 C.3       3 GLC5        0.0000 
     28 CA         12.8210   -6.1120    9.7400 C.3       6 GLP5        0.0000 
     29 OD1        20.4275   -3.8015   15.3455 O.co2     2 ASC3        0.0000 
     30 OD1        19.8180   -3.9430   14.4380 O.co2     8 ASL3        0.0000 
     31 OD1        21.0370   -3.6600   16.2530 O.co2     5 ASP3        0.0000 
     32 OD1        21.2770   -4.3650   14.9320 O.co2     2 ASC3        0.0000 
     33 OD1        22.7360   -4.7870   15.4260 O.co2     5 ASP3        0.0000 
     34 O          21.2770   -4.3650   14.9320 O.2       1 ALC1        0.0000 
     35 O          19.8180   -3.9430   14.4380 O.2       7 ALL1        0.0000 
     36 O          22.7360   -4.7870   15.4260 O.2       4 ALP1        0.0000 
     37 CA         22.1510   -0.9760   10.0885 C.3       3 GLC5        0.0000 
     38 CA         21.9790   -2.8640    9.7050 C.3       9 GLL5        0.0000 
     39 CA         22.6170    0.7380   11.0740 C.3       6 GLP5        0.0000 
     40 CA         19.9965   -2.8977    6.8567 C.3       3 GLC5        0.0000 
     41 CA         21.3910   -2.5160    8.5010 C.3       9 GLL5        0.0000 
     42 CA         19.2490   -3.5290    5.2290 C.3       6 GLP5        0.0000 
     43 CA         21.3084   -0.7154   10.6625 C.3       3 GLC5        0.0000 
     44 CA         14.4937   -0.8542    8.1722 C.3       3 GLC5        0.0000 
     45 CA         13.2610   -1.0010    6.5020 C.3       6 GLP5        0.0000 
     46 CA         17.1813   -2.2012    7.8021 C.3       3 GLC5        0.0000 
     47 CA         17.0030   -1.9870   10.2000 C.3       9 GLL5        0.0000 
     48 CA         16.8550   -3.0460    5.8320 C.3       6 GLP5        0.0000 
     49 CA         16.4985   -0.1190   11.3132 C.3       3 GLC5        0.0000 
     50 CA         16.3800    0.7940   12.8190 C.3       6 GLP5        0.0000 
@<TRIPOS>BOND
@<TRIPOS>SUBSTRUCTURE
     1 ALC1       15 GROUP        1 X    ALC  0     ROOT ALC X 1
     2 ASC3       29 GROUP        1 X    ASC  0     **** ASC X 3
     3 GLC5        1 GROUP        1 X    GLC  0     **** GLC X 6
     4 ALP1       17 GROUP        1 Y    ALP  0     ROOT ALP Y 8
     5 ASP3       31 GROUP        1 Y    ASP  0     **** ASP Y 10
     6 GLP5        3 GROUP        1 Y    GLP  0     **** GLP Y 13
     7 ALL1       16 GROUP        1 Z    ALL  0     ROOT ALL Z 15
     8 ASL3       30 GROUP        1 Z    ASL  0     **** ASL Z 17
     9 GLL5        2 GROUP        1 Z    GLL  0     **** GLL Z 20
@<TRIPOS>SET

