#    Name: 2wmx_ZY6_1_ligand
#    Modification time : Tue Mar 25 04:29:50 2014

@<TRIPOS>MOLECULE
2wmx_ZY6_1_ligand
   44    47     1     0     0
SMALL
NO_CHARGES


@<TRIPOS>ATOM
      1 CAE        19.9780   -2.2090   10.8430 C.ar      1 ZY61270     0.0000 
      2 CAC        21.2690   -2.7100   10.8810 C.ar      1 ZY61270     0.0000 
      3 CAB        21.9790   -2.8640    9.7050 C.ar      1 ZY61270     0.0000 
      4 CAD        21.3910   -2.5160    8.5010 C.ar      1 ZY61270     0.0000 
      5 CAF        20.0970   -2.0170    8.4680 C.ar      1 ZY61270     0.0000 
      6 CAQ        19.3760   -1.8780    9.6400 C.ar      1 ZY61270     0.0000 
      7 CAR        18.0950   -1.3500    9.6320 C.ar      1 ZY61270     0.0000 
      8 CAG        17.9290   -0.1020    9.0570 C.ar      1 ZY61270     0.0000 
      9 NAN        16.7570    0.4920    9.0170 N.pl3     1 ZY61270     0.0000 
     10 CAU        15.6760   -0.0870    9.5460 C.ar      1 ZY61270     0.0000 
     11 NAO        14.4120    0.3090    9.6520 N.pl3     1 ZY61270     0.0000 
     12 NAM        13.7710   -0.5810   10.2160 N.2       1 ZY61270     0.0000 
     13 CAH        14.5530   -1.6060   10.5490 C.2       1 ZY61270     0.0000 
     14 CAT        15.7770   -1.3280   10.1390 C.ar      1 ZY61270     0.0000 
     15 CAS        17.0030   -1.9870   10.2000 C.ar      1 ZY61270     0.0000 
     16 NAV        17.1190   -3.2500   10.8070 N.3       1 ZY61270     0.0000 
     17 CAL        18.3410   -3.6730   11.5190 C.3       1 ZY61270     0.0000 
     18 CAK        15.9880   -4.1890   10.7750 C.3       1 ZY61270     0.0000 
     19 CAJ        15.8580   -4.9280   12.1060 C.3       1 ZY61270     0.0000 
     20 OAP        17.1270   -5.4460   12.4770 O.3       1 ZY61270     0.0000 
     21 CAW        17.9560   -4.3620   12.8350 C.3       1 ZY61270     0.0000 
     22 CAI        19.1350   -4.9600   13.6220 C.3       1 ZY61270     0.0000 
     23 NAA        19.8180   -3.9430   14.4380 N.4       1 ZY61270     0.0000 
     24 H          19.4541   -2.0797   11.7287 H         1 ZY61270     0.0000 
     25 H          21.6961   -2.9659   11.7809 H         1 ZY61270     0.0000 
     26 H          22.9375   -3.2345    9.7234 H         1 ZY61270     0.0000 
     27 H          21.9187   -2.6283    7.6198 H         1 ZY61270     0.0000 
     28 H          19.6735   -1.7497    7.5667 H         1 ZY61270     0.0000 
     29 H          18.7845    0.3601    8.6480 H         1 ZY61270     0.0000 
     30 H          16.6591    1.4404    8.5623 H         1 ZY61270     0.0000 
     31 H          14.0929    1.1872    9.3148 H         1 ZY61270     0.0000 
     32 H          14.2679   -2.4108   11.0106 H         1 ZY61270     0.0000 
     33 H          18.9685   -2.8144   11.7516 H         1 ZY61270     0.0000 
     34 H          18.9136   -4.3768   10.9175 H         1 ZY61270     0.0000 
     35 H          16.1245   -4.9309    9.9809 H         1 ZY61270     0.0000 
     36 H          15.0499   -3.6572   10.5832 H         1 ZY61270     0.0000 
     37 H          15.1133   -5.7197   11.9754 H         1 ZY61270     0.0000 
     38 H          15.4723   -4.2177   12.8444 H         1 ZY61270     0.0000 
     39 H          17.4327   -3.6705   13.4553 H         1 ZY61270     0.0000 
     40 H          19.8307   -5.4099   12.9015 H         1 ZY61270     0.0000 
     41 H          18.7454   -5.7676   14.2557 H         1 ZY61270     0.0000 
     42 H          20.7792   -3.8446   14.1807 H         1 ZY61270     0.0000 
     43 H          19.3946   -3.0424   14.3398 H         1 ZY61270     0.0000 
     44 H          19.7971   -4.1722   15.4111 H         1 ZY61270     0.0000 
@<TRIPOS>BOND
     1    2    1 ar   
     2    6    1 ar   
     3   24    1 1    
     4    3    2 ar   
     5   25    2 1    
     6    4    3 ar   
     7   26    3 1    
     8    5    4 ar   
     9   27    4 1    
    10    6    5 ar   
    11   28    5 1    
    12    7    6 1    
    13    8    7 ar   
    14   15    7 ar   
    15    9    8 ar   
    16   29    8 1    
    17   10    9 ar   
    18   30    9 1    
    19   11   10 1    
    20   14   10 ar   
    21   12   11 1    
    22   31   11 1    
    23   13   12 2    
    24   14   13 1    
    25   32   13 1    
    26   15   14 ar   
    27   16   15 1    
    28   17   16 1    
    29   18   16 1    
    30   21   17 1    
    31   33   17 1    
    32   34   17 1    
    33   19   18 1    
    34   35   18 1    
    35   36   18 1    
    36   20   19 1    
    37   37   19 1    
    38   38   19 1    
    39   21   20 1    
    40   22   21 1    
    41   39   21 1    
    42   23   22 1    
    43   40   22 1    
    44   41   22 1    
    45   42   23 1    
    46   43   23 1    
    47   44   23 1    
@<TRIPOS>SUBSTRUCTURE
     1 ZY61270     1 GROUP   
@<TRIPOS>SET

