#    Name: 1ixe_COA_3_INTS_M
#    Modification time : Tue Mar 25 08:16:25 2014

@<TRIPOS>MOLECULE
1ixe_COA_3_INTS_M
   78     0    12     0     0
SMALL
NO_CHARGES


@<TRIPOS>ATOM
      1 N           4.0245   -2.4415   36.3385 N.am      2 SEC2        0.0000 
      2 N           4.2310   -2.0700   37.7280 N.am     10 SEL2        0.0000 
      3 N           3.8180   -2.8130   34.9490 N.am      6 SEP2        0.0000 
      4 CA          5.3285   -3.3300   36.9135 C.3       4 GLC5        0.0000 
      5 CA          4.5430   -3.1550   38.5580 C.3      12 GLL5        0.0000 
      6 CA          6.1140   -3.5050   35.2690 C.3       8 GLP5        0.0000 
      7 CA          3.2885   -3.8815   39.7040 C.3       4 GLC5        0.0000 
      8 CA          2.0340   -4.6080   40.8500 C.3       8 GLP5        0.0000 
      9 CA          4.0950    1.1450   39.8650 C.3       4 GLC5        0.0000 
     10 CA          5.3810   -0.5480   39.2860 C.3      12 GLL5        0.0000 
     11 CA          2.8090    2.8380   40.4440 C.3       8 GLP5        0.0000 
     12 CA          5.6760   -1.4685   36.8520 C.3       4 GLC5        0.0000 
     13 CA          4.5520   -0.7430   38.0560 C.3      12 GLL5        0.0000 
     14 CA          6.8000   -2.1940   35.6480 C.3       8 GLP5        0.0000 
     15 CA          2.5620   -0.2370   37.8985 C.3       4 GLC5        0.0000 
     16 CA          0.5720    0.2690   37.7410 C.3       8 GLP5        0.0000 
     17 CA          2.8910   -0.6040   39.4905 C.3       4 GLC5        0.0000 
     18 CA          1.2300   -0.4650   40.9250 C.3       8 GLP5        0.0000 
     19 O           3.2095    0.0190   36.2550 O.2       1 ALC1        0.0000 
     20 O           4.1470    0.2690   37.3390 O.2       9 ALL1        0.0000 
     21 O           2.2720   -0.2310   35.1710 O.2       5 ALP1        0.0000 
     22 CA          8.7100   -1.8005   39.0120 C.3       4 GLC5        0.0000 
     23 CA          8.7670   -2.5160   41.1330 C.3      12 GLL5        0.0000 
     24 CA          8.6530   -1.0850   36.8910 C.3       8 GLP5        0.0000 
     25 NZ         10.7840    0.6255   39.3910 N.4       3 LYC4        0.0000 
     26 NZ         10.9300    1.5730   40.6470 N.4      11 LYL4        0.0000 
     27 NZ         10.6380   -0.3220   38.1350 N.4       7 LYP4        0.0000 
     28 NZ         10.9375    5.9940   43.0585 N.4       3 LYC4        0.0000 
     29 NZ          9.6280    4.9980   43.3920 N.4      11 LYL4        0.0000 
     30 NZ         11.5870    7.6970   43.6320 N.4       7 LYP4        0.0000 
     31 N           9.9860    6.1785   43.6775 N.am      2 SEC2        0.0000 
     32 N           9.6280    4.9980   43.3920 N.am     10 SEL2        0.0000 
     33 N          10.3440    7.3590   43.9630 N.am      6 SEP2        0.0000 
     34 N          10.9375    5.9940   43.0585 N.am      2 SEC2        0.0000 
     35 N          12.2470    6.9900   42.7250 N.am      6 SEP2        0.0000 
     36 NZ         11.8455    5.8655   42.1540 N.4       3 LYC4        0.0000 
     37 NZ         11.4440    4.7410   41.5830 N.4      11 LYL4        0.0000 
     38 N          11.8455    5.8655   42.1540 N.am      2 SEC2        0.0000 
     39 N          11.4440    4.7410   41.5830 N.am     10 SEL2        0.0000 
     40 N          12.7310    4.6070   42.6745 N.am      2 SEC2        0.0000 
     41 N          14.0180    4.4730   43.7660 N.am      6 SEP2        0.0000 
     42 CA         11.0020    4.8980   36.7445 C.3       4 GLC5        0.0000 
     43 CA          9.6970    4.6590   38.3470 C.3      12 GLL5        0.0000 
     44 CA         12.3070    5.1370   35.1420 C.3       8 GLP5        0.0000 
     45 CA         11.1055    6.0775   38.5915 C.3       4 GLC5        0.0000 
     46 CA         12.5140    7.4960   38.8360 C.3       8 GLP5        0.0000 
     47 N           9.2980    1.5455   37.2285 N.am      2 SEC2        0.0000 
     48 N           8.0870    2.1930   36.8230 N.am     10 SEL2        0.0000 
     49 N          10.5090    0.8980   37.6340 N.am      6 SEP2        0.0000 
     50 CA          4.8950    5.2855   33.1755 C.3       4 GLC5        0.0000 
     51 CA          5.5770    3.7510   34.4670 C.3      12 GLL5        0.0000 
     52 CA          4.2130    6.8200   31.8840 C.3       8 GLP5        0.0000 
     53 N           2.3085    3.7355   34.2795 N.am      2 SEC2        0.0000 
     54 N           3.2860    4.5380   34.8420 N.am     10 SEL2        0.0000 
     55 N           1.3310    2.9330   33.7170 N.am      6 SEP2        0.0000 
     56 N           2.4525    5.2800   35.8325 N.am      2 SEC2        0.0000 
     57 N           1.6190    6.0220   36.8230 N.am      6 SEP2        0.0000 
     58 O           6.4520    6.8315   35.0275 O.2       1 ALC1        0.0000 
     59 O           5.0180    5.9770   34.9210 O.2       9 ALL1        0.0000 
     60 O           7.8860    7.6860   35.1340 O.2       5 ALP1        0.0000 
     61 CA          4.2490    6.9775   33.7035 C.3       4 GLC5        0.0000 
     62 CA          4.2850    7.1350   35.5230 C.3      12 GLL5        0.0000 
     63 CA          2.7835    8.7805   39.2335 C.3       4 GLC5        0.0000 
     64 CA          3.3860    8.3360   37.7560 C.3      12 GLL5        0.0000 
     65 CA          2.1810    9.2250   40.7110 C.3       8 GLP5        0.0000 
     66 CA          1.7025    7.9175   37.8190 C.3       4 GLC5        0.0000 
     67 CA          0.0190    7.4990   37.8820 C.3       8 GLP5        0.0000 
     68 CA          6.7237   -1.7615   38.1525 C.3       4 GLC5        0.0000 
     69 CA          7.8860   -2.3700   36.6800 C.3       8 GLP5        0.0000 
     70 CA          4.2953   -0.8515   41.1355 C.3       4 GLC5        0.0000 
     71 CA          5.7420   -1.7580   39.9640 C.3      12 GLL5        0.0000 
     72 CA          3.0290   -0.5500   42.6460 C.3       8 GLP5        0.0000 
     73 CA          9.1382    7.0299   39.0087 C.3       4 GLC5        0.0000 
     74 CA          7.6160    6.0150   38.3590 C.3      12 GLL5        0.0000 
     75 CA         10.2790    8.6060   38.9710 C.3       8 GLP5        0.0000 
     76 CA          5.5382    2.4285   33.1923 C.3       4 GLC5        0.0000 
     77 CA          5.6340    2.6450   35.5340 C.3      12 GLL5        0.0000 
     78 CA          5.4710    1.6590   31.3840 C.3       8 GLP5        0.0000 
@<TRIPOS>BOND
@<TRIPOS>SUBSTRUCTURE
     1 ALC1       19 GROUP        1 X    ALC  0     ROOT ALC X 1
     2 SEC2        1 GROUP        1 X    SEC  0     **** SEC X 2
     3 LYC4       25 GROUP        1 X    LYC  0     **** LYC X 4
     4 GLC5        4 GROUP        1 X    GLC  0     **** GLC X 6
     5 ALP1       21 GROUP        1 Y    ALP  0     ROOT ALP Y 8
     6 SEP2        3 GROUP        1 Y    SEP  0     **** SEP Y 9
     7 LYP4       27 GROUP        1 Y    LYP  0     **** LYP Y 11
     8 GLP5        6 GROUP        1 Y    GLP  0     **** GLP Y 13
     9 ALL1       20 GROUP        1 Z    ALL  0     ROOT ALL Z 15
    10 SEL2        2 GROUP        1 Z    SEL  0     **** SEL Z 16
    11 LYL4       26 GROUP        1 Z    LYL  0     **** LYL Z 18
    12 GLL5        5 GROUP        1 Z    GLL  0     **** GLL Z 20
@<TRIPOS>SET

