#    Name: 1ixe_COA_3_ligand
#    Modification time : Tue Mar 25 08:16:25 2014

@<TRIPOS>MOLECULE
1ixe_COA_3_ligand
   79    81     1     0     0
SMALL
NO_CHARGES


@<TRIPOS>ATOM
      1 N1A         4.2310   -2.0700   37.7280 N.ar      1 COA403      0.0000 
      2 C2A         4.5430   -3.1550   38.5580 C.ar      1 COA403      0.0000 
      3 N3A         5.2530   -3.0340   39.7030 N.ar      1 COA403      0.0000 
      4 C4A         5.7420   -1.7580   39.9640 C.ar      1 COA403      0.0000 
      5 C5A         5.3810   -0.5480   39.2860 C.ar      1 COA403      0.0000 
      6 C6A         4.5520   -0.7430   38.0560 C.ar      1 COA403      0.0000 
      7 N6A         4.1470    0.2690   37.3390 N.pl3     1 COA403      0.0000 
      8 N7A         5.8780    0.5540   39.9340 N.2       1 COA403      0.0000 
      9 C8A         6.7180    0.0680   40.8330 C.2       1 COA403      0.0000 
     10 N9A         6.6860   -1.3450   40.9160 N.pl3     1 COA403      0.0000 
     11 C1B         7.4520   -2.2520   41.7960 C.3       1 COA403      0.0000 
     12 C2B         8.7670   -2.5160   41.1330 C.3       1 COA403      0.0000 
     13 O2B         8.6240   -3.6140   40.2120 O.3       1 COA403      0.0000 
     14 C3B         9.7060   -2.8290   42.2840 C.3       1 COA403      0.0000 
     15 O3B         9.9210   -4.2040   42.4920 O.3       1 COA403      0.0000 
     16 P3B        11.0960   -4.8260   43.5400 P.3       1 COA403      0.0000 
     17 O7A        10.8100   -4.6580   45.1100 O.co2     1 COA403      0.0000 
     18 O8A        10.7380   -6.2640   42.9580 O.co2     1 COA403      0.0000 
     19 O9A        12.5250   -4.2810   43.0610 O.co2     1 COA403      0.0000 
     20 C4B         9.1280   -1.9120   43.4140 C.3       1 COA403      0.0000 
     21 O4B         7.8280   -1.3840   42.8950 O.3       1 COA403      0.0000 
     22 C5B         9.9570   -0.6730   43.8630 C.3       1 COA403      0.0000 
     23 O5B        10.3010    0.1090   42.6640 O.3       1 COA403      0.0000 
     24 P1A        11.1500    1.3790   42.1260 P.3       1 COA403      0.0000 
     25 O1A        12.5770    1.3450   42.6340 O.co2     1 COA403      0.0000 
     26 O2A        10.9300    1.5730   40.6470 O.co2     1 COA403      0.0000 
     27 O3A        10.3650    2.5760   42.7920 O.3       1 COA403      0.0000 
     28 P2A        10.1880    4.1190   42.2400 P.3       1 COA403      0.0000 
     29 O4A         9.6280    4.9980   43.3920 O.co2     1 COA403      0.0000 
     30 O5A        11.4440    4.7410   41.5830 O.co2     1 COA403      0.0000 
     31 O6A         9.1100    3.8890   41.0700 O.3       1 COA403      0.0000 
     32 CBP         8.2740    4.7700   38.9770 C.3       1 COA403      0.0000 
     33 CCP         8.4840    5.0150   40.4910 C.3       1 COA403      0.0000 
     34 CDP         7.6160    6.0150   38.3590 C.3       1 COA403      0.0000 
     35 CEP         9.6970    4.6590   38.3470 C.3       1 COA403      0.0000 
     36 CAP         7.3800    3.4310   38.8910 C.3       1 COA403      0.0000 
     37 OAP         6.1300    3.6470   39.5760 O.3       1 COA403      0.0000 
     38 C9P         7.1620    2.9230   37.4100 C.2       1 COA403      0.0000 
     39 O9P         8.0870    2.1930   36.8230 O.2       1 COA403      0.0000 
     40 N8P         6.0030    3.2920   36.8130 N.am      1 COA403      0.0000 
     41 C7P         5.6340    2.6450   35.5340 C.3       1 COA403      0.0000 
     42 C6P         5.5770    3.7510   34.4670 C.3       1 COA403      0.0000 
     43 C5P         4.5340    4.7920   34.7600 C.2       1 COA403      0.0000 
     44 O5P         3.2860    4.5380   34.8420 O.2       1 COA403      0.0000 
     45 N4P         5.0180    5.9770   34.9210 N.am      1 COA403      0.0000 
     46 C3P         4.2850    7.1350   35.5230 C.3       1 COA403      0.0000 
     47 C2P         4.7100    7.4440   36.9350 C.3       1 COA403      0.0000 
     48 S1P         3.3860    8.3360   37.7560 S.3       1 COA403      0.0000 
     49 H           4.1975   -4.1065   38.2571 H         1 COA403      0.0000 
     50 H           3.2814    0.1459   36.8536 H         1 COA403      0.0000 
     51 H           4.7394    1.0747   37.3408 H         1 COA403      0.0000 
     52 H           7.3247    0.5949   41.4104 H         1 COA403      0.0000 
     53 H           6.9682   -3.0709   42.0708 H         1 COA403      0.0000 
     54 H           9.0927   -1.6193   40.6606 H         1 COA403      0.0000 
     55 H          10.6646   -2.2987   41.9813 H         1 COA403      0.0000 
     56 H           8.9086   -2.5224   44.2777 H         1 COA403      0.0000 
     57 H          10.8442   -1.0314   44.3666 H         1 COA403      0.0000 
     58 H           9.3496   -0.0968   44.5473 H         1 COA403      0.0000 
     59 H           9.0857    5.9254   40.5883 H         1 COA403      0.0000 
     60 H           7.4975    5.2148   40.9236 H         1 COA403      0.0000 
     61 H           7.9655    2.6568   39.4117 H         1 COA403      0.0000 
     62 H           5.3688    3.9838   37.1840 H         1 COA403      0.0000 
     63 H           4.6625    2.1831   35.6023 H         1 COA403      0.0000 
     64 H           6.3772    1.9218   35.2398 H         1 COA403      0.0000 
     65 H           5.3732    3.2834   33.4931 H         1 COA403      0.0000 
     66 H           6.5675    4.2237   34.4039 H         1 COA403      0.0000 
     67 H           6.0127    6.2342   34.6279 H         1 COA403      0.0000 
     68 H           3.1991    6.9273   35.5117 H         1 COA403      0.0000 
     69 H           4.4399    8.0326   34.8963 H         1 COA403      0.0000 
     70 H           5.5224    8.1223   37.0028 H         1 COA403      0.0000 
     71 H           4.8262    6.5868   37.5484 H         1 COA403      0.0000 
     72 H           8.1808    6.8315   38.4784 H         1 COA403      0.0000 
     73 H           7.4631    5.9054   37.3768 H         1 COA403      0.0000 
     74 H           6.7273    6.2101   38.7740 H         1 COA403      0.0000 
     75 H          10.2315    5.4924   38.4876 H         1 COA403      0.0000 
     76 H          10.2207    3.9047   38.7430 H         1 COA403      0.0000 
     77 H           9.6551    4.5007   37.3605 H         1 COA403      0.0000 
     78 H           8.9152   -4.4215   40.7250 H         1 COA403      0.0000 
     79 H           5.7025    2.7443   39.6249 H         1 COA403      0.0000 
@<TRIPOS>BOND
     1    2    1 ar   
     2    6    1 ar   
     3    3    2 ar   
     4   49    2 1    
     5    4    3 ar   
     6    5    4 ar   
     7   10    4 1    
     8    6    5 ar   
     9    8    5 1    
    10    7    6 1    
    11   50    7 1    
    12   51    7 1    
    13    9    8 2    
    14   10    9 1    
    15   52    9 1    
    16   11   10 1    
    17   12   11 1    
    18   21   11 1    
    19   53   11 1    
    20   13   12 1    
    21   14   12 1    
    22   54   12 1    
    23   78   13 1    
    24   15   14 1    
    25   20   14 1    
    26   55   14 1    
    27   16   15 1    
    28   17   16 ar   
    29   18   16 ar   
    30   19   16 ar   
    31   21   20 1    
    32   22   20 1    
    33   56   20 1    
    34   23   22 1    
    35   57   22 1    
    36   58   22 1    
    37   24   23 1    
    38   25   24 ar   
    39   26   24 ar   
    40   27   24 1    
    41   28   27 1    
    42   29   28 ar   
    43   30   28 ar   
    44   31   28 1    
    45   33   31 1    
    46   33   32 1    
    47   34   32 1    
    48   35   32 1    
    49   36   32 1    
    50   59   33 1    
    51   60   33 1    
    52   72   34 1    
    53   73   34 1    
    54   74   34 1    
    55   75   35 1    
    56   76   35 1    
    57   77   35 1    
    58   37   36 1    
    59   38   36 1    
    60   61   36 1    
    61   79   37 1    
    62   39   38 2    
    63   40   38 am   
    64   41   40 1    
    65   62   40 1    
    66   42   41 1    
    67   63   41 1    
    68   64   41 1    
    69   43   42 1    
    70   65   42 1    
    71   66   42 1    
    72   44   43 2    
    73   45   43 am   
    74   46   45 1    
    75   67   45 1    
    76   47   46 1    
    77   68   46 1    
    78   69   46 1    
    79   48   47 1    
    80   70   47 1    
    81   71   47 1    
@<TRIPOS>SUBSTRUCTURE
     1 COA403      1 GROUP   
@<TRIPOS>SET

