#    Name: 2xez_XEZ_1_INTS_M
#    Modification time : Tue Mar 25 05:57:32 2014

@<TRIPOS>MOLECULE
2xez_XEZ_1_INTS_M
   25     0     3     0     0
SMALL
NO_CHARGES


@<TRIPOS>ATOM
      1 CA          9.9085   -1.6260   11.0985 C.3       1 GLC5        0.0000 
      2 CA         11.4780   -2.4210   12.0900 C.3       3 GLL5        0.0000 
      3 CA          8.3390   -0.8310   10.1070 C.3       2 GLP5        0.0000 
      4 CA         13.6795   -0.1965    8.0025 C.3       1 GLC5        0.0000 
      5 CA         15.0110    0.0790    9.5480 C.3       3 GLL5        0.0000 
      6 CA         12.3480   -0.4720    6.4570 C.3       2 GLP5        0.0000 
      7 CA         15.1975    0.7060   11.0525 C.3       1 GLC5        0.0000 
      8 CA         15.3840    1.3330   12.5570 C.3       2 GLP5        0.0000 
      9 CA         17.2235    2.1905    9.4100 C.3       1 GLC5        0.0000 
     10 CA         17.1270    0.1510    9.0520 C.3       3 GLL5        0.0000 
     11 CA         17.3200    4.2300    9.7680 C.3       2 GLP5        0.0000 
     12 CA         17.5670   -1.1275   12.3220 C.3       1 GLC5        0.0000 
     13 CA         17.6070   -2.8230   11.1240 C.3       3 GLL5        0.0000 
     14 CA         17.5270    0.5680   13.5200 C.3       2 GLP5        0.0000 
     15 CA         12.2050   -4.2193   10.8323 C.3       1 GLC5        0.0000 
     16 CA         12.7760   -2.4920   11.8550 C.3       3 GLL5        0.0000 
     17 CA         12.2830   -5.9820    9.6920 C.3       2 GLP5        0.0000 
     18 CA         13.5392   -3.0470    9.4560 C.3       1 GLC5        0.0000 
     19 CA         13.5300   -1.6280   11.0780 C.3       3 GLL5        0.0000 
     20 CA         12.8690   -4.3550    7.8980 C.3       2 GLP5        0.0000 
     21 CA         14.7967   -0.2030   11.7855 C.3       1 GLC5        0.0000 
     22 CA         16.6960   -1.3668    7.6710 C.3       1 GLC5        0.0000 
     23 CA         16.9570   -0.9040    9.8380 C.3       3 GLL5        0.0000 
     24 CA         16.3500   -2.3570    5.8970 C.3       2 GLP5        0.0000 
     25 CA         16.2130    0.4782   11.0010 C.3       1 GLC5        0.0000 
@<TRIPOS>BOND
@<TRIPOS>SUBSTRUCTURE
     1 GLC5        1 GROUP        1 X    GLC  0     ROOT GLC X 6
     2 GLP5        3 GROUP        1 Y    GLP  0     ROOT GLP Y 13
     3 GLL5        2 GROUP        1 Z    GLL  0     ROOT GLL Z 20
@<TRIPOS>SET

