#    Name: 2xez_XEZ_1_ligand
#    Modification time : Tue Mar 25 05:57:32 2014

@<TRIPOS>MOLECULE
2xez_XEZ_1_ligand
   29    32     1     0     0
SMALL
NO_CHARGES


@<TRIPOS>ATOM
      1 CAC        13.2210   -3.5500   12.5070 C.2       1 XEZ1271     0.0000 
      2 NAH        12.1800   -4.0970   13.1210 N.2       1 XEZ1271     0.0000 
      3 NAM        11.1670   -3.4410   12.8790 N.pl3     1 XEZ1271     0.0000 
      4 CAF        11.4780   -2.4210   12.0900 C.2       1 XEZ1271     0.0000 
      5 CAN        12.7760   -2.4920   11.8550 C.2       1 XEZ1271     0.0000 
      6 CAP        13.5300   -1.6280   11.0780 C.2       1 XEZ1271     0.0000 
      7 CAG        14.8890   -1.8500   10.9500 C.2       1 XEZ1271     0.0000 
      8 NAS        15.6290   -0.9820   10.1730 N.pl3     1 XEZ1271     0.0000 
      9 NAI        12.9500   -0.5880   10.4660 N.2       1 XEZ1271     0.0000 
     10 CAE        13.6440    0.2500    9.7170 C.2       1 XEZ1271     0.0000 
     11 CAR        15.0110    0.0790    9.5480 C.2       1 XEZ1271     0.0000 
     12 NAJ        15.9460    0.7460    8.8750 N.pl3     1 XEZ1271     0.0000 
     13 CAD        17.1270    0.1510    9.0520 C.2       1 XEZ1271     0.0000 
     14 CAQ        16.9570   -0.9040    9.8380 C.2       1 XEZ1271     0.0000 
     15 CAO        17.8760   -1.8160   10.3160 C.2       1 XEZ1271     0.0000 
     16 CAB        17.6070   -2.8230   11.1240 C.2       1 XEZ1271     0.0000 
     17 CAA        18.7570   -3.4310   11.3480 C.2       1 XEZ1271     0.0000 
     18 NAL        19.6890   -2.7710   10.6760 N.pl3     1 XEZ1271     0.0000 
     19 NAK        19.1760   -1.8310   10.0760 N.2       1 XEZ1271     0.0000 
     20 H          14.1341   -3.8697   12.5344 H         1 XEZ1271     0.0000 
     21 H          10.2328   -3.6045   13.1990 H         1 XEZ1271     0.0000 
     22 H          10.8661   -1.7519   11.7517 H         1 XEZ1271     0.0000 
     23 H          15.3341   -2.6395   11.4207 H         1 XEZ1271     0.0000 
     24 H          13.1881    1.0570    9.2355 H         1 XEZ1271     0.0000 
     25 H          15.7930    1.5469    8.3349 H         1 XEZ1271     0.0000 
     26 H          17.9718    0.4460    8.6659 H         1 XEZ1271     0.0000 
     27 H          16.7454   -3.0663   11.4794 H         1 XEZ1271     0.0000 
     28 H          18.8969   -4.2147   11.9008 H         1 XEZ1271     0.0000 
     29 H          20.6535   -3.0439   10.6920 H         1 XEZ1271     0.0000 
@<TRIPOS>BOND
     1    2    1 2    
     2    5    1 1    
     3   20    1 1    
     4    3    2 1    
     5    4    3 1    
     6   21    3 1    
     7    5    4 2    
     8   22    4 1    
     9    6    5 1    
    10    7    6 2    
    11    9    6 1    
    12    8    7 1    
    13   23    7 1    
    14   11    8 1    
    15   14    8 1    
    16   10    9 2    
    17   11   10 1    
    18   24   10 1    
    19   12   11 2    
    20   13   12 1    
    21   25   12 1    
    22   14   13 2    
    23   26   13 1    
    24   15   14 1    
    25   16   15 1    
    26   19   15 2    
    27   17   16 2    
    28   27   16 1    
    29   18   17 1    
    30   28   17 1    
    31   19   18 1    
    32   29   18 1    
@<TRIPOS>SUBSTRUCTURE
     1 XEZ1271     1 GROUP   
@<TRIPOS>SET

