#    Name: 3hq5_GKK_2_INTS_M
#    Modification time : Tue Mar 25 14:37:50 2014

@<TRIPOS>MOLECULE
3hq5_GKK_2_INTS_M
   89     0     6     0     0
SMALL
NO_CHARGES


@<TRIPOS>ATOM
      1 CA         13.8885   14.7655    4.6575 C.3       2 GLC5        0.0000 
      2 CA         14.3390   16.5150    5.9170 C.3       6 GLL5        0.0000 
      3 CA         13.4380   13.0160    3.3980 C.3       4 GLP5        0.0000 
      4 CA         15.4560   14.9940    6.5360 C.3       2 GLC5        0.0000 
      5 CA         16.5730   13.4730    7.1550 C.3       4 GLP5        0.0000 
      6 CA         15.8135   17.3840    6.0590 C.3       2 GLC5        0.0000 
      7 CA         17.2880   18.2530    6.2010 C.3       4 GLP5        0.0000 
      8 CA         14.3200   18.2715    6.5960 C.3       2 GLC5        0.0000 
      9 CA         14.3010   20.0280    7.2750 C.3       4 GLP5        0.0000 
     10 CA         15.1925   16.6845    7.8025 C.3       2 GLC5        0.0000 
     11 CA         16.0460   16.8540    9.6880 C.3       4 GLP5        0.0000 
     12 CA          8.0375   12.8020   12.8625 C.3       2 GLC5        0.0000 
     13 CA          7.2890   14.4400   11.9430 C.3       6 GLL5        0.0000 
     14 CA          8.7860   11.1640   13.7820 C.3       4 GLP5        0.0000 
     15 CA          6.1990   14.8010   13.4720 C.3       2 GLC5        0.0000 
     16 CA          5.1090   15.1620   15.0010 C.3       4 GLP5        0.0000 
     17 CA          5.4990   13.9680   12.0825 C.3       2 GLC5        0.0000 
     18 CA          3.7090   13.4960   12.2220 C.3       4 GLP5        0.0000 
     19 CA          7.8385   12.0160   10.4690 C.3       2 GLC5        0.0000 
     20 CA          7.6740   13.6930    9.6840 C.3       6 GLL5        0.0000 
     21 CA          8.0030   10.3390   11.2540 C.3       4 GLP5        0.0000 
     22 CA          5.8050   13.2615   10.3590 C.3       2 GLC5        0.0000 
     23 CA          3.9360   12.8300   11.0340 C.3       4 GLP5        0.0000 
     24 CA          9.6330   13.8255    6.8480 C.3       2 GLC5        0.0000 
     25 CA          8.1900   14.3490    8.4500 C.3       6 GLL5        0.0000 
     26 CA         11.0760   13.3020    5.2460 C.3       4 GLP5        0.0000 
     27 CA          8.2765   17.3370   11.7310 C.3       2 GLC5        0.0000 
     28 CA          8.3680   15.8240   10.2570 C.3       6 GLL5        0.0000 
     29 CA          8.1850   18.8500   13.2050 C.3       4 GLP5        0.0000 
     30 CA         10.1065   18.5395   12.3705 C.3       2 GLC5        0.0000 
     31 CA         12.0280   18.2290   11.5360 C.3       6 GLL5        0.0000 
     32 CA         11.9325   13.2850    9.0235 C.3       2 GLC5        0.0000 
     33 CA         11.0920   15.1400    9.6950 C.3       6 GLL5        0.0000 
     34 CA         12.7730   11.4300    8.3520 C.3       4 GLP5        0.0000 
     35 CA         10.6040   18.7460    6.3210 C.3       2 GLC5        0.0000 
     36 CA         10.5800   16.9260    5.2450 C.3       6 GLL5        0.0000 
     37 CA         10.6280   20.5660    7.3970 C.3       4 GLP5        0.0000 
     38 CA         11.6750   15.4390    3.7075 C.3       2 GLC5        0.0000 
     39 CA         12.6180   17.3430    3.9210 C.3       6 GLL5        0.0000 
     40 CA         10.7320   13.5350    3.4940 C.3       4 GLP5        0.0000 
     41 CA         13.2120   18.8715    4.9720 C.3       2 GLC5        0.0000 
     42 CA         13.8060   20.4000    6.0230 C.3       4 GLP5        0.0000 
     43 N          14.1550   18.2810    1.8735 N.am      1 SEC2        0.0000 
     44 N          13.1720   17.6810    2.9660 N.am      5 SEL2        0.0000 
     45 N          15.1380   18.8810    0.7810 N.am      3 SEP2        0.0000 
     46 CA         14.2585   17.3710   11.7585 C.3       2 GLC5        0.0000 
     47 CA         12.6970   16.4000   12.8530 C.3       6 GLL5        0.0000 
     48 CA         15.8200   18.3420   10.6640 C.3       4 GLP5        0.0000 
     49 CA         13.9895   14.9185   14.7185 C.3       2 GLC5        0.0000 
     50 CA         12.9510   13.9770   13.2550 C.3       6 GLL5        0.0000 
     51 CA         15.0280   15.8600   16.1820 C.3       4 GLP5        0.0000 
     52 CA         13.8300   12.4295   13.2885 C.3       2 GLC5        0.0000 
     53 CA         14.7090   10.8820   13.3220 C.3       4 GLP5        0.0000 
     54 CA         10.2510   12.0690   12.3880 C.3       2 GLC5        0.0000 
     55 CA         11.1980   13.5270   12.3200 C.3       6 GLL5        0.0000 
     56 CA          9.3040   10.6110   12.4560 C.3       4 GLP5        0.0000 
     57 CA          8.1645   12.1015    8.1000 C.3       2 GLC5        0.0000 
     58 CA          8.3970   10.1820    7.1330 C.3       4 GLP5        0.0000 
     59 CA          6.5315   13.5190    7.8005 C.3       2 GLC5        0.0000 
     60 CA          5.1310   13.0170    6.5340 C.3       4 GLP5        0.0000 
     61 CA          8.5033   17.6373    8.8075 C.3       2 GLC5        0.0000 
     62 CA          8.7790   15.6650    8.8210 C.3       6 GLL5        0.0000 
     63 CA          8.4330   19.5300    8.0760 C.3       4 GLP5        0.0000 
     64 CA         10.8280   19.2730   10.4243 C.3       2 GLC5        0.0000 
     65 CA         11.5440   17.3930   10.5830 C.3       6 GLL5        0.0000 
     66 CA          9.8700   20.7350    9.7890 C.3       4 GLP5        0.0000 
     67 CA         14.1423   17.0655   14.0953 C.3       2 GLC5        0.0000 
     68 CA         12.6020   17.7360   12.6660 C.3       6 GLL5        0.0000 
     69 CA         15.6350   17.0630   15.4310 C.3       4 GLP5        0.0000 
     70 CA         13.8747   18.0149   11.0030 C.3       2 GLC5        0.0000 
     71 CA         13.9235   12.4830   11.8277 C.3       2 GLC5        0.0000 
     72 CA         12.9720   13.4180   11.3560 C.3       6 GLL5        0.0000 
     73 CA         15.2000   11.1810   11.8890 C.3       4 GLP5        0.0000 
     74 CA          9.4185   17.9017    7.5152 C.3       2 GLC5        0.0000 
     75 CA         10.7740   16.0610    7.4830 C.3       6 GLL5        0.0000 
     76 CA         10.7400   14.7877    6.1002 C.3       2 GLC5        0.0000 
     77 CA         10.0340   16.4860    6.4260 C.3       6 GLL5        0.0000 
     78 CA          8.9025   15.9670    4.4678 C.3       2 GLC5        0.0000 
     79 CA          7.4980   15.2280    3.1000 C.3       4 GLP5        0.0000 
     80 CA         11.1672   15.1145    5.2077 C.3       2 GLC5        0.0000 
     81 CA         11.2611   18.6485    3.6851 C.3       2 GLC5        0.0000 
     82 CA         10.5840   20.1620    2.8250 C.3       4 GLP5        0.0000 
     83 CA         11.7380   14.8042    5.9850 C.3       2 GLC5        0.0000 
     84 CA         12.6790   16.5190    6.1410 C.3       6 GLL5        0.0000 
     85 CA         11.6892   12.2260   10.7271 C.3       2 GLC5        0.0000 
     86 CA         12.3220   14.1520   12.1770 C.3       6 GLL5        0.0000 
     87 CA         11.4560   10.7960    9.4110 C.3       4 GLP5        0.0000 
     88 CA         11.2936   14.2854   13.9900 C.3       2 GLC5        0.0000 
     89 CA         10.6700   14.7750   15.4620 C.3       4 GLP5        0.0000 
@<TRIPOS>BOND
@<TRIPOS>SUBSTRUCTURE
     1 SEC2       43 GROUP        1 X    SEC  0     ROOT SEC X 2
     2 GLC5        1 GROUP        1 X    GLC  0     **** GLC X 6
     3 SEP2       45 GROUP        1 Y    SEP  0     ROOT SEP Y 9
     4 GLP5        3 GROUP        1 Y    GLP  0     **** GLP Y 13
     5 SEL2       44 GROUP        1 Z    SEL  0     ROOT SEL Z 16
     6 GLL5        2 GROUP        1 Z    GLL  0     **** GLL Z 20
@<TRIPOS>SET

