#    Name: 3hq5_GKK_2_ligand
#    Modification time : Tue Mar 25 14:37:51 2014

@<TRIPOS>MOLECULE
3hq5_GKK_2_ligand
   47    49     1     0     0
SMALL
NO_CHARGES


@<TRIPOS>ATOM
      1 CL1        14.3390   16.5150    5.9170 Cl        1 GKK2        0.0000 
      2 C1          7.2890   14.4400   11.9430 C.3       1 GKK2        0.0000 
      3 C2          7.6740   13.6930    9.6840 C.3       1 GKK2        0.0000 
      4 C3          8.1900   14.3490    8.4500 C.3       1 GKK2        0.0000 
      5 C4          8.7790   15.6650    8.8210 C.3       1 GKK2        0.0000 
      6 C5          8.3680   15.8240   10.2570 C.3       1 GKK2        0.0000 
      7 C9         12.0280   18.2290   11.5360 C.ar      1 GKK2        0.0000 
      8 C10        12.6020   17.7360   12.6660 C.ar      1 GKK2        0.0000 
      9 C8         11.5440   17.3930   10.5830 C.ar      1 GKK2        0.0000 
     10 C7         11.6420   16.0450   10.7550 C.ar      1 GKK2        0.0000 
     11 C6         11.0920   15.1400    9.6950 C.3       1 GKK2        0.0000 
     12 N1          8.1480   14.4850   10.7720 N.4       1 GKK2        0.0000 
     13 C12        12.2180   15.5690   11.9020 C.ar      1 GKK2        0.0000 
     14 C13        12.3220   14.1520   12.1770 C.3       1 GKK2        0.0000 
     15 C14        10.7740   16.0610    7.4830 C.ar      1 GKK2        0.0000 
     16 C15        10.0340   16.4860    6.4260 C.ar      1 GKK2        0.0000 
     17 N2         10.2110   15.6390    8.6800 N.pl3     1 GKK2        0.0000 
     18 C16        10.5800   16.9260    5.2450 C.ar      1 GKK2        0.0000 
     19 C17        11.9370   16.9280    5.0940 C.ar      1 GKK2        0.0000 
     20 C18        12.6180   17.3430    3.9210 C.1       1 GKK2        0.0000 
     21 N3         13.1720   17.6810    2.9660 N.1       1 GKK2        0.0000 
     22 C19        12.6790   16.5190    6.1410 C.ar      1 GKK2        0.0000 
     23 C20        12.1210   16.0940    7.3070 C.ar      1 GKK2        0.0000 
     24 C11        12.6970   16.4000   12.8530 C.ar      1 GKK2        0.0000 
     25 F1         12.9720   13.4180   11.3560 F         1 GKK2        0.0000 
     26 F2         12.9510   13.9770   13.2550 F         1 GKK2        0.0000 
     27 F3         11.1980   13.5270   12.3200 F         1 GKK2        0.0000 
     28 H           8.0556   12.6792    9.7317 H         1 GKK2        0.0000 
     29 H           6.5905   13.6724    9.6471 H         1 GKK2        0.0000 
     30 H           7.3758   14.4955    7.7429 H         1 GKK2        0.0000 
     31 H           8.9504   13.7211    7.9897 H         1 GKK2        0.0000 
     32 H           8.3156   16.4256    8.2460 H         1 GKK2        0.0000 
     33 H           7.4613   16.4136   10.3022 H         1 GKK2        0.0000 
     34 H           9.1602   16.3252   10.7982 H         1 GKK2        0.0000 
     35 H          11.9596   19.2619   11.4015 H         1 GKK2        0.0000 
     36 H          12.9682   18.3916   13.3869 H         1 GKK2        0.0000 
     37 H          11.1015   17.7756    9.7275 H         1 GKK2        0.0000 
     38 H          10.5938   14.2564   10.2334 H         1 GKK2        0.0000 
     39 H          11.9879   14.6181    9.2012 H         1 GKK2        0.0000 
     40 H           9.1566   14.0833   11.0616 H         1 GKK2        0.0000 
     41 H           8.9763   16.4801    6.5113 H         1 GKK2        0.0000 
     42 H           9.9677   17.2510    4.4818 H         1 GKK2        0.0000 
     43 H          12.7479   15.7838    8.0902 H         1 GKK2        0.0000 
     44 H          13.1306   16.0206   13.7126 H         1 GKK2        0.0000 
     45 H           7.1961   13.5105   12.3000 H         1 GKK2        0.0000 
     46 H           7.6453   15.0054   12.6869 H         1 GKK2        0.0000 
     47 H           6.3669   14.7695   11.7401 H         1 GKK2        0.0000 
@<TRIPOS>BOND
     1   22    1 1    
     2   12    2 1    
     3   45    2 1    
     4   46    2 1    
     5   47    2 1    
     6    4    3 1    
     7   12    3 1    
     8   28    3 1    
     9   29    3 1    
    10    5    4 1    
    11   30    4 1    
    12   31    4 1    
    13    6    5 1    
    14   17    5 1    
    15   32    5 1    
    16   12    6 1    
    17   33    6 1    
    18   34    6 1    
    19    8    7 ar   
    20    9    7 ar   
    21   35    7 1    
    22   24    8 ar   
    23   36    8 1    
    24   10    9 ar   
    25   37    9 1    
    26   11   10 1    
    27   13   10 ar   
    28   17   11 1    
    29   38   11 1    
    30   39   11 1    
    31   40   12 1    
    32   14   13 1    
    33   24   13 ar   
    34   25   14 1    
    35   26   14 1    
    36   27   14 1    
    37   16   15 ar   
    38   17   15 1    
    39   23   15 ar   
    40   18   16 ar   
    41   41   16 1    
    42   19   18 ar   
    43   42   18 1    
    44   20   19 1    
    45   22   19 ar   
    46   21   20 3    
    47   23   22 ar   
    48   43   23 1    
    49   44   24 1    
@<TRIPOS>SUBSTRUCTURE
     1 GKK2        1 GROUP   
@<TRIPOS>SET

