#    Name: 3hl5_9JZ_2_INTS_M
#    Modification time : Tue Mar 25 14:30:24 2014

@<TRIPOS>MOLECULE
3hl5_9JZ_2_INTS_M
   61     0     9     0     0
SMALL
NO_CHARGES


@<TRIPOS>ATOM
      1 N          -9.9875    6.8190  -21.3755 N.am      2 SEC2        0.0000 
      2 N          -8.7560    7.0490  -20.7720 N.am      8 SEL2        0.0000 
      3 N         -11.2190    6.5890  -21.9790 N.am      5 SEP2        0.0000 
      4 CA         -8.9465    5.6955  -18.5640 C.3       3 GLC5        0.0000 
      5 CA         -7.3680    5.4470  -19.7460 C.3       9 GLL5        0.0000 
      6 CA        -10.5250    5.9440  -17.3820 C.3       6 GLP5        0.0000 
      7 CA         -7.6075    6.6785  -23.0175 C.3       3 GLC5        0.0000 
      8 CA         -6.0900    5.7700  -21.9790 C.3       9 GLL5        0.0000 
      9 CA         -9.1250    7.5870  -24.0560 C.3       6 GLP5        0.0000 
     10 O          -8.9770    4.4775  -21.6230 O.2       1 ALC1        0.0000 
     11 O          -8.2180    4.4320  -20.3530 O.2       7 ALL1        0.0000 
     12 O          -9.7360    4.5230  -22.8930 O.2       4 ALP1        0.0000 
     13 CA        -10.5520    1.4615  -22.1045 C.3       3 GLC5        0.0000 
     14 CA         -9.3020    2.2950  -20.5150 C.3       9 GLL5        0.0000 
     15 CA        -11.8020    0.6280  -23.6940 C.3       6 GLP5        0.0000 
     16 CA        -11.6000    4.1915  -19.5090 C.3       3 GLC5        0.0000 
     17 CA        -10.7300    2.4330  -19.9980 C.3       9 GLL5        0.0000 
     18 CA        -12.4700    5.9500  -19.0200 C.3       6 GLP5        0.0000 
     19 CA        -12.4220    2.0265  -20.5485 C.3       3 GLC5        0.0000 
     20 CA        -14.1140    1.6200  -21.0990 C.3       6 GLP5        0.0000 
     21 CA        -11.2745    1.0780  -18.3460 C.3       3 GLC5        0.0000 
     22 CA        -11.8190   -0.2770  -16.6940 C.3       6 GLP5        0.0000 
     23 CA         -8.0165   -1.1225  -22.4800 C.3       3 GLC5        0.0000 
     24 CA         -7.6280    0.5550  -21.1350 C.3       9 GLL5        0.0000 
     25 CA         -8.4050   -2.8000  -23.8250 C.3       6 GLP5        0.0000 
     26 CA         -6.3225   11.6195  -18.5780 C.3       3 GLC5        0.0000 
     27 CA         -7.3900    9.8320  -17.9210 C.3       9 GLL5        0.0000 
     28 CA         -5.2550   13.4070  -19.2350 C.3       6 GLP5        0.0000 
     29 CA         -6.2135   10.8365  -16.2710 C.3       3 GLC5        0.0000 
     30 CA         -8.1400   11.0220  -17.3330 C.3       9 GLL5        0.0000 
     31 CA         -4.2870   10.6510  -15.2090 C.3       6 GLP5        0.0000 
     32 CA         -7.1125   12.5130  -17.8405 C.3       3 GLC5        0.0000 
     33 CA         -6.0850   14.0040  -18.3480 C.3       6 GLP5        0.0000 
     34 CA         -9.3370    7.5300  -18.2050 C.3       3 GLC5        0.0000 
     35 CA         -8.1490    9.1160  -19.0280 C.3       9 GLL5        0.0000 
     36 CA         -0.1180   11.0490  -19.1155 C.3       3 GLC5        0.0000 
     37 CA         -1.7010   10.3300  -20.3900 C.3       9 GLL5        0.0000 
     38 CA          1.4650   11.7680  -17.8410 C.3       6 GLP5        0.0000 
     39 CA         -3.3885    9.1825  -17.9745 C.3       3 GLC5        0.0000 
     40 CA         -3.0940    8.5360  -19.6390 C.3       9 GLL5        0.0000 
     41 CA         -3.6830    9.8290  -16.3100 C.3       6 GLP5        0.0000 
     42 CA         -5.9540    4.4354  -18.2699 C.3       3 GLC5        0.0000 
     43 CA         -6.0040    5.4600  -20.4750 C.3       9 GLL5        0.0000 
     44 CA         -5.9840    4.0450  -16.3690 C.3       6 GLP5        0.0000 
     45 CA         -8.7127    7.0503  -17.3747 C.3       3 GLC5        0.0000 
     46 CA         -7.0840    8.7420  -16.9150 C.3       9 GLL5        0.0000 
     47 CA         -6.1042    7.0713  -16.2218 C.3       3 GLC5        0.0000 
     48 CA         -6.7170    7.5710  -17.8200 C.3       9 GLL5        0.0000 
     49 CA         -5.3080    5.9860  -15.0760 C.3       6 GLP5        0.0000 
     50 CA         -5.4141    9.4116  -16.9771 C.3       3 GLC5        0.0000 
     51 CA         -6.8268   12.1288  -22.5532 C.3       3 GLC5        0.0000 
     52 CA         -6.2430   10.1530  -22.1330 C.3       9 GLL5        0.0000 
     53 CA         -6.9550   13.9110  -22.4770 C.3       6 GLP5        0.0000 
     54 CA         -6.4958   12.5953  -23.4340 C.3       3 GLC5        0.0000 
     55 CA         -6.7170   11.1560  -24.2990 C.3       9 GLL5        0.0000 
     56 CA         -7.9164    9.1691  -23.7601 C.3       3 GLC5        0.0000 
     57 CA         -5.8068   12.3137  -22.6935 C.3       3 GLC5        0.0000 
     58 CA         -4.8750   10.4110  -22.3170 C.3       9 GLL5        0.0000 
     59 CA         -4.9737   11.7773  -20.5050 C.3       3 GLC5        0.0000 
     60 CA         -2.0012    9.9093  -18.0682 C.3       3 GLC5        0.0000 
     61 CA         -2.2040   10.0340  -16.1650 C.3       6 GLP5        0.0000 
@<TRIPOS>BOND
@<TRIPOS>SUBSTRUCTURE
     1 ALC1       10 GROUP        1 X    ALC  0     ROOT ALC X 1
     2 SEC2        1 GROUP        1 X    SEC  0     **** SEC X 2
     3 GLC5        4 GROUP        1 X    GLC  0     **** GLC X 6
     4 ALP1       12 GROUP        1 Y    ALP  0     ROOT ALP Y 8
     5 SEP2        3 GROUP        1 Y    SEP  0     **** SEP Y 9
     6 GLP5        6 GROUP        1 Y    GLP  0     **** GLP Y 13
     7 ALL1       11 GROUP        1 Z    ALL  0     ROOT ALL Z 15
     8 SEL2        2 GROUP        1 Z    SEL  0     **** SEL Z 16
     9 GLL5        5 GROUP        1 Z    GLL  0     **** GLL Z 20
@<TRIPOS>SET

