#    Name: 3hl5_9JZ_2_ligand
#    Modification time : Tue Mar 25 14:30:24 2014

@<TRIPOS>MOLECULE
3hl5_9JZ_2_ligand
   74    77     1     0     0
SMALL
NO_CHARGES


@<TRIPOS>ATOM
      1 O3         -8.7560    7.0490  -20.7720 O.2       1 9JZ1        0.0000 
      2 C5         -7.9790    6.8190  -19.8610 C.2       1 9JZ1        0.0000 
      3 C4         -7.3680    5.4470  -19.7460 C.3       1 9JZ1        0.0000 
      4 C12        -6.0040    5.4600  -20.4750 C.3       1 9JZ1        0.0000 
      5 C18        -6.0900    5.7700  -21.9790 C.3       1 9JZ1        0.0000 
      6 C17        -4.6990    5.9020  -22.6090 C.3       1 9JZ1        0.0000 
      7 C16        -3.8320    4.6750  -22.3350 C.3       1 9JZ1        0.0000 
      8 C15        -3.7700    4.3360  -20.8430 C.3       1 9JZ1        0.0000 
      9 C14        -5.1620    4.1980  -20.2310 C.3       1 9JZ1        0.0000 
     10 N2         -8.2180    4.4320  -20.3530 N.am      1 9JZ1        0.0000 
     11 C3         -8.4000    3.2450  -19.7840 C.2       1 9JZ1        0.0000 
     12 O2         -7.8610    2.9050  -18.7410 O.2       1 9JZ1        0.0000 
     13 C2         -9.3020    2.2950  -20.5150 C.3       1 9JZ1        0.0000 
     14 C13       -10.7300    2.4330  -19.9980 C.3       1 9JZ1        0.0000 
     15 N1         -8.8250    0.9280  -20.3970 N.4       1 9JZ1        0.0000 
     16 C1         -7.6280    0.5550  -21.1350 C.3       1 9JZ1        0.0000 
     17 N3         -7.6180    7.7430  -18.9640 N.am      1 9JZ1        0.0000 
     18 C9         -6.7170    7.5710  -17.8200 C.3       1 9JZ1        0.0000 
     19 C8         -7.0840    8.7420  -16.9150 C.3       1 9JZ1        0.0000 
     20 C7         -7.3900    9.8320  -17.9210 C.3       1 9JZ1        0.0000 
     21 C28        -8.1400   11.0220  -17.3330 C.3       1 9JZ1        0.0000 
     22 C6         -8.1490    9.1160  -19.0280 C.3       1 9JZ1        0.0000 
     23 C10        -7.8470    9.8380  -20.3230 C.2       1 9JZ1        0.0000 
     24 O1         -8.6630   10.6470  -20.7450 O.2       1 9JZ1        0.0000 
     25 N4         -6.6920    9.5440  -20.9420 N.am      1 9JZ1        0.0000 
     26 C11        -6.2430   10.1530  -22.1330 C.ar      1 9JZ1        0.0000 
     27 C27        -7.1540   10.5400  -23.1260 C.ar      1 9JZ1        0.0000 
     28 C26        -6.7170   11.1560  -24.2990 C.ar      1 9JZ1        0.0000 
     29 C25        -5.3560   11.4030  -24.4830 C.ar      1 9JZ1        0.0000 
     30 C24        -4.4420   11.0220  -23.5030 C.ar      1 9JZ1        0.0000 
     31 C19        -4.8750   10.4110  -22.3170 C.ar      1 9JZ1        0.0000 
     32 C20        -3.8260   10.0130  -21.3250 C.ar      1 9JZ1        0.0000 
     33 N6         -2.6550   10.6990  -21.2540 N.ar      1 9JZ1        0.0000 
     34 C23        -1.7010   10.3300  -20.3900 C.ar      1 9JZ1        0.0000 
     35 C22        -1.8960    9.2390  -19.5530 C.ar      1 9JZ1        0.0000 
     36 C21        -3.0940    8.5360  -19.6390 C.ar      1 9JZ1        0.0000 
     37 N5         -4.0210    8.9360  -20.5210 N.ar      1 9JZ1        0.0000 
     38 H          -7.1782    5.2272  -18.7128 H         1 9JZ1        0.0000 
     39 H          -5.4112    6.3112  -20.0214 H         1 9JZ1        0.0000 
     40 H          -6.6376    6.7027  -22.1188 H         1 9JZ1        0.0000 
     41 H          -6.6349    4.9672  -22.4767 H         1 9JZ1        0.0000 
     42 H          -4.2067    6.7889  -22.2029 H         1 9JZ1        0.0000 
     43 H          -4.8077    6.0325  -23.6884 H         1 9JZ1        0.0000 
     44 H          -2.8183    4.8617  -22.7009 H         1 9JZ1        0.0000 
     45 H          -4.2392    3.8180  -22.8790 H         1 9JZ1        0.0000 
     46 H          -3.2235    5.1254  -20.3201 H         1 9JZ1        0.0000 
     47 H          -3.2248    3.3974  -20.7127 H         1 9JZ1        0.0000 
     48 H          -5.6690    3.3420  -20.6750 H         1 9JZ1        0.0000 
     49 H          -5.0706    4.0346  -19.1577 H         1 9JZ1        0.0000 
     50 H          -8.6689    4.6954  -21.2529 H         1 9JZ1        0.0000 
     51 H          -9.3123    2.5913  -21.5728 H         1 9JZ1        0.0000 
     52 H          -5.6970    7.6648  -18.1114 H         1 9JZ1        0.0000 
     53 H          -6.9133    6.6600  -17.3045 H         1 9JZ1        0.0000 
     54 H          -6.2514    9.0129  -16.3261 H         1 9JZ1        0.0000 
     55 H          -7.9491    8.5061  -16.3588 H         1 9JZ1        0.0000 
     56 H          -6.4415   10.1642  -18.3423 H         1 9JZ1        0.0000 
     57 H          -9.1735    9.1475  -18.7976 H         1 9JZ1        0.0000 
     58 H          -6.0502    8.8021  -20.5258 H         1 9JZ1        0.0000 
     59 H          -8.1613   10.3654  -22.9844 H         1 9JZ1        0.0000 
     60 H          -7.3913   11.4255  -25.0212 H         1 9JZ1        0.0000 
     61 H          -5.0297   11.8649  -25.3396 H         1 9JZ1        0.0000 
     62 H          -3.4348   11.1893  -23.6473 H         1 9JZ1        0.0000 
     63 H          -0.8017   10.8484  -20.3283 H         1 9JZ1        0.0000 
     64 H          -1.1764    8.9575  -18.8881 H         1 9JZ1        0.0000 
     65 H          -3.2437    7.7236  -19.0238 H         1 9JZ1        0.0000 
     66 H         -10.7920    2.2326  -19.0203 H         1 9JZ1        0.0000 
     67 H         -11.0852    3.3583  -20.1306 H         1 9JZ1        0.0000 
     68 H         -11.3561    1.8089  -20.4654 H         1 9JZ1        0.0000 
     69 H          -6.8386    1.1066  -20.8656 H         1 9JZ1        0.0000 
     70 H          -7.3818   -0.4024  -20.9840 H         1 9JZ1        0.0000 
     71 H          -7.7469    0.6751  -22.1206 H         1 9JZ1        0.0000 
     72 H          -7.6215   11.4624  -16.6001 H         1 9JZ1        0.0000 
     73 H          -8.3250   11.7220  -18.0227 H         1 9JZ1        0.0000 
     74 H          -9.0216   10.7512  -16.9465 H         1 9JZ1        0.0000 
@<TRIPOS>BOND
     1    2    1 2    
     2    3    2 1    
     3   17    2 am   
     4    4    3 1    
     5   10    3 1    
     6   38    3 1    
     7    5    4 1    
     8    9    4 1    
     9   39    4 1    
    10    6    5 1    
    11   40    5 1    
    12   41    5 1    
    13    7    6 1    
    14   42    6 1    
    15   43    6 1    
    16    8    7 1    
    17   44    7 1    
    18   45    7 1    
    19    9    8 1    
    20   46    8 1    
    21   47    8 1    
    22   48    9 1    
    23   49    9 1    
    24   11   10 am   
    25   50   10 1    
    26   12   11 2    
    27   13   11 1    
    28   14   13 1    
    29   15   13 1    
    30   51   13 1    
    31   66   14 1    
    32   67   14 1    
    33   68   14 1    
    34   16   15 1    
    35   69   16 1    
    36   70   16 1    
    37   71   16 1    
    38   18   17 1    
    39   22   17 1    
    40   19   18 1    
    41   52   18 1    
    42   53   18 1    
    43   20   19 1    
    44   54   19 1    
    45   55   19 1    
    46   21   20 1    
    47   22   20 1    
    48   56   20 1    
    49   72   21 1    
    50   73   21 1    
    51   74   21 1    
    52   23   22 1    
    53   57   22 1    
    54   24   23 2    
    55   25   23 am   
    56   26   25 1    
    57   58   25 1    
    58   27   26 ar   
    59   31   26 ar   
    60   28   27 ar   
    61   59   27 1    
    62   29   28 ar   
    63   60   28 1    
    64   30   29 ar   
    65   61   29 1    
    66   31   30 ar   
    67   62   30 1    
    68   32   31 1    
    69   33   32 ar   
    70   37   32 ar   
    71   34   33 ar   
    72   35   34 ar   
    73   63   34 1    
    74   36   35 ar   
    75   64   35 1    
    76   37   36 ar   
    77   65   36 1    
@<TRIPOS>SUBSTRUCTURE
     1 9JZ1        1 GROUP   
@<TRIPOS>SET

