#    Name: 2p5u_NAD_3_INTS_M
#    Modification time : Mon Mar 24 18:23:44 2014

@<TRIPOS>MOLECULE
2p5u_NAD_3_INTS_M
  119     0     9     0     0
SMALL
NO_CHARGES


@<TRIPOS>ATOM
      1 N          25.5255   90.3580   40.3235 N.am      2 SEC2        0.0000 
      2 N          24.9770   91.0890   41.6800 N.am      8 SEL2        0.0000 
      3 N          26.0740   89.6270   38.9670 N.am      5 SEP2        0.0000 
      4 CA         21.8270   85.6010   40.5190 C.3       3 GLC5        0.0000 
      5 CA         21.5920   87.5230   41.4400 C.3       9 GLL5        0.0000 
      6 CA         22.0620   83.6790   39.5980 C.3       6 GLP5        0.0000 
      7 N          19.2540   87.7545   38.9855 N.am      2 SEC2        0.0000 
      8 N          20.6600   88.3630   39.3810 N.am      8 SEL2        0.0000 
      9 N          17.8480   87.1460   38.5900 N.am      5 SEP2        0.0000 
     10 O          20.2305   87.2765   38.8625 O.2       1 ALC1        0.0000 
     11 O          20.6600   88.3630   39.3810 O.2       7 ALL1        0.0000 
     12 O          19.8010   86.1900   38.3440 O.2       4 ALP1        0.0000 
     13 CA         17.6435   89.2645   42.4200 C.3       3 GLC5        0.0000 
     14 CA         19.3530   88.3530   41.5290 C.3       9 GLL5        0.0000 
     15 CA         15.9340   90.1760   43.3110 C.3       6 GLP5        0.0000 
     16 N          18.0685   87.9790   39.6500 N.am      2 SEC2        0.0000 
     17 N          18.2890   88.8120   40.7100 N.am      8 SEL2        0.0000 
     18 N          18.1380   90.2895   41.1350 N.am      2 SEC2        0.0000 
     19 N          17.9870   91.7670   41.5600 N.am      5 SEP2        0.0000 
     20 N          18.9320   90.1540   40.0845 N.am      2 SEC2        0.0000 
     21 N          19.5750   91.4960   39.4590 N.am      5 SEP2        0.0000 
     22 O          16.9135   88.1210   41.1370 O.2       1 ALC1        0.0000 
     23 O          18.2890   88.8120   40.7100 O.2       7 ALL1        0.0000 
     24 O          15.5380   87.4300   41.5640 O.2       4 ALP1        0.0000 
     25 CA         13.8735   83.6555   42.8520 C.3       3 GLC5        0.0000 
     26 CA         15.6540   84.3780   43.8190 C.3       9 GLL5        0.0000 
     27 CA         12.0930   82.9330   41.8850 C.3       6 GLP5        0.0000 
     28 CA         15.3470   82.3580   44.2530 C.3       3 GLC5        0.0000 
     29 CA         15.0400   80.3380   44.6870 C.3       6 GLP5        0.0000 
     30 O          13.4190   83.8975   44.7980 O.2       1 ALC1        0.0000 
     31 O          14.7980   84.4050   44.8270 O.2       7 ALL1        0.0000 
     32 O          12.0400   83.3900   44.7690 O.2       4 ALP1        0.0000 
     33 N          14.4475   82.4595   43.0200 N.am      2 SEC2        0.0000 
     34 N          15.4990   83.5000   42.7940 N.am      8 SEL2        0.0000 
     35 N          13.3960   81.4190   43.2460 N.am      5 SEP2        0.0000 
     36 CA         16.1110   81.9475   40.4810 C.3       3 GLC5        0.0000 
     37 CA         16.2760   83.5310   41.7060 C.3       9 GLL5        0.0000 
     38 CA         15.9460   80.3640   39.2560 C.3       6 GLP5        0.0000 
     39 CA         16.5885   83.9585   39.7635 C.3       3 GLC5        0.0000 
     40 CA         16.9010   84.3860   37.8210 C.3       6 GLP5        0.0000 
     41 CA         14.9450   84.9065   41.2040 C.3       3 GLC5        0.0000 
     42 CA         13.6140   86.2820   40.7020 C.3       6 GLP5        0.0000 
     43 CA         14.1845   83.2320   41.7955 C.3       3 GLC5        0.0000 
     44 CA         16.2110   81.4870   42.1590 C.3       3 GLC5        0.0000 
     45 CA         16.1460   79.4430   42.6120 C.3       6 GLP5        0.0000 
     46 CA         18.1235   82.9665   42.3145 C.3       3 GLC5        0.0000 
     47 CA         19.9710   82.4020   42.9230 C.3       6 GLP5        0.0000 
     48 N          16.3130   85.1220   40.3365 N.am      2 SEC2        0.0000 
     49 N          17.2470   84.4400   41.5920 N.am      8 SEL2        0.0000 
     50 N          15.3790   85.8040   39.0810 N.am      5 SEP2        0.0000 
     51 N          27.7215   88.0530   40.5595 N.am      2 SEC2        0.0000 
     52 N          26.9030   88.1630   41.5360 N.am      8 SEL2        0.0000 
     53 N          28.5400   87.9430   39.5830 N.am      5 SEP2        0.0000 
     54 CA         28.2260   86.3785   43.5480 C.3       3 GLC5        0.0000 
     55 CA         26.1900   86.0380   43.8310 C.3       9 GLL5        0.0000 
     56 CA         30.2620   86.7190   43.2650 C.3       6 GLP5        0.0000 
     57 CA         25.8410   84.1780   42.6470 C.3       3 GLC5        0.0000 
     58 CA         25.4920   82.3180   41.4630 C.3       6 GLP5        0.0000 
     59 CA         25.5150   83.3675   43.8485 C.3       3 GLC5        0.0000 
     60 CA         26.2710   85.0240   45.0250 C.3       9 GLL5        0.0000 
     61 CA         24.7590   81.7110   42.6720 C.3       6 GLP5        0.0000 
     62 CA         27.1600   83.1200   45.1070 C.3       3 GLC5        0.0000 
     63 CA         28.0490   81.2160   45.1890 C.3       6 GLP5        0.0000 
     64 CA         23.6040   84.5905   46.9075 C.3       3 GLC5        0.0000 
     65 CA         25.2980   85.2010   46.1670 C.3       9 GLL5        0.0000 
     66 CA         21.9100   83.9800   47.6480 C.3       6 GLP5        0.0000 
     67 N          25.0140   83.2190   47.7560 N.am      2 SEC2        0.0000 
     68 N          24.7530   83.9220   46.5130 N.am      8 SEL2        0.0000 
     69 N          25.2750   82.5160   48.9990 N.am      5 SEP2        0.0000 
     70 N          25.4715   84.0275   48.7790 N.am      2 SEC2        0.0000 
     71 N          25.6680   85.5390   48.5590 N.am      8 SEL2        0.0000 
     72 O          26.5340   85.9700   49.6715 O.2       1 ALC1        0.0000 
     73 O          25.6680   85.5390   48.5590 O.2       7 ALL1        0.0000 
     74 O          27.4000   86.4010   50.7840 O.2       4 ALP1        0.0000 
     75 CA         27.7935   83.2280   46.1525 C.3       3 GLC5        0.0000 
     76 CA         27.5380   85.2400   47.1160 C.3       9 GLL5        0.0000 
     77 N          32.9965   89.7660   46.7645 N.am      2 SEC2        0.0000 
     78 N          31.3810   90.0760   47.3340 N.am      8 SEL2        0.0000 
     79 N          34.6120   89.4560   46.1950 N.am      5 SEP2        0.0000 
     80 N          31.5045   91.6225   48.0640 N.am      2 SEC2        0.0000 
     81 N          31.6280   93.1690   48.7940 N.am      5 SEP2        0.0000 
     82 O          32.0685   90.2860   44.9180 O.2       1 ALC1        0.0000 
     83 O          30.8130   89.1840   45.3540 O.2       7 ALL1        0.0000 
     84 O          33.3240   91.3880   44.4820 O.2       4 ALP1        0.0000 
     85 CA         30.8790   84.5895   50.2920 C.3       3 GLC5        0.0000 
     86 CA         30.8310   85.9620   48.8370 C.3       9 GLL5        0.0000 
     87 CA         30.9270   83.2170   51.7470 C.3       6 GLP5        0.0000 
     88 CA         29.8275   84.8250   50.4170 C.3       3 GLC5        0.0000 
     89 CA         29.6300   85.3800   48.4180 C.3       9 GLL5        0.0000 
     90 CA         30.0250   84.2700   52.4160 C.3       6 GLP5        0.0000 
     91 CA         21.3537   89.6610   42.4530 C.3       3 GLC5        0.0000 
     92 CA         20.6340   91.5030   42.9350 C.3       6 GLP5        0.0000 
     93 CA         22.6576   88.4325   39.8930 C.3       3 GLC5        0.0000 
     94 CA         22.5550   88.1150   42.5020 C.3       9 GLL5        0.0000 
     95 CA         23.9400   88.6880   38.4010 C.3       6 GLP5        0.0000 
     96 CA         20.3245   89.9735   42.0495 C.3       3 GLC5        0.0000 
     97 CA         20.6770   88.5350   40.7990 C.3       9 GLL5        0.0000 
     98 CA         20.1655   89.8215   39.7070 C.3       3 GLC5        0.0000 
     99 CA         20.3160   91.1990   38.2500 C.3       6 GLP5        0.0000 
    100 CA         18.5292   83.8602   43.0307 C.3       3 GLC5        0.0000 
    101 CA         16.7010   85.2910   43.7010 C.3       9 GLL5        0.0000 
    102 CA         16.6623   84.6718   45.8230 C.3       3 GLC5        0.0000 
    103 CA         17.1470   84.5090   47.8860 C.3       6 GLP5        0.0000 
    104 CA         15.2199   85.6861   41.9350 C.3       3 GLC5        0.0000 
    105 CA         25.1623   87.3383   47.1065 C.3       3 GLC5        0.0000 
    106 CA         24.5980   89.1530   47.5000 C.3       6 GLP5        0.0000 
    107 CA         26.1537   84.2895   48.7868 C.3       3 GLC5        0.0000 
    108 CA         26.1550   85.8460   47.2590 C.3       9 GLL5        0.0000 
    109 CA         25.4610   83.0360   50.3860 C.3       6 GLP5        0.0000 
    110 CA         30.0113   87.1445   45.1960 C.3       3 GLC5        0.0000 
    111 CA         29.1520   87.2790   46.9260 C.3       9 GLL5        0.0000 
    112 CA         32.3410   87.3280   46.3713 C.3       3 GLC5        0.0000 
    113 CA         30.3690   87.8610   47.3280 C.3       9 GLL5        0.0000 
    114 CA         33.9080   87.1240   44.9390 C.3       6 GLP5        0.0000 
    115 CA         30.5600   88.9695   49.1367 C.3       3 GLC5        0.0000 
    116 CA         31.1790   87.2030   48.2790 C.3       9 GLL5        0.0000 
    117 CA         30.3460   90.4070   50.4700 C.3       6 GLP5        0.0000 
    118 CA         31.8937   85.0361   47.7095 C.3       3 GLC5        0.0000 
    119 CA         33.4700   84.0910   46.9310 C.3       6 GLP5        0.0000 
@<TRIPOS>BOND
@<TRIPOS>SUBSTRUCTURE
     1 ALC1       10 GROUP        1 X    ALC  0     ROOT ALC X 1
     2 SEC2        1 GROUP        1 X    SEC  0     **** SEC X 2
     3 GLC5        4 GROUP        1 X    GLC  0     **** GLC X 6
     4 ALP1       12 GROUP        1 Y    ALP  0     ROOT ALP Y 8
     5 SEP2        3 GROUP        1 Y    SEP  0     **** SEP Y 9
     6 GLP5        6 GROUP        1 Y    GLP  0     **** GLP Y 13
     7 ALL1       11 GROUP        1 Z    ALL  0     ROOT ALL Z 15
     8 SEL2        2 GROUP        1 Z    SEL  0     **** SEL Z 16
     9 GLL5        5 GROUP        1 Z    GLL  0     **** GLL Z 20
@<TRIPOS>SET

