#    Name: 2p5u_NAD_3_ligand
#    Modification time : Mon Mar 24 18:23:44 2014

@<TRIPOS>MOLECULE
2p5u_NAD_3_ligand
   70    74     1     0     0
SMALL
NO_CHARGES


@<TRIPOS>ATOM
      1 PA         24.3080   90.2410   42.6970 P.3       1 NAD1118     0.0000 
      2 O1A        23.5120   90.8570   43.7900 O.co2     1 NAD1118     0.0000 
      3 O2A        24.9770   91.0890   41.6800 O.co2     1 NAD1118     0.0000 
      4 O5B        23.3740   89.1680   41.9210 O.3       1 NAD1118     0.0000 
      5 C5B        22.5550   88.1150   42.5020 C.3       1 NAD1118     0.0000 
      6 C4B        21.5920   87.5230   41.4400 C.3       1 NAD1118     0.0000 
      7 O4B        20.6580   86.4860   41.8500 O.3       1 NAD1118     0.0000 
      8 C3B        20.6770   88.5350   40.7990 C.3       1 NAD1118     0.0000 
      9 O3B        20.6600   88.3630   39.3810 O.3       1 NAD1118     0.0000 
     10 C2B        19.3530   88.3530   41.5290 C.3       1 NAD1118     0.0000 
     11 O2B        18.2890   88.8120   40.7100 O.3       1 NAD1118     0.0000 
     12 C1B        19.2710   86.8560   41.7400 C.3       1 NAD1118     0.0000 
     13 N9A        18.3540   86.3130   42.8030 N.pl3     1 NAD1118     0.0000 
     14 C8A        18.1540   86.7280   44.0740 C.2       1 NAD1118     0.0000 
     15 N7A        17.1110   86.1230   44.6480 N.2       1 NAD1118     0.0000 
     16 C5A        16.7010   85.2910   43.7010 C.ar      1 NAD1118     0.0000 
     17 C6A        15.6540   84.3780   43.8190 C.ar      1 NAD1118     0.0000 
     18 N6A        14.7980   84.4050   44.8270 N.pl3     1 NAD1118     0.0000 
     19 N1A        15.4990   83.5000   42.7940 N.ar      1 NAD1118     0.0000 
     20 C2A        16.2760   83.5310   41.7060 C.ar      1 NAD1118     0.0000 
     21 N3A        17.2470   84.4400   41.5920 N.ar      1 NAD1118     0.0000 
     22 C4A        17.4740   85.3460   42.5760 C.ar      1 NAD1118     0.0000 
     23 O3         25.4990   89.3450   43.3490 O.3       1 NAD1118     0.0000 
     24 PN         26.9010   88.6140   42.9460 P.3       1 NAD1118     0.0000 
     25 O1N        27.9850   89.5000   43.4380 O.co2     1 NAD1118     0.0000 
     26 O2N        26.9030   88.1630   41.5360 O.co2     1 NAD1118     0.0000 
     27 O5D        26.9350   87.2950   43.9000 O.3       1 NAD1118     0.0000 
     28 C5D        26.1900   86.0380   43.8310 C.3       1 NAD1118     0.0000 
     29 C4D        26.2710   85.0240   45.0250 C.3       1 NAD1118     0.0000 
     30 O4D        27.4850   84.7370   45.7700 O.3       1 NAD1118     0.0000 
     31 C3D        25.2980   85.2010   46.1670 C.3       1 NAD1118     0.0000 
     32 O3D        24.7530   83.9220   46.5130 O.3       1 NAD1118     0.0000 
     33 C2D        26.1550   85.8460   47.2590 C.3       1 NAD1118     0.0000 
     34 O2D        25.6680   85.5390   48.5590 O.3       1 NAD1118     0.0000 
     35 C1D        27.5380   85.2400   47.1160 C.3       1 NAD1118     0.0000 
     36 N1N        28.7730   86.0100   47.4800 N.pl3     1 NAD1118     0.0000 
     37 C2N        29.1520   87.2790   46.9260 C.ar      1 NAD1118     0.0000 
     38 C3N        30.3690   87.8610   47.3280 C.ar      1 NAD1118     0.0000 
     39 C7N        30.9120   89.1470   46.6770 C.2       1 NAD1118     0.0000 
     40 O7N        31.3810   90.0760   47.3340 O.2       1 NAD1118     0.0000 
     41 N7N        30.8130   89.1840   45.3540 N.am      1 NAD1118     0.0000 
     42 C4N        31.1790   87.2030   48.2790 C.ar      1 NAD1118     0.0000 
     43 C5N        30.8310   85.9620   48.8370 C.ar      1 NAD1118     0.0000 
     44 C6N        29.6300   85.3800   48.4180 C.ar      1 NAD1118     0.0000 
     45 H          21.9439   88.4938   43.3268 H         1 NAD1118     0.0000 
     46 H          23.1707   87.2946   42.8828 H         1 NAD1118     0.0000 
     47 H          22.2068   87.1143   40.6039 H         1 NAD1118     0.0000 
     48 H          21.0688   89.5182   41.0857 H         1 NAD1118     0.0000 
     49 H          19.4187   88.8308   42.4646 H         1 NAD1118     0.0000 
     50 H          18.9257   86.4485   40.7347 H         1 NAD1118     0.0000 
     51 H          18.7237   87.4070   44.5225 H         1 NAD1118     0.0000 
     52 H          14.1036   83.6855   44.8340 H         1 NAD1118     0.0000 
     53 H          14.9230   85.1425   45.4908 H         1 NAD1118     0.0000 
     54 H          16.1203   82.8345   40.9360 H         1 NAD1118     0.0000 
     55 H          26.4844   85.4588   42.9047 H         1 NAD1118     0.0000 
     56 H          25.0898   86.2436   43.6658 H         1 NAD1118     0.0000 
     57 H          25.9423   83.9901   44.5910 H         1 NAD1118     0.0000 
     58 H          24.5614   85.9064   45.8559 H         1 NAD1118     0.0000 
     59 H          26.2239   86.8873   47.0716 H         1 NAD1118     0.0000 
     60 H          27.4969   84.3028   47.7762 H         1 NAD1118     0.0000 
     61 H          28.5464   87.7367   46.2594 H         1 NAD1118     0.0000 
     62 H          31.2095   89.9849   44.9053 H         1 NAD1118     0.0000 
     63 H          30.3509   88.4076   44.9255 H         1 NAD1118     0.0000 
     64 H          32.0666   87.6571   48.5756 H         1 NAD1118     0.0000 
     65 H          31.4253   85.5105   49.5128 H         1 NAD1118     0.0000 
     66 H          29.3498   84.4573   48.8013 H         1 NAD1118     0.0000 
     67 H          20.8158   87.3857   39.2370 H         1 NAD1118     0.0000 
     68 H          17.4745   88.3503   41.0612 H         1 NAD1118     0.0000 
     69 H          23.7701   84.0069   46.3500 H         1 NAD1118     0.0000 
     70 H          26.3628   85.8921   49.1856 H         1 NAD1118     0.0000 
@<TRIPOS>BOND
     1    2    1 ar   
     2    3    1 ar   
     3    4    1 1    
     4   23    1 1    
     5    5    4 1    
     6    6    5 1    
     7   45    5 1    
     8   46    5 1    
     9    7    6 1    
    10    8    6 1    
    11   47    6 1    
    12   12    7 1    
    13    9    8 1    
    14   10    8 1    
    15   48    8 1    
    16   67    9 1    
    17   11   10 1    
    18   12   10 1    
    19   49   10 1    
    20   68   11 1    
    21   13   12 1    
    22   50   12 1    
    23   14   13 1    
    24   22   13 1    
    25   15   14 2    
    26   51   14 1    
    27   16   15 1    
    28   17   16 ar   
    29   22   16 ar   
    30   18   17 1    
    31   19   17 ar   
    32   52   18 1    
    33   53   18 1    
    34   20   19 ar   
    35   21   20 ar   
    36   54   20 1    
    37   22   21 ar   
    38   24   23 1    
    39   25   24 ar   
    40   26   24 ar   
    41   27   24 1    
    42   28   27 1    
    43   29   28 1    
    44   55   28 1    
    45   56   28 1    
    46   30   29 1    
    47   31   29 1    
    48   57   29 1    
    49   35   30 1    
    50   32   31 1    
    51   33   31 1    
    52   58   31 1    
    53   69   32 1    
    54   34   33 1    
    55   35   33 1    
    56   59   33 1    
    57   70   34 1    
    58   36   35 1    
    59   60   35 1    
    60   37   36 ar   
    61   44   36 ar   
    62   38   37 ar   
    63   61   37 1    
    64   39   38 1    
    65   42   38 ar   
    66   40   39 2    
    67   41   39 am   
    68   62   41 1    
    69   63   41 1    
    70   43   42 ar   
    71   64   42 1    
    72   44   43 ar   
    73   65   43 1    
    74   66   44 1    
@<TRIPOS>SUBSTRUCTURE
     1 NAD1118     1 GROUP   
@<TRIPOS>SET

