#    Name: 1XWK_3_CAVITY_N1_ALL.mol2
#    Modification time : Mon Mar 10 19:35:41 2014

@<TRIPOS>MOLECULE
1XWK_3_CAVITY_N1_ALL.mol2
   80     0     5     0     0
SMALL
NO_CHARGES


@<TRIPOS>ATOM
      1 N          36.9237   10.7197   31.8462 N.2       2 ALA2        0.0000 
      2 N          37.0824   10.0321   33.1698 N.2       2 ALA2        0.0000 
      3 N          37.2410    9.3444   34.4934 N.2       2 ALA2        0.0000 
      4 DU         35.7220    9.8723   31.5500 H         5 CUB7        0.0000 
      5 DU         35.8807    9.1847   32.8736 H         5 CUB7        0.0000 
      6 DU         36.0393    8.4970   34.1972 H         5 CUB7        0.0000 
      7 OG         36.1979    7.8094   35.5208 O.2       1 SER1        0.0000 
      8 DU         34.8376    7.6496   33.9010 H         5 CUB7        0.0000 
      9 OG         34.9962    6.9620   35.2246 O.2       1 SER1        0.0000 
     10 OG         35.1549    6.2743   36.5483 O.2       1 SER1        0.0000 
     11 DU         33.4772    7.4898   32.2812 H         5 CUB7        0.0000 
     12 OG         33.6358    6.8022   33.6048 O.2       1 SER1        0.0000 
     13 OG         33.7945    6.1145   34.9284 O.2       1 SER1        0.0000 
     14 CZ         33.9531    5.4269   36.2520 C.ar      3 PHE5        0.0000 
     15 CZ         32.2755    6.6424   31.9850 C.ar      3 PHE5        0.0000 
     16 CZ         32.4341    5.9548   33.3086 C.ar      3 PHE5        0.0000 
     17 OG         32.5928    5.2671   34.6322 O.2       1 SER1        0.0000 
     18 CZ         31.0737    5.7950   31.6888 C.ar      3 PHE5        0.0000 
     19 N          37.9659    9.0030   32.5293 N.2       2 ALA2        0.0000 
     20 N          38.1246    8.3153   33.8529 N.2       2 ALA2        0.0000 
     21 DU         36.6056    8.8432   30.9094 H         5 CUB7        0.0000 
     22 DU         36.7642    8.1556   32.2331 H         5 CUB7        0.0000 
     23 CA         36.9229    7.4679   33.5567 C.3       4 GLY6        0.0000 
     24 DU         35.5625    7.3081   31.9369 H         5 CUB7        0.0000 
     25 CA         35.7211    6.6205   33.2605 C.3       4 GLY6        0.0000 
     26 CA         35.8798    5.9329   34.5841 C.3       4 GLY6        0.0000 
     27 CA         36.0384    5.2452   35.9077 C.3       4 GLY6        0.0000 
     28 DU         34.3608    6.4607   31.6406 H         5 CUB7        0.0000 
     29 DU         34.5194    5.7731   32.9643 H         5 CUB7        0.0000 
     30 DU         34.6781    5.0854   34.2879 H         5 CUB7        0.0000 
     31 N          34.8367    4.3978   35.6115 N.2       2 ALA2        0.0000 
     32 DU         33.1590    5.6133   31.3444 H         5 CUB7        0.0000 
     33 CA         33.3177    4.9257   32.6681 C.3       4 GLY6        0.0000 
     34 CZ         33.4763    4.2380   33.9917 C.ar      3 PHE5        0.0000 
     35 CZ         33.6350    3.5504   35.3153 C.ar      3 PHE5        0.0000 
     36 DU         31.7987    5.4535   29.7246 H         5 CUB7        0.0000 
     37 DU         31.9573    4.7659   31.0482 H         5 CUB7        0.0000 
     38 CA         32.1160    4.0783   32.3718 C.3       4 GLY6        0.0000 
     39 CA         32.2746    3.3906   33.6955 C.3       4 GLY6        0.0000 
     40 N          38.6909    8.6615   30.5651 N.2       2 ALA2        0.0000 
     41 N          38.8495    7.9739   31.8887 N.2       2 ALA2        0.0000 
     42 CA         37.6478    7.1265   31.5925 C.3       4 GLY6        0.0000 
     43 CA         36.4461    6.2791   31.2963 C.3       4 GLY6        0.0000 
     44 CA         36.6047    5.5914   32.6199 C.3       4 GLY6        0.0000 
     45 CA         36.7633    4.9038   33.9436 C.3       4 GLY6        0.0000 
     46 CA         35.2443    5.4316   31.0001 C.3       4 GLY6        0.0000 
     47 CA         35.4030    4.7440   32.3237 C.3       4 GLY6        0.0000 
     48 CA         35.5616    4.0564   33.6474 C.3       4 GLY6        0.0000 
     49 CA         34.0426    4.5842   30.7039 C.3       4 GLY6        0.0000 
     50 CA         34.3599    3.2089   33.3511 C.3       4 GLY6        0.0000 
     51 CA         32.8409    3.7368   30.4077 C.3       4 GLY6        0.0000 
     52 CA         32.9995    3.0492   31.7313 C.3       4 GLY6        0.0000 
     53 CA         38.5313    6.0974   30.9520 C.3       4 GLY6        0.0000 
     54 O          33.9549   11.9305   32.8310 O.2       2 ALA2        0.0000 
     55 O          34.1135   11.2428   34.1547 O.2       2 ALA2        0.0000 
     56 CA         32.7532   11.0831   32.5348 C.3       4 GLY6        0.0000 
     57 CA         32.9118   10.3954   33.8584 C.3       4 GLY6        0.0000 
     58 OG         33.0704    9.7078   35.1821 O.2       1 SER1        0.0000 
     59 CA         31.5514   10.2357   32.2386 C.3       4 GLY6        0.0000 
     60 CA         31.7101    9.5480   33.5622 C.3       4 GLY6        0.0000 
     61 CA         30.3497    9.3882   31.9424 C.3       4 GLY6        0.0000 
     62 O          35.8815   12.4365   31.1631 O.2       2 ALA2        0.0000 
     63 O          36.0402   11.7488   32.4867 O.2       2 ALA2        0.0000 
     64 O          36.1988   11.0612   33.8103 O.2       2 ALA2        0.0000 
     65 O          36.3575   10.3735   35.1340 O.2       2 ALA2        0.0000 
     66 O          34.6798   11.5890   30.8669 O.2       2 ALA2        0.0000 
     67 O          34.8384   10.9014   32.1905 O.2       2 ALA2        0.0000 
     68 O          34.9971   10.2137   33.5141 O.2       2 ALA2        0.0000 
     69 O          35.1557    9.5261   34.8377 O.2       2 ALA2        0.0000 
     70 OG         35.3144    8.8385   36.1614 O.2       1 SER1        0.0000 
     71 DU         33.6367   10.0540   31.8943 H         5 CUB7        0.0000 
     72 DU         33.7954    9.3663   33.2179 H         5 CUB7        0.0000 
     73 OG         33.9540    8.6787   34.5415 O.2       1 SER1        0.0000 
     74 OG         34.1127    7.9910   35.8652 O.2       1 SER1        0.0000 
     75 CA         34.2713    7.3034   37.1888 C.3       4 GLY6        0.0000 
     76 DU         32.4350    9.2066   31.5981 H         5 CUB7        0.0000 
     77 OG         32.5936    8.5189   32.9217 O.2       1 SER1        0.0000 
     78 OG         32.7523    7.8313   34.2453 O.2       1 SER1        0.0000 
     79 OG         33.0696    6.4560   36.8926 O.2       1 SER1        0.0000 
     80 CZ         31.3919    7.6715   32.6255 C.ar      3 PHE5        0.0000 
@<TRIPOS>BOND
@<TRIPOS>SUBSTRUCTURE
     1 SER1        7 GROUP   
     2 ALA2        1 GROUP   
     3 PHE5       14 GROUP   
     4 GLY6       23 GROUP   
     5 CUB7        4 GROUP   
@<TRIPOS>SET

