#    Name: 1xwk_GDN_3_INTS_M
#    Modification time : Tue Mar 25 10:44:39 2014

@<TRIPOS>MOLECULE
1xwk_GDN_3_INTS_M
   64     0    15     0     0
SMALL
NO_CHARGES


@<TRIPOS>ATOM
      1 OD1        41.5830    5.3250   27.9460 O.co2     3 ASC3        0.0000 
      2 OD1        41.6960    5.6450   29.5180 O.co2    13 ASL3        0.0000 
      3 OD1        41.4700    5.0050   26.3740 O.co2     8 ASP3        0.0000 
      4 OD1        41.6590    6.3800   28.2525 O.co2     3 ASC3        0.0000 
      5 OD1        41.6220    7.1150   26.9870 O.co2     8 ASP3        0.0000 
      6 O          41.5830    5.3250   27.9460 O.2       1 ALC1        0.0000 
      7 O          41.6960    5.6450   29.5180 O.2      11 ALL1        0.0000 
      8 O          41.4700    5.0050   26.3740 O.2       6 ALP1        0.0000 
      9 O          41.6590    6.3800   28.2525 O.2       1 ALC1        0.0000 
     10 O          41.6220    7.1150   26.9870 O.2       6 ALP1        0.0000 
     11 O          43.0645    5.9585   29.2965 O.2       1 ALC1        0.0000 
     12 O          44.4330    6.2720   29.0750 O.2       6 ALP1        0.0000 
     13 CA         43.7000    7.0570   31.1670 C.3       5 GLC5        0.0000 
     14 CA         41.5840    6.7050   30.5240 C.3      15 GLL5        0.0000 
     15 CA         45.8160    7.4090   31.8100 C.3      10 GLP5        0.0000 
     16 N          43.6180    5.5385   32.8835 N.am      2 SEC2        0.0000 
     17 N          42.1240    5.0520   32.1160 N.am     12 SEL2        0.0000 
     18 N          45.1120    6.0250   33.6510 N.am      7 SEP2        0.0000 
     19 N          42.8025    4.3670   33.1040 N.am      2 SEC2        0.0000 
     20 N          43.4810    3.6820   34.0920 N.am      7 SEP2        0.0000 
     21 N          44.0120    6.5495   33.0650 N.am      2 SEC2        0.0000 
     22 N          42.9120    7.0740   32.4790 N.am     12 SEL2        0.0000 
     23 O          39.2905    9.7850   33.3835 O.2       1 ALC1        0.0000 
     24 O          38.2300    9.6580   32.5560 O.2      11 ALL1        0.0000 
     25 O          40.3510    9.9120   34.2110 O.2       6 ALP1        0.0000 
     26 N          35.6600   12.3610   35.0325 N.am      2 SEC2        0.0000 
     27 N          35.9940   12.1470   33.6730 N.am     12 SEL2        0.0000 
     28 N          35.3260   12.5750   36.3920 N.am      7 SEP2        0.0000 
     29 CA         37.5510    9.2315   35.9440 C.3       5 GLC5        0.0000 
     30 CA         36.3410    9.3990   34.0860 C.3      15 GLL5        0.0000 
     31 CA         38.7610    9.0640   37.8020 C.3      10 GLP5        0.0000 
     32 CA         35.8880   10.6165   35.8135 C.3       5 GLC5        0.0000 
     33 CA         35.4350   11.8340   37.5410 C.3      10 GLP5        0.0000 
     34 CA         37.7615    6.6295   34.1980 C.3       5 GLC5        0.0000 
     35 CA         36.2590    7.5790   33.9650 C.3      15 GLL5        0.0000 
     36 CA         39.2640    5.6800   34.4310 C.3      10 GLP5        0.0000 
     37 O          39.0440   11.9610   31.8695 O.2       1 ALC1        0.0000 
     38 O          37.8730   12.2830   32.5030 O.2      11 ALL1        0.0000 
     39 O          40.2150   11.6390   31.2360 O.2       6 ALP1        0.0000 
     40 CA         38.7310   15.4340   33.3570 C.3       5 GLC5        0.0000 
     41 CA         37.9820   13.7300   32.6290 C.3      15 GLL5        0.0000 
     42 CA         39.4800   17.1380   34.0850 C.3      10 GLP5        0.0000 
     43 CA         40.0255   13.7130   32.2040 C.3       5 GLC5        0.0000 
     44 CA         42.0690   13.6960   31.7790 C.3      10 GLP5        0.0000 
     45 CA         38.8690   13.8860   34.2700 C.3       5 GLC5        0.0000 
     46 CA         39.7560   14.0420   35.9110 C.3      10 GLP5        0.0000 
     47 NZ         38.2860   16.3880   30.0475 N.4       4 LYC4        0.0000 
     48 NZ         37.9590   15.6080   31.1700 N.4      14 LYL4        0.0000 
     49 NZ         38.6130   17.1680   28.9250 N.4       9 LYP4        0.0000 
     50 N          38.1045   16.2130   32.3755 N.am      2 SEC2        0.0000 
     51 N          37.9590   15.6080   31.1700 N.am     12 SEL2        0.0000 
     52 N          38.2500   16.8180   33.5810 N.am      7 SEP2        0.0000 
     53 N          38.2860   16.3880   30.0475 N.am      2 SEC2        0.0000 
     54 N          38.6130   17.1680   28.9250 N.am      7 SEP2        0.0000 
     55 NZ         37.9940   15.4135   29.6435 N.4       4 LYC4        0.0000 
     56 NZ         37.3750   13.6590   30.3620 N.4      14 LYL4        0.0000 
     57 CA         35.8580    4.4115   32.3960 C.3       5 GLC5        0.0000 
     58 CA         34.3970    5.5800   33.2770 C.3      15 GLL5        0.0000 
     59 CA         37.3190    3.2430   31.5150 C.3      10 GLP5        0.0000 
     60 CA         34.5320    3.6665   31.9965 C.3       5 GLC5        0.0000 
     61 CA         33.2150    5.1060   32.6680 C.3      15 GLL5        0.0000 
     62 CA         35.8490    2.2270   31.3250 C.3      10 GLP5        0.0000 
     63 CA         39.6478    6.6940   32.7832 C.3       5 GLC5        0.0000 
     64 CA         40.1220    7.0900   30.7160 C.3      15 GLL5        0.0000 
@<TRIPOS>BOND
@<TRIPOS>SUBSTRUCTURE
     1 ALC1        6 GROUP        1 X    ALC  0     ROOT ALC X 1
     2 SEC2       16 GROUP        1 X    SEC  0     **** SEC X 2
     3 ASC3        1 GROUP        1 X    ASC  0     **** ASC X 3
     4 LYC4       47 GROUP        1 X    LYC  0     **** LYC X 4
     5 GLC5       13 GROUP        1 X    GLC  0     **** GLC X 6
     6 ALP1        8 GROUP        1 Y    ALP  0     ROOT ALP Y 8
     7 SEP2       18 GROUP        1 Y    SEP  0     **** SEP Y 9
     8 ASP3        3 GROUP        1 Y    ASP  0     **** ASP Y 10
     9 LYP4       49 GROUP        1 Y    LYP  0     **** LYP Y 11
    10 GLP5       15 GROUP        1 Y    GLP  0     **** GLP Y 13
    11 ALL1        7 GROUP        1 Z    ALL  0     ROOT ALL Z 15
    12 SEL2       17 GROUP        1 Z    SEL  0     **** SEL Z 16
    13 ASL3        2 GROUP        1 Z    ASL  0     **** ASL Z 17
    14 LYL4       48 GROUP        1 Z    LYL  0     **** LYL Z 18
    15 GLL5       14 GROUP        1 Z    GLL  0     **** GLL Z 20
@<TRIPOS>SET

