#    Name: 1xwk_GDN_3_ligand
#    Modification time : Tue Mar 25 10:44:40 2014

@<TRIPOS>MOLECULE
1xwk_GDN_3_ligand
   50    50     1     0     0
SMALL
NO_CHARGES


@<TRIPOS>ATOM
      1 N1         41.6960    5.6450   29.5180 N.4       1 GDN220      0.0000 
      2 CA1        41.5840    6.7050   30.5240 C.3       1 GDN220      0.0000 
      3 C1         42.2550    6.2500   31.7960 C.2       1 GDN220      0.0000 
      4 O11        42.1240    5.0520   32.1160 O.co2     1 GDN220      0.0000 
      5 O12        42.9120    7.0740   32.4790 O.co2     1 GDN220      0.0000 
      6 CB1        40.1220    7.0900   30.7160 C.3       1 GDN220      0.0000 
      7 CG1        39.9410    8.3260   31.5550 C.3       1 GDN220      0.0000 
      8 CD1        38.4890    8.6540   31.7400 C.2       1 GDN220      0.0000 
      9 OE1        37.6250    8.0170   31.1610 O.2       1 GDN220      0.0000 
     10 N2         38.2300    9.6580   32.5560 N.am      1 GDN220      0.0000 
     11 CA2        36.8790   10.0990   32.8380 C.3       1 GDN220      0.0000 
     12 C2         36.8760   11.6050   33.0400 C.2       1 GDN220      0.0000 
     13 O2         35.9940   12.1470   33.6730 O.2       1 GDN220      0.0000 
     14 CB2        36.3410    9.3990   34.0860 C.3       1 GDN220      0.0000 
     15 SG2        36.2590    7.5790   33.9650 S.3       1 GDN220      0.0000 
     16 N3         37.8730   12.2830   32.5030 N.am      1 GDN220      0.0000 
     17 CA3        37.9820   13.7300   32.6290 C.3       1 GDN220      0.0000 
     18 C3         37.7560   14.3830   31.2950 C.2       1 GDN220      0.0000 
     19 O31        37.9590   15.6080   31.1700 O.co2     1 GDN220      0.0000 
     20 O32        37.3750   13.6590   30.3620 O.co2     1 GDN220      0.0000 
     21 C1'        34.7220    6.9600   33.2240 C.ar      1 GDN220      0.0000 
     22 C2'        34.3970    5.5800   33.2770 C.ar      1 GDN220      0.0000 
     23 C3'        33.2150    5.1060   32.6680 C.ar      1 GDN220      0.0000 
     24 C4'        32.3450    5.9940   32.0090 C.ar      1 GDN220      0.0000 
     25 C5'        32.6580    7.3740   31.9560 C.ar      1 GDN220      0.0000 
     26 C6'        33.8420    7.8540   32.5610 C.ar      1 GDN220      0.0000 
     27 N2'        35.2900    4.6410   33.9560 N.pl3     1 GDN220      0.0000 
     28 O2A        35.1220    3.4440   33.8180 O.2       1 GDN220      0.0000 
     29 O2B        36.1860    5.0500   34.6480 O.2       1 GDN220      0.0000 
     30 N4'        31.1370    5.4920   31.3810 N.pl3     1 GDN220      0.0000 
     31 O4A        30.3780    6.2230   30.7740 O.2       1 GDN220      0.0000 
     32 O4B        30.8910    4.2970   31.4640 O.2       1 GDN220      0.0000 
     33 H          42.1185    7.5901   30.1560 H         1 GDN220      0.0000 
     34 H          39.5927    6.2459   31.1861 H         1 GDN220      0.0000 
     35 H          39.6647    7.2474   29.7261 H         1 GDN220      0.0000 
     36 H          40.4482    9.1698   31.0716 H         1 GDN220      0.0000 
     37 H          40.4089    8.1709   32.5347 H         1 GDN220      0.0000 
     38 H          38.9901   10.1902   33.0440 H         1 GDN220      0.0000 
     39 H          36.2239    9.8672   32.0110 H         1 GDN220      0.0000 
     40 H          35.3160    9.6547   34.3154 H         1 GDN220      0.0000 
     41 H          36.9626    9.5377   34.9596 H         1 GDN220      0.0000 
     42 H          38.6372   11.8206   31.9593 H         1 GDN220      0.0000 
     43 H          38.9758   14.0123   32.9968 H         1 GDN220      0.0000 
     44 H          37.2403   14.1131   33.3402 H         1 GDN220      0.0000 
     45 H          32.9904    4.1059   32.7073 H         1 GDN220      0.0000 
     46 H          32.0283    8.0210   31.4809 H         1 GDN220      0.0000 
     47 H          34.0675    8.8504   32.5219 H         1 GDN220      0.0000 
     48 H          42.6501    5.4284   29.3114 H         1 GDN220      0.0000 
     49 H          41.2621    4.7969   29.8222 H         1 GDN220      0.0000 
     50 H          41.2609    5.9039   28.6557 H         1 GDN220      0.0000 
@<TRIPOS>BOND
     1    2    1 1    
     2   48    1 1    
     3   49    1 1    
     4   50    1 1    
     5    3    2 1    
     6    6    2 1    
     7   33    2 1    
     8    4    3 ar   
     9    5    3 ar   
    10    7    6 1    
    11   34    6 1    
    12   35    6 1    
    13    8    7 1    
    14   36    7 1    
    15   37    7 1    
    16    9    8 2    
    17   10    8 am   
    18   11   10 1    
    19   38   10 1    
    20   12   11 1    
    21   14   11 1    
    22   39   11 1    
    23   13   12 2    
    24   16   12 am   
    25   15   14 1    
    26   40   14 1    
    27   41   14 1    
    28   21   15 1    
    29   17   16 1    
    30   42   16 1    
    31   18   17 1    
    32   43   17 1    
    33   44   17 1    
    34   19   18 ar   
    35   20   18 ar   
    36   22   21 ar   
    37   26   21 ar   
    38   23   22 ar   
    39   27   22 1    
    40   24   23 ar   
    41   45   23 1    
    42   25   24 ar   
    43   30   24 1    
    44   26   25 ar   
    45   46   25 1    
    46   47   26 1    
    47   28   27 2    
    48   29   27 2    
    49   31   30 2    
    50   32   30 2    
@<TRIPOS>SUBSTRUCTURE
     1 GDN220      1 GROUP   
@<TRIPOS>SET

