#    Name: 2ank_N12_1_INTS_M
#    Modification time : Mon Mar 24 19:30:18 2014

@<TRIPOS>MOLECULE
2ank_N12_1_INTS_M
   72     0     9     0     0
SMALL
NO_CHARGES


@<TRIPOS>ATOM
      1 CA         17.5975   19.5705   26.3515 C.3       3 GLC5        0.0000 
      2 CA         18.1370   18.1140   24.9350 C.3       9 GLL5        0.0000 
      3 CA         17.0580   21.0270   27.7680 C.3       6 GLP5        0.0000 
      4 CA         18.3740   20.7380   24.8230 C.3       3 GLC5        0.0000 
      5 CA         19.4500   18.9000   24.8050 C.3       9 GLL5        0.0000 
      6 CA         17.2980   22.5760   24.8410 C.3       6 GLP5        0.0000 
      7 CA         20.0285   18.6715   28.2025 C.3       3 GLC5        0.0000 
      8 CA         19.8770   19.4160   26.1920 C.3       9 GLL5        0.0000 
      9 CA         20.1800   17.9270   30.2130 C.3       6 GLP5        0.0000 
     10 CA         18.4675   20.2215   26.9800 C.3       3 GLC5        0.0000 
     11 CA         21.8600   22.1295   25.5405 C.3       3 GLC5        0.0000 
     12 CA         21.1920   20.2370   26.0830 C.3       9 GLL5        0.0000 
     13 CA         22.5280   24.0220   24.9980 C.3       6 GLP5        0.0000 
     14 CA         19.4620   21.2185   26.7465 C.3       3 GLC5        0.0000 
     15 CA         17.7320   22.2000   27.4100 C.3       6 GLP5        0.0000 
     16 N          15.5435   20.6625   24.2460 N.am      2 SEC2        0.0000 
     17 N          16.4490   19.8960   23.1660 N.am      8 SEL2        0.0000 
     18 N          14.6380   21.4290   25.3260 N.am      5 SEP2        0.0000 
     19 CA         12.7735   21.6715   18.7405 C.3       3 GLC5        0.0000 
     20 CA         14.4630   22.3080   20.0380 C.3       9 GLL5        0.0000 
     21 CA         11.0840   21.0350   17.4430 C.3       6 GLP5        0.0000 
     22 CA         14.8820   24.1430   18.8870 C.3       3 GLC5        0.0000 
     23 CA         15.3010   25.9780   17.7360 C.3       6 GLP5        0.0000 
     24 CA         10.2800   20.0145   22.0885 C.3       3 GLC5        0.0000 
     25 CA         12.0350   21.0080   22.7180 C.3       9 GLL5        0.0000 
     26 CA          8.5250   19.0210   21.4590 C.3       6 GLP5        0.0000 
     27 CA         13.8575   22.7390   23.9540 C.3       3 GLC5        0.0000 
     28 CA         11.7570   22.2250   23.3930 C.3       9 GLL5        0.0000 
     29 CA         15.9580   23.2530   24.5150 C.3       6 GLP5        0.0000 
     30 CA         12.8050   25.2780   21.8600 C.3       3 GLC5        0.0000 
     31 CA         13.1990   23.4190   21.9440 C.3       9 GLL5        0.0000 
     32 CA         12.4110   27.1370   21.7760 C.3       6 GLP5        0.0000 
     33 N          12.4645   16.3560   23.5885 N.am      2 SEC2        0.0000 
     34 N          13.2890   16.3120   22.1890 N.am      8 SEL2        0.0000 
     35 N          11.6400   16.4000   24.9880 N.am      5 SEP2        0.0000 
     36 N          12.8045   15.8980   24.4865 N.am      2 SEC2        0.0000 
     37 N          13.9690   15.3960   23.9850 N.am      8 SEL2        0.0000 
     38 CA          9.8945   24.0480   23.6055 C.3       3 GLC5        0.0000 
     39 CA         10.8210   22.2580   24.5630 C.3       9 GLL5        0.0000 
     40 CA          8.9680   25.8380   22.6480 C.3       6 GLP5        0.0000 
     41 CA         10.9765   23.2345   26.4035 C.3       3 GLC5        0.0000 
     42 CA         11.1320   24.2110   28.2440 C.3       6 GLP5        0.0000 
     43 O           9.2685   23.6345   25.6610 O.2       1 ALC1        0.0000 
     44 O          10.5980   23.4010   25.2030 O.2       7 ALL1        0.0000 
     45 O           7.9390   23.8680   26.1190 O.2       4 ALP1        0.0000 
     46 O           9.0150   21.4245   25.4290 O.2       1 ALC1        0.0000 
     47 O          10.1970   21.1550   24.9740 O.2       7 ALL1        0.0000 
     48 O           7.8330   21.6940   25.8840 O.2       4 ALP1        0.0000 
     49 O          10.1985   19.7770   24.5695 O.2       1 ALC1        0.0000 
     50 O          10.2000   18.3990   24.1650 O.2       4 ALP1        0.0000 
     51 CA         17.9295   22.0955   23.0580 C.3       3 GLC5        0.0000 
     52 CA         18.5610   21.6150   21.2750 C.3       9 GLL5        0.0000 
     53 CA         21.5595   19.6465   18.9915 C.3       3 GLC5        0.0000 
     54 CA         20.0040   20.7250   19.5310 C.3       9 GLL5        0.0000 
     55 CA         23.1150   18.5680   18.4520 C.3       6 GLP5        0.0000 
     56 CA         22.0795   20.7035   20.4925 C.3       3 GLC5        0.0000 
     57 CA         20.0490   21.3060   20.9710 C.3       9 GLL5        0.0000 
     58 CA         24.1100   20.1010   20.0140 C.3       6 GLP5        0.0000 
     59 CA         23.0445   20.7600   27.0147 C.3       3 GLC5        0.0000 
     60 CA         24.3330   21.7080   28.2660 C.3       6 GLP5        0.0000 
     61 CA         14.6588   23.0435   23.0498 C.3       3 GLC5        0.0000 
     62 CA         13.5200   22.2490   21.2250 C.3       9 GLL5        0.0000 
     63 CA         10.4975   21.8906   21.5568 C.3       3 GLC5        0.0000 
     64 CA          8.8780   22.1600   20.3340 C.3       6 GLP5        0.0000 
     65 CA         12.5153   21.3441   24.9836 C.3       3 GLC5        0.0000 
     66 CA         13.6720   20.7510   26.1580 C.3       6 GLP5        0.0000 
     67 CA         19.0708   18.9263   18.1958 C.3       3 GLC5        0.0000 
     68 CA         18.8380   17.4460   16.9340 C.3       6 GLP5        0.0000 
     69 CA         20.0920   22.6107   22.1425 C.3       3 GLC5        0.0000 
     70 CA         20.8790   23.7610   23.1620 C.3       6 GLP5        0.0000 
     71 CA         19.2426   22.6557   19.3556 C.3       3 GLC5        0.0000 
     72 CA         19.1810   24.3780   18.4210 C.3       6 GLP5        0.0000 
@<TRIPOS>BOND
@<TRIPOS>SUBSTRUCTURE
     1 ALC1       43 GROUP        1 X    ALC  0     ROOT ALC X 1
     2 SEC2       16 GROUP        1 X    SEC  0     **** SEC X 2
     3 GLC5        1 GROUP        1 X    GLC  0     **** GLC X 6
     4 ALP1       45 GROUP        1 Y    ALP  0     ROOT ALP Y 8
     5 SEP2       18 GROUP        1 Y    SEP  0     **** SEP Y 9
     6 GLP5        3 GROUP        1 Y    GLP  0     **** GLP Y 13
     7 ALL1       44 GROUP        1 Z    ALL  0     ROOT ALL Z 15
     8 SEL2       17 GROUP        1 Z    SEL  0     **** SEL Z 16
     9 GLL5        2 GROUP        1 Z    GLL  0     **** GLL Z 20
@<TRIPOS>SET

