#    Name: 2ank_N12_1_ligand
#    Modification time : Mon Mar 24 19:30:18 2014

@<TRIPOS>MOLECULE
2ank_N12_1_ligand
   69    71     1     0     0
SMALL
NO_CHARGES


@<TRIPOS>ATOM
      1 C1         14.2050   16.0150   22.9550 C.2       1 N12501      0.0000 
      2 C2         15.6210   16.4000   22.6200 C.3       1 N12501      0.0000 
      3 N3         16.2270   17.1140   23.7480 N.4       1 N12501      0.0000 
      4 C4         17.5010   17.8040   23.5530 C.3       1 N12501      0.0000 
      5 C5         17.2490   19.0670   22.7610 C.2       1 N12501      0.0000 
      6 C6         18.1370   18.1140   24.9350 C.3       1 N12501      0.0000 
      7 C7         19.4500   18.9000   24.8050 C.3       1 N12501      0.0000 
      8 C8         19.8770   19.4160   26.1920 C.3       1 N12501      0.0000 
      9 C9         21.1920   20.2370   26.0830 C.3       1 N12501      0.0000 
     10 C10        22.3200   19.3870   25.4440 C.3       1 N12501      0.0000 
     11 C11        21.8720   18.8160   24.0710 C.3       1 N12501      0.0000 
     12 C12        20.5700   17.9930   24.2290 C.3       1 N12501      0.0000 
     13 O13        16.4490   19.8960   23.1660 O.2       1 N12501      0.0000 
     14 N14        17.9380   19.2330   21.5890 N.am      1 N12501      0.0000 
     15 C15        17.8250   20.3980   20.6730 C.3       1 N12501      0.0000 
     16 C16        16.3630   20.7120   20.3240 C.2       1 N12501      0.0000 
     17 O17        15.6270   19.7970   19.9730 O.2       1 N12501      0.0000 
     18 N18        15.8720   21.9950   20.3940 N.am      1 N12501      0.0000 
     19 C19        14.4630   22.3080   20.0380 C.3       1 N12501      0.0000 
     20 C20        13.5200   22.2490   21.2250 C.ar      1 N12501      0.0000 
     21 C21        12.9190   21.0270   21.6140 C.ar      1 N12501      0.0000 
     22 C22        12.0350   21.0080   22.7180 C.ar      1 N12501      0.0000 
     23 C23        11.7570   22.2250   23.3930 C.ar      1 N12501      0.0000 
     24 N24        12.3570   23.3690   22.9890 N.ar      1 N12501      0.0000 
     25 C25        13.1990   23.4190   21.9440 C.ar      1 N12501      0.0000 
     26 O26        13.2890   16.3120   22.1890 O.co2     1 N12501      0.0000 
     27 O27        13.9690   15.3960   23.9850 O.co2     1 N12501      0.0000 
     28 C28        10.8210   22.2580   24.5630 C.2       1 N12501      0.0000 
     29 N29        10.5980   23.4010   25.2030 N.pl3     1 N12501      0.0000 
     30 N30        10.1970   21.1550   24.9740 N.pl3     1 N12501      0.0000 
     31 C31        18.6030   20.0880   19.3840 C.3       1 N12501      0.0000 
     32 C32        18.5610   21.6150   21.2750 C.3       1 N12501      0.0000 
     33 C33        20.0040   20.7250   19.5310 C.3       1 N12501      0.0000 
     34 C34        20.0490   21.3060   20.9710 C.3       1 N12501      0.0000 
     35 H          15.6146   17.0318   21.7259 H         1 N12501      0.0000 
     36 H          16.1901   15.4933   22.3906 H         1 N12501      0.0000 
     37 H          18.1824   17.1749   23.0058 H         1 N12501      0.0000 
     38 H          18.3296   17.1718   25.4500 H         1 N12501      0.0000 
     39 H          17.4257   18.6941   25.5245 H         1 N12501      0.0000 
     40 H          19.3061   19.7303   24.1534 H         1 N12501      0.0000 
     41 H          20.0429   18.5752   26.8536 H         1 N12501      0.0000 
     42 H          19.0992   20.0524   26.5946 H         1 N12501      0.0000 
     43 H          21.4983   20.5456   27.0752 H         1 N12501      0.0000 
     44 H          21.0126   21.1100   25.4672 H         1 N12501      0.0000 
     45 H          22.5631   18.5643   26.1061 H         1 N12501      0.0000 
     46 H          23.1950   20.0097   25.2989 H         1 N12501      0.0000 
     47 H          22.6530   18.1758   23.6834 H         1 N12501      0.0000 
     48 H          21.6940   19.6364   23.3889 H         1 N12501      0.0000 
     49 H          20.2635   17.6229   23.2637 H         1 N12501      0.0000 
     50 H          20.7465   17.1747   24.9086 H         1 N12501      0.0000 
     51 H          18.6221   18.4912   21.2681 H         1 N12501      0.0000 
     52 H          16.4535   22.7866   20.6931 H         1 N12501      0.0000 
     53 H          14.1054   21.6006   19.2686 H         1 N12501      0.0000 
     54 H          14.4050   23.3169   19.5920 H         1 N12501      0.0000 
     55 H          13.1216   20.1720   21.1041 H         1 N12501      0.0000 
     56 H          11.6076   20.1437   23.0226 H         1 N12501      0.0000 
     57 H          13.6324   24.3110   21.6397 H         1 N12501      0.0000 
     58 H          11.0540   24.2097   24.8313 H         1 N12501      0.0000 
     59 H           9.9944   23.3493   25.9986 H         1 N12501      0.0000 
     60 H          10.3713   20.3266   24.4417 H         1 N12501      0.0000 
     61 H           9.6105   21.2548   25.7778 H         1 N12501      0.0000 
     62 H          18.1011   20.5271   18.5464 H         1 N12501      0.0000 
     63 H          18.7065   19.0282   19.2722 H         1 N12501      0.0000 
     64 H          18.4125   21.6413   22.3168 H         1 N12501      0.0000 
     65 H          18.2728   22.4916   20.7685 H         1 N12501      0.0000 
     66 H          20.1124   21.5152   18.8293 H         1 N12501      0.0000 
     67 H          20.7496   19.9750   19.4308 H         1 N12501      0.0000 
     68 H          20.4012   20.5702   21.6364 H         1 N12501      0.0000 
     69 H          20.6041   22.2005   20.9722 H         1 N12501      0.0000 
@<TRIPOS>BOND
     1    2    1 1    
     2   26    1 ar   
     3   27    1 ar   
     4    3    2 1    
     5   35    2 1    
     6   36    2 1    
     7    4    3 1    
     8    5    4 1    
     9    6    4 1    
    10   37    4 1    
    11   13    5 2    
    12   14    5 am   
    13    7    6 1    
    14   38    6 1    
    15   39    6 1    
    16    8    7 1    
    17   12    7 1    
    18   40    7 1    
    19    9    8 1    
    20   41    8 1    
    21   42    8 1    
    22   10    9 1    
    23   43    9 1    
    24   44    9 1    
    25   11   10 1    
    26   45   10 1    
    27   46   10 1    
    28   12   11 1    
    29   47   11 1    
    30   48   11 1    
    31   49   12 1    
    32   50   12 1    
    33   15   14 1    
    34   51   14 1    
    35   16   15 1    
    36   31   15 1    
    37   32   15 1    
    38   17   16 2    
    39   18   16 am   
    40   19   18 1    
    41   52   18 1    
    42   20   19 1    
    43   53   19 1    
    44   54   19 1    
    45   21   20 ar   
    46   25   20 ar   
    47   22   21 ar   
    48   55   21 1    
    49   23   22 ar   
    50   56   22 1    
    51   24   23 ar   
    52   28   23 1    
    53   25   24 ar   
    54   57   25 1    
    55   29   28 2    
    56   30   28 1    
    57   58   29 1    
    58   59   29 1    
    59   60   30 1    
    60   61   30 1    
    61   33   31 1    
    62   62   31 1    
    63   63   31 1    
    64   34   32 1    
    65   64   32 1    
    66   65   32 1    
    67   34   33 1    
    68   66   33 1    
    69   67   33 1    
    70   68   34 1    
    71   69   34 1    
@<TRIPOS>SUBSTRUCTURE
     1 N12501      1 GROUP   
@<TRIPOS>SET

