#    Name: 2G77_1_CAVITY_N1_ALL.mol2
#    Modification time : Mon Mar 10 14:05:31 2014

@<TRIPOS>MOLECULE
2G77_1_CAVITY_N1_ALL.mol2
   69     0     6     0     0
SMALL
NO_CHARGES


@<TRIPOS>ATOM
      1 OD1        19.9635   44.4765   20.5940 O.3       3 ASP3        0.0000 
      2 CA         22.5194   42.5129   19.6657 C.3       5 GLY6        0.0000 
      3 CA         21.0687   42.8904   19.7206 C.3       5 GLY6        0.0000 
      4 CA         19.6180   43.2679   19.7755 C.3       5 GLY6        0.0000 
      5 CA         20.7232   41.6818   18.9021 C.3       5 GLY6        0.0000 
      6 CZ         19.2726   42.0593   18.9571 C.ar      4 PHE5        0.0000 
      7 CA         20.3778   40.4732   18.0837 C.3       5 GLY6        0.0000 
      8 CZ         18.9271   40.8507   18.1386 C.ar      4 PHE5        0.0000 
      9 DU         21.2525   43.2948   21.7949 H         6 CUB7        0.0000 
     10 DU         19.8018   43.6723   21.8498 H         6 CUB7        0.0000 
     11 OD1        22.3577   41.7087   20.9215 O.3       3 ASP3        0.0000 
     12 CA         20.9070   42.0862   20.9764 C.3       5 GLY6        0.0000 
     13 DU         19.4563   42.4637   21.0313 H         6 CUB7        0.0000 
     14 CZ         18.0056   42.8412   21.0863 C.ar      4 PHE5        0.0000 
     15 CA         20.5615   40.8776   20.1580 C.3       5 GLY6        0.0000 
     16 CZ         19.1108   41.2551   20.2129 C.ar      4 PHE5        0.0000 
     17 CA         20.2160   39.6690   19.3395 C.3       5 GLY6        0.0000 
     18 CZ         18.7654   40.0465   19.3944 C.ar      4 PHE5        0.0000 
     19 DU         21.0907   42.4906   23.0507 H         6 CUB7        0.0000 
     20 DU         18.1894   43.2455   23.1606 H         6 CUB7        0.0000 
     21 OD1        22.1960   40.9045   22.1773 O.3       3 ASP3        0.0000 
     22 DU         20.7453   41.2820   22.2322 H         6 CUB7        0.0000 
     23 DU         19.2946   41.6594   22.2872 H         6 CUB7        0.0000 
     24 CZ         17.8439   42.0369   22.3421 C.ar      4 PHE5        0.0000 
     25 CZ         16.3932   42.4144   22.3970 C.ar      4 PHE5        0.0000 
     26 OD1        21.8505   39.6959   21.3589 O.3       3 ASP3        0.0000 
     27 CA         20.3998   40.0734   21.4138 C.3       5 GLY6        0.0000 
     28 CA         18.9491   40.4508   21.4687 C.3       5 GLY6        0.0000 
     29 CZ         17.4984   40.8283   21.5236 C.ar      4 PHE5        0.0000 
     30 CA         21.5050   38.4873   20.5404 C.3       5 GLY6        0.0000 
     31 CA         20.0543   38.8648   20.5953 C.3       5 GLY6        0.0000 
     32 CA         18.6036   39.2422   20.6502 C.3       5 GLY6        0.0000 
     33 N          22.3797   41.3089   24.2516 N.2       2 ALA2        0.0000 
     34 DU         20.9290   41.6864   24.3065 H         6 CUB7        0.0000 
     35 DU         19.4783   42.0638   24.3615 H         6 CUB7        0.0000 
     36 N          18.0276   42.4413   24.4164 N.2       2 ALA2        0.0000 
     37 N          16.5769   42.8188   24.4713 N.2       2 ALA2        0.0000 
     38 N          22.0342   40.1003   23.4332 N.2       2 ALA2        0.0000 
     39 N          20.5835   40.4777   23.4881 N.2       2 ALA2        0.0000 
     40 DU         19.1329   40.8552   23.5430 H         6 CUB7        0.0000 
     41 DU         17.6822   41.2327   23.5979 H         6 CUB7        0.0000 
     42 N          16.2315   41.6102   23.6528 N.2       2 ALA2        0.0000 
     43 N          21.6888   38.8917   22.6147 N.2       2 ALA2        0.0000 
     44 N          20.2381   39.2691   22.6696 N.2       2 ALA2        0.0000 
     45 OG         18.7874   39.6466   22.7245 O.2       1 SER1        0.0000 
     46 CA         17.3367   40.0241   22.7794 C.3       5 GLY6        0.0000 
     47 N          21.3433   37.6830   21.7962 N.2       2 ALA2        0.0000 
     48 CA         19.8926   38.0605   21.8511 C.3       5 GLY6        0.0000 
     49 CA         18.4419   38.4380   21.9060 C.3       5 GLY6        0.0000 
     50 CA         19.5471   36.8519   21.0326 C.3       5 GLY6        0.0000 
     51 CA         20.7673   40.8821   25.5624 C.3       5 GLY6        0.0000 
     52 CA         19.3166   41.2596   25.6173 C.3       5 GLY6        0.0000 
     53 N          17.8659   41.6371   25.6722 N.2       2 ALA2        0.0000 
     54 CA         20.4218   39.6735   24.7439 C.3       5 GLY6        0.0000 
     55 OG         18.9711   40.0510   24.7988 O.2       1 SER1        0.0000 
     56 OG         17.5204   40.4285   24.8537 O.2       1 SER1        0.0000 
     57 CA         20.0763   38.4649   23.9254 C.3       5 GLY6        0.0000 
     58 N          21.1816   36.8788   23.0520 N.2       2 ALA2        0.0000 
     59 OG         19.7309   37.2563   23.1069 O.2       1 SER1        0.0000 
     60 O          20.8361   35.6702   22.2335 O.2       2 ALA2        0.0000 
     61 CA         19.3854   36.0477   22.2884 C.3       5 GLY6        0.0000 
     62 CA         17.9347   36.4252   22.3433 C.3       5 GLY6        0.0000 
     63 CA         20.4906   34.4616   21.4150 C.3       5 GLY6        0.0000 
     64 O          19.0399   34.8391   21.4700 O.2       2 ALA2        0.0000 
     65 O          19.5691   36.4521   24.3627 O.2       2 ALA2        0.0000 
     66 O          20.6744   34.8660   23.4893 O.2       2 ALA2        0.0000 
     67 O          19.2237   35.2435   23.5443 O.2       2 ALA2        0.0000 
     68 OD1        20.3289   33.6574   22.6709 O.3       3 ASP3        0.0000 
     69 OD1        18.8782   34.0349   22.7258 O.3       3 ASP3        0.0000 
@<TRIPOS>BOND
@<TRIPOS>SUBSTRUCTURE
     1 SER1       45 GROUP   
     2 ALA2       33 GROUP   
     3 ASP3        1 GROUP   
     4 PHE5        6 GROUP   
     5 GLY6        2 GROUP   
     6 CUB7        9 GROUP   
@<TRIPOS>SET

