#    Name: 2g77_GDP_1_INTS_M
#    Modification time : Tue Mar 25 13:39:13 2014

@<TRIPOS>MOLECULE
2g77_GDP_1_INTS_M
   74     0    15     0     0
SMALL
NO_CHARGES


@<TRIPOS>ATOM
      1 NZ         22.7340   32.0100   22.6660 N.4       3 LYC4        0.0000 
      2 NZ         22.1260   33.3430   23.8170 N.4      13 LYL4        0.0000 
      3 NZ         23.3420   30.6770   21.5150 N.4       8 LYP4        0.0000 
      4 N          21.7250   34.2890   24.8885 N.am      2 SEC2        0.0000 
      5 N          22.1260   33.3430   23.8170 N.am     12 SEL2        0.0000 
      6 N          21.3240   35.2350   25.9600 N.am      7 SEP2        0.0000 
      7 N          23.3630   33.8940   23.5550 N.am      2 SEC2        0.0000 
      8 N          24.6000   34.4450   23.2930 N.am      7 SEP2        0.0000 
      9 NZ         22.6425   31.8530   21.4550 N.4       3 LYC4        0.0000 
     10 NZ         21.9430   33.0290   21.3950 N.4      13 LYL4        0.0000 
     11 N          22.0175   34.1595   20.3960 N.am      2 SEC2        0.0000 
     12 N          21.9430   33.0290   21.3950 N.am     12 SEL2        0.0000 
     13 N          22.0920   35.2900   19.3970 N.am      7 SEP2        0.0000 
     14 N          21.1585   33.0870   20.2680 N.am      2 SEC2        0.0000 
     15 N          20.3740   33.1450   19.1410 N.am      7 SEP2        0.0000 
     16 N          22.6425   31.8530   21.4550 N.am      2 SEC2        0.0000 
     17 N          23.3420   30.6770   21.5150 N.am      7 SEP2        0.0000 
     18 Zn         19.3440   32.3345   23.3550 Zn        4 ZIC7        0.0000 
     19 Zn         19.8610   33.0100   22.6720 Zn       14 ZIL7        0.0000 
     20 Zn         18.8270   31.6590   24.0380 Zn        9 ZIP7        0.0000 
     21 N          18.8785   32.7820   21.5210 N.am      2 SEC2        0.0000 
     22 N          19.8610   33.0100   22.6720 N.am     12 SEL2        0.0000 
     23 N          17.8960   32.5540   20.3700 N.am      7 SEP2        0.0000 
     24 N          20.1720   35.4820   24.9725 N.am      2 SEC2        0.0000 
     25 N          19.0200   35.7290   23.9850 N.am     12 SEL2        0.0000 
     26 N          18.0480   36.5670   24.5345 N.am      2 SEC2        0.0000 
     27 N          17.0760   37.4050   25.0840 N.am      7 SEP2        0.0000 
     28 N          18.2300   33.9580   21.0070 N.am      2 SEC2        0.0000 
     29 N          18.5640   35.3620   21.6440 N.am     12 SEL2        0.0000 
     30 N          17.3925   35.0425   20.7500 N.am      2 SEC2        0.0000 
     31 N          16.2210   34.7230   19.8560 N.am      7 SEP2        0.0000 
     32 CA         20.5895   37.7295   25.0395 C.3       5 GLC5        0.0000 
     33 CA         21.0840   37.9430   22.9950 C.3      15 GLL5        0.0000 
     34 CA         20.0950   37.5160   27.0840 C.3      10 GLP5        0.0000 
     35 CA         22.7165   36.8995   22.9980 C.3       5 GLC5        0.0000 
     36 CA         24.3490   35.8560   23.0010 C.3      10 GLP5        0.0000 
     37 CA         22.1770   39.6125   20.9030 C.3       5 GLC5        0.0000 
     38 CA         21.0750   39.4700   22.8470 C.3      15 GLL5        0.0000 
     39 CA         23.2790   39.7550   18.9590 C.3      10 GLP5        0.0000 
     40 N          22.7090   39.8715   20.8140 N.am      2 SEC2        0.0000 
     41 N          21.2410   39.8770   21.4520 N.am     12 SEL2        0.0000 
     42 N          24.1770   39.8660   20.1760 N.am      7 SEP2        0.0000 
     43 CA         17.6875   39.0225   21.2365 C.3       5 GLC5        0.0000 
     44 CA         18.9370   40.1760   22.0010 C.3      15 GLL5        0.0000 
     45 CA         16.4380   37.8690   20.4720 C.3      10 GLP5        0.0000 
     46 CA         17.4035   40.7570   20.6755 C.3       5 GLC5        0.0000 
     47 CA         15.8700   41.3380   19.3500 C.3      10 GLP5        0.0000 
     48 O          17.0540   40.7325   22.8385 O.2       1 ALC1        0.0000 
     49 O          18.0160   41.2670   22.0900 O.2      11 ALL1        0.0000 
     50 O          16.0920   40.1980   23.5870 O.2       6 ALP1        0.0000 
     51 CA         21.6595   40.1550   19.9945 C.3       5 GLC5        0.0000 
     52 CA         20.0400   40.5550   21.0300 C.3      15 GLL5        0.0000 
     53 N          19.9340   38.3330   16.7555 N.am      2 SEC2        0.0000 
     54 N          19.2010   39.2730   17.7340 N.am     12 SEL2        0.0000 
     55 N          20.6670   37.3930   15.7770 N.am      7 SEP2        0.0000 
     56 CA         21.2875   40.4015   16.9400 C.3       5 GLC5        0.0000 
     57 CA         19.5270   40.5430   17.4040 C.3      15 GLL5        0.0000 
     58 CA         23.0480   40.2600   16.4760 C.3      10 GLP5        0.0000 
     59 N          19.1085   41.7695   13.9020 N.am      2 SEC2        0.0000 
     60 N          19.3890   40.9120   15.0030 N.am     12 SEL2        0.0000 
     61 N          18.8280   42.6270   12.8010 N.am      7 SEP2        0.0000 
     62 N          17.8450   41.0425   14.9030 N.am      2 SEC2        0.0000 
     63 N          16.3010   41.1730   14.8030 N.am      7 SEP2        0.0000 
     64 O          20.2935   43.2595   15.0005 O.2       1 ALC1        0.0000 
     65 O          20.0380   42.6200   16.2910 O.2      11 ALL1        0.0000 
     66 O          20.5490   43.8990   13.7100 O.2       6 ALP1        0.0000 
     67 O          19.9755   44.1175   15.5535 O.2       1 ALC1        0.0000 
     68 O          19.9130   45.6150   14.8160 O.2       6 ALP1        0.0000 
     69 O          20.3340   45.0320   16.1405 O.2       1 ALC1        0.0000 
     70 O          20.7550   44.4490   17.4650 O.2      11 ALL1        0.0000 
     71 CA         21.5900   40.4600   18.8070 C.3       5 GLC5        0.0000 
     72 CA         19.9010   41.1650   18.6550 C.3      15 GLL5        0.0000 
     73 CA         18.1935   41.9610   17.1337 C.3       5 GLC5        0.0000 
     74 CA         16.6730   43.0680   16.2380 C.3      10 GLP5        0.0000 
@<TRIPOS>BOND
@<TRIPOS>SUBSTRUCTURE
     1 ALC1       48 GROUP        1 X    ALC  0     ROOT ALC X 1
     2 SEC2        4 GROUP        1 X    SEC  0     **** SEC X 2
     3 LYC4        1 GROUP        1 X    LYC  0     **** LYC X 4
     4 ZIC7       18 GROUP        1 X    ZIC  0     **** ZIC X 5
     5 GLC5       32 GROUP        1 X    GLC  0     **** GLC X 6
     6 ALP1       50 GROUP        1 Y    ALP  0     ROOT ALP Y 8
     7 SEP2        6 GROUP        1 Y    SEP  0     **** SEP Y 9
     8 LYP4        3 GROUP        1 Y    LYP  0     **** LYP Y 11
     9 ZIP7       20 GROUP        1 Y    ZIP  0     **** ZIP Y 12
    10 GLP5       34 GROUP        1 Y    GLP  0     **** GLP Y 13
    11 ALL1       49 GROUP        1 Z    ALL  0     ROOT ALL Z 15
    12 SEL2        5 GROUP        1 Z    SEL  0     **** SEL Z 16
    13 LYL4        2 GROUP        1 Z    LYL  0     **** LYL Z 18
    14 ZIL7       19 GROUP        1 Z    ZIL  0     **** ZIL Z 19
    15 GLL5       33 GROUP        1 Z    GLL  0     **** GLL Z 20
@<TRIPOS>SET

