#    Name: 2g77_GDP_1_ligand
#    Modification time : Tue Mar 25 13:39:13 2014

@<TRIPOS>MOLECULE
2g77_GDP_1_ligand
   40    42     1     0     0
SMALL
NO_CHARGES


@<TRIPOS>ATOM
      1 PB         21.2270   33.5440   22.6050 P.3       1 GDP501      0.0000 
      2 O1B        22.1260   33.3430   23.8170 O.co2     1 GDP501      0.0000 
      3 O2B        21.9430   33.0290   21.3950 O.co2     1 GDP501      0.0000 
      4 O3B        19.8610   33.0100   22.6720 O.co2     1 GDP501      0.0000 
      5 O3A        21.0350   35.1530   22.5240 O.3       1 GDP501      0.0000 
      6 PA         19.6080   35.8360   22.5960 P.3       1 GDP501      0.0000 
      7 O1A        19.0200   35.7290   23.9850 O.co2     1 GDP501      0.0000 
      8 O2A        18.5640   35.3620   21.6440 O.co2     1 GDP501      0.0000 
      9 O5'        19.9840   37.3560   22.2880 O.3       1 GDP501      0.0000 
     10 C5'        21.0840   37.9430   22.9950 C.3       1 GDP501      0.0000 
     11 C4'        21.0750   39.4700   22.8470 C.3       1 GDP501      0.0000 
     12 O4'        21.2410   39.8770   21.4520 O.3       1 GDP501      0.0000 
     13 C3'        19.7120   39.9800   23.2910 C.3       1 GDP501      0.0000 
     14 O3'        19.8800   41.2560   23.9300 O.3       1 GDP501      0.0000 
     15 C2'        18.9370   40.1760   22.0010 C.3       1 GDP501      0.0000 
     16 O2'        18.0160   41.2670   22.0900 O.3       1 GDP501      0.0000 
     17 C1'        20.0400   40.5550   21.0300 C.3       1 GDP501      0.0000 
     18 N9         19.7520   40.2390   19.6220 N.pl3     1 GDP501      0.0000 
     19 C8         19.3320   39.1160   19.0810 C.2       1 GDP501      0.0000 
     20 N7         19.2010   39.2730   17.7340 N.2       1 GDP501      0.0000 
     21 C5         19.5270   40.5430   17.4040 C.2       1 GDP501      0.0000 
     22 C6         19.6350   41.3660   16.1550 C.2       1 GDP501      0.0000 
     23 O6         19.3890   40.9120   15.0030 O.2       1 GDP501      0.0000 
     24 N1         20.0380   42.6200   16.2910 N.am      1 GDP501      0.0000 
     25 C2         20.3400   43.1720   17.4610 C.2       1 GDP501      0.0000 
     26 N2         20.7550   44.4490   17.4650 N.pl3     1 GDP501      0.0000 
     27 N3         20.2980   42.4720   18.6350 N.2       1 GDP501      0.0000 
     28 C4         19.9010   41.1650   18.6550 C.2       1 GDP501      0.0000 
     29 H          22.0496   37.5785   22.6166 H         1 GDP501      0.0000 
     30 H          21.0440   37.7133   24.0693 H         1 GDP501      0.0000 
     31 H          21.8175   39.8940   23.4704 H         1 GDP501      0.0000 
     32 H          19.2432   39.2663   23.8827 H         1 GDP501      0.0000 
     33 H          18.5192   39.2707   21.6995 H         1 GDP501      0.0000 
     34 H          20.2032   41.6388   21.1319 H         1 GDP501      0.0000 
     35 H          19.1358   38.2802   19.5513 H         1 GDP501      0.0000 
     36 H          20.1261   43.2253   15.4084 H         1 GDP501      0.0000 
     37 H          20.7986   44.9003   16.5737 H         1 GDP501      0.0000 
     38 H          20.9834   44.8346   18.3589 H         1 GDP501      0.0000 
     39 H          19.1283   41.8186   23.5858 H         1 GDP501      0.0000 
     40 H          17.2783   40.9354   22.6781 H         1 GDP501      0.0000 
@<TRIPOS>BOND
     1    2    1 ar   
     2    3    1 ar   
     3    4    1 ar   
     4    5    1 1    
     5    6    5 1    
     6    7    6 ar   
     7    8    6 ar   
     8    9    6 1    
     9   10    9 1    
    10   11   10 1    
    11   29   10 1    
    12   30   10 1    
    13   12   11 1    
    14   13   11 1    
    15   31   11 1    
    16   17   12 1    
    17   14   13 1    
    18   15   13 1    
    19   32   13 1    
    20   39   14 1    
    21   16   15 1    
    22   17   15 1    
    23   33   15 1    
    24   40   16 1    
    25   18   17 1    
    26   34   17 1    
    27   19   18 1    
    28   28   18 1    
    29   20   19 2    
    30   35   19 1    
    31   21   20 1    
    32   22   21 1    
    33   28   21 2    
    34   23   22 2    
    35   24   22 am   
    36   25   24 1    
    37   36   24 1    
    38   26   25 1    
    39   27   25 2    
    40   37   26 1    
    41   38   26 1    
    42   28   27 1    
@<TRIPOS>SUBSTRUCTURE
     1 GDP501      1 GROUP   
@<TRIPOS>SET

