#    Name: 2wgj_VGH_1_INTS_M
#    Modification time : Tue Mar 25 04:17:17 2014

@<TRIPOS>MOLECULE
2wgj_VGH_1_INTS_M
   69     0     9     0     0
SMALL
NO_CHARGES


@<TRIPOS>ATOM
      1 CA         18.0570   85.6060    2.0480 C.3       3 GLC5        0.0000 
      2 CA         18.3190   84.5690    3.5460 C.3       9 GLL5        0.0000 
      3 CA         17.7950   86.6430    0.5500 C.3       6 GLP5        0.0000 
      4 CA         17.9035   86.4395    3.9615 C.3       3 GLC5        0.0000 
      5 CA         17.4880   88.3100    4.3770 C.3       6 GLP5        0.0000 
      6 CA         16.4460   84.7100    3.6690 C.3       3 GLC5        0.0000 
      7 CA         14.5730   84.8510    3.7920 C.3       6 GLP5        0.0000 
      8 CA         17.2780   79.0785    7.8825 C.3       3 GLC5        0.0000 
      9 CA         17.6610   80.9190    8.0020 C.3       9 GLL5        0.0000 
     10 CA         16.8950   77.2380    7.7630 C.3       6 GLP5        0.0000 
     11 CA         19.6670   83.6245   10.5825 C.3       3 GLC5        0.0000 
     12 CA         18.6180   83.3970    8.9860 C.3       9 GLL5        0.0000 
     13 CA         20.7160   83.8520   12.1790 C.3       6 GLP5        0.0000 
     14 CA         20.2035   81.8490    8.7555 C.3       3 GLC5        0.0000 
     15 CA         21.7890   80.3010    8.5250 C.3       6 GLP5        0.0000 
     16 CA         18.8615   81.9715   10.0600 C.3       3 GLC5        0.0000 
     17 CA         19.1050   80.5460   11.1340 C.3       6 GLP5        0.0000 
     18 CA         17.5080   84.4745   10.2930 C.3       3 GLC5        0.0000 
     19 CA         16.3980   85.5520   11.6000 C.3       6 GLP5        0.0000 
     20 CA         18.8265   86.8695    9.0480 C.3       3 GLC5        0.0000 
     21 CA         18.1170   86.2490    7.4610 C.3       9 GLL5        0.0000 
     22 CA         19.5360   87.4900   10.6350 C.3       6 GLP5        0.0000 
     23 CA         23.9325   83.8245    8.1660 C.3       3 GLC5        0.0000 
     24 CA         22.6660   85.2200    7.3240 C.3       9 GLL5        0.0000 
     25 CA         25.1990   82.4290    9.0080 C.3       6 GLP5        0.0000 
     26 O          23.8345   85.8845    9.4195 O.2       1 ALC1        0.0000 
     27 O          22.5410   85.5760    8.6720 O.2       7 ALL1        0.0000 
     28 O          25.1280   86.1930   10.1670 O.2       4 ALP1        0.0000 
     29 N          25.3065   84.7115    7.2430 N.am      2 SEC2        0.0000 
     30 N          23.9230   84.9750    6.8780 N.am      8 SEL2        0.0000 
     31 N          26.6900   84.4480    7.6080 N.am      5 SEP2        0.0000 
     32 CA         23.4920   86.5600    6.4185 C.3       3 GLC5        0.0000 
     33 CA         24.0840   84.6250    5.5840 C.3       9 GLL5        0.0000 
     34 CA         22.9000   88.4950    7.2530 C.3       6 GLP5        0.0000 
     35 CA         24.9635   83.3960    6.6310 C.3       3 GLC5        0.0000 
     36 CA         25.8430   82.1670    7.6780 C.3       6 GLP5        0.0000 
     37 CA         26.5740   84.8250    1.9015 C.3       3 GLC5        0.0000 
     38 CA         25.5950   83.3510    0.5360 C.3       9 GLL5        0.0000 
     39 CA         27.5530   86.2990    3.2670 C.3       6 GLP5        0.0000 
     40 CA         24.6965   86.0110   -0.3035 C.3       3 GLC5        0.0000 
     41 CA         25.5000   84.1910   -0.7510 C.3       9 GLL5        0.0000 
     42 CA         23.8930   87.8310    0.1440 C.3       6 GLP5        0.0000 
     43 CA         16.0546   82.3130    4.1390 C.3       3 GLC5        0.0000 
     44 CA         17.5350   81.3810    5.7410 C.3       9 GLL5        0.0000 
     45 CA         14.3650   82.4670    2.9870 C.3       6 GLP5        0.0000 
     46 CA         18.4265   80.9513    9.3228 C.3       3 GLC5        0.0000 
     47 CA         17.8350   81.7940    7.0210 C.3       9 GLL5        0.0000 
     48 CA         16.1485   80.9273    8.5503 C.3       3 GLC5        0.0000 
     49 CA         14.5490   80.4980    9.5890 C.3       6 GLP5        0.0000 
     50 CA         20.0519   82.4938    5.8170 C.3       3 GLC5        0.0000 
     51 CA         18.5060   84.0320    6.2790 C.3       9 GLL5        0.0000 
     52 CA         21.8740   81.5030    6.0740 C.3       6 GLP5        0.0000 
     53 CA         19.5057   81.1836    7.0654 C.3       3 GLC5        0.0000 
     54 CA         18.3160   83.0790    7.3080 C.3       9 GLL5        0.0000 
     55 CA         21.0170   80.2010    6.8810 C.3       6 GLP5        0.0000 
     56 CA         18.0315   87.0795    5.6885 C.3       3 GLC5        0.0000 
     57 CA         19.0330   85.4490    6.5390 C.3       9 GLL5        0.0000 
     58 CA         16.5920   85.6185    6.5650 C.3       3 GLC5        0.0000 
     59 CA         14.6090   85.3880    6.1300 C.3       6 GLP5        0.0000 
     60 CA         22.5254   86.7900    6.9165 C.3       3 GLC5        0.0000 
     61 CA         21.5270   85.1380    6.5080 C.3       9 GLL5        0.0000 
     62 CA         22.0124   83.2940    6.3270 C.3       3 GLC5        0.0000 
     63 CA         23.2727   85.7275    1.9133 C.3       3 GLC5        0.0000 
     64 CA         23.3350   84.0870    3.3020 C.3       9 GLL5        0.0000 
     65 CA         22.5750   87.4080    0.7930 C.3       6 GLP5        0.0000 
     66 CA         24.3078   82.1700    3.2067 C.3       3 GLC5        0.0000 
     67 CA         24.6450   80.2930    3.3800 C.3       6 GLP5        0.0000 
     68 CA         22.6618   82.9140    5.1444 C.3       3 GLC5        0.0000 
     69 CA         25.2287   81.4575    1.8970 C.3       3 GLC5        0.0000 
@<TRIPOS>BOND
@<TRIPOS>SUBSTRUCTURE
     1 ALC1       26 GROUP        1 X    ALC  0     ROOT ALC X 1
     2 SEC2       29 GROUP        1 X    SEC  0     **** SEC X 2
     3 GLC5        1 GROUP        1 X    GLC  0     **** GLC X 6
     4 ALP1       28 GROUP        1 Y    ALP  0     ROOT ALP Y 8
     5 SEP2       31 GROUP        1 Y    SEP  0     **** SEP Y 9
     6 GLP5        3 GROUP        1 Y    GLP  0     **** GLP Y 13
     7 ALL1       27 GROUP        1 Z    ALL  0     ROOT ALL Z 15
     8 SEL2       30 GROUP        1 Z    SEL  0     **** SEL Z 16
     9 GLL5        2 GROUP        1 Z    GLL  0     **** GLL Z 20
@<TRIPOS>SET

