#    Name: 2wgj_VGH_1_ligand
#    Modification time : Tue Mar 25 04:17:17 2014

@<TRIPOS>MOLECULE
2wgj_VGH_1_ligand
   51    54     1     0     0
SMALL
NO_CHARGES


@<TRIPOS>ATOM
      1 CL         18.3190   84.5690    3.5460 Cl        1 VGH2346     0.0000 
      2 C13        18.1880   83.5860    4.9680 C.ar      1 VGH2346     0.0000 
      3 C3         17.7190   82.2880    4.7140 C.ar      1 VGH2346     0.0000 
      4 C2         17.5350   81.3810    5.7410 C.ar      1 VGH2346     0.0000 
      5 C12        17.8350   81.7940    7.0210 C.ar      1 VGH2346     0.0000 
      6 F          17.6610   80.9190    8.0020 F         1 VGH2346     0.0000 
      7 C17        18.5060   84.0320    6.2790 C.ar      1 VGH2346     0.0000 
      8 C18        18.3160   83.0790    7.3080 C.ar      1 VGH2346     0.0000 
      9 CL2        18.6180   83.3970    8.9860 Cl        1 VGH2346     0.0000 
     10 C21        19.0330   85.4490    6.5390 C.3       1 VGH2346     0.0000 
     11 C1         18.1170   86.2490    7.4610 C.3       1 VGH2346     0.0000 
     12 O27        20.3420   85.4420    7.1510 O.3       1 VGH2346     0.0000 
     13 C15        21.5270   85.1380    6.5080 C.ar      1 VGH2346     0.0000 
     14 C4         21.7440   84.7620    5.1640 C.ar      1 VGH2346     0.0000 
     15 C19        22.6660   85.2200    7.3240 C.ar      1 VGH2346     0.0000 
     16 N22        22.5410   85.5760    8.6720 N.pl3     1 VGH2346     0.0000 
     17 N23        23.9230   84.9750    6.8780 N.ar      1 VGH2346     0.0000 
     18 C5         24.0840   84.6250    5.5840 C.ar      1 VGH2346     0.0000 
     19 C14        23.0440   84.5010    4.6710 C.ar      1 VGH2346     0.0000 
     20 C16        23.3350   84.0870    3.3020 C.2       1 VGH2346     0.0000 
     21 C6         22.5200   83.6280    2.2370 C.2       1 VGH2346     0.0000 
     22 C7         24.6060   84.0070    2.7650 C.2       1 VGH2346     0.0000 
     23 N26        24.4970   83.5610    1.4840 N.pl3     1 VGH2346     0.0000 
     24 N24        23.2130   83.3190    1.1370 N.2       1 VGH2346     0.0000 
     25 C20        25.5950   83.3510    0.5360 C.3       1 VGH2346     0.0000 
     26 C8         26.0300   81.8930    0.2920 C.3       1 VGH2346     0.0000 
     27 C10        25.5280   81.2150   -0.9840 C.3       1 VGH2346     0.0000 
     28 N25        25.5020   82.1510   -2.1590 N.4       1 VGH2346     0.0000 
     29 C11        24.8400   83.4750   -1.9280 C.3       1 VGH2346     0.0000 
     30 C9         25.5000   84.1910   -0.7510 C.3       1 VGH2346     0.0000 
     31 H          17.5098   82.0137    3.7377 H         1 VGH2346     0.0000 
     32 H          17.1907   80.4435    5.5564 H         1 VGH2346     0.0000 
     33 H          19.0761   85.9799    5.5869 H         1 VGH2346     0.0000 
     34 H          20.9376   84.6756    4.5273 H         1 VGH2346     0.0000 
     35 H          23.3939   85.6469    9.1893 H         1 VGH2346     0.0000 
     36 H          21.6095   85.7289    9.0022 H         1 VGH2346     0.0000 
     37 H          25.0670   84.4276    5.2238 H         1 VGH2346     0.0000 
     38 H          21.5401   83.5585    2.3398 H         1 VGH2346     0.0000 
     39 H          25.4137   84.2293    3.2240 H         1 VGH2346     0.0000 
     40 H          26.5477   83.8194    1.0701 H         1 VGH2346     0.0000 
     41 H          25.7112   81.2822    1.1699 H         1 VGH2346     0.0000 
     42 H          27.1453   81.8555    0.3011 H         1 VGH2346     0.0000 
     43 H          24.5185   80.8235   -0.7997 H         1 VGH2346     0.0000 
     44 H          26.1795   80.3591   -1.2064 H         1 VGH2346     0.0000 
     45 H          23.7842   83.3307   -1.7052 H         1 VGH2346     0.0000 
     46 H          24.9320   84.0983   -2.8158 H         1 VGH2346     0.0000 
     47 H          26.5176   84.5023   -1.0435 H         1 VGH2346     0.0000 
     48 H          24.9360   85.1130   -0.5281 H         1 VGH2346     0.0000 
     49 H          18.0124   85.8095    8.3531 H         1 VGH2346     0.0000 
     50 H          18.4699   87.1698    7.6274 H         1 VGH2346     0.0000 
     51 H          17.2000   86.3517    7.0756 H         1 VGH2346     0.0000 
@<TRIPOS>BOND
     1    2    1 1    
     2    3    2 ar   
     3    7    2 ar   
     4    4    3 ar   
     5   31    3 1    
     6    5    4 ar   
     7   32    4 1    
     8    6    5 1    
     9    8    5 ar   
    10    8    7 ar   
    11   10    7 1    
    12    9    8 1    
    13   11   10 1    
    14   12   10 1    
    15   33   10 1    
    16   49   11 1    
    17   50   11 1    
    18   51   11 1    
    19   13   12 1    
    20   14   13 ar   
    21   15   13 ar   
    22   19   14 ar   
    23   34   14 1    
    24   16   15 1    
    25   17   15 ar   
    26   35   16 1    
    27   36   16 1    
    28   18   17 ar   
    29   19   18 ar   
    30   37   18 1    
    31   20   19 1    
    32   21   20 1    
    33   22   20 2    
    34   24   21 2    
    35   38   21 1    
    36   23   22 1    
    37   39   22 1    
    38   24   23 1    
    39   25   23 1    
    40   26   25 1    
    41   30   25 1    
    42   40   25 1    
    43   27   26 1    
    44   41   26 1    
    45   42   26 1    
    46   28   27 1    
    47   43   27 1    
    48   44   27 1    
    49   29   28 1    
    50   30   29 1    
    51   45   29 1    
    52   46   29 1    
    53   47   30 1    
    54   48   30 1    
@<TRIPOS>SUBSTRUCTURE
     1 VGH2346     1 GROUP   
@<TRIPOS>SET

