#    Name: 5TMN_1_CAVITY_N1_ALL.mol2
#    Modification time : Tue Mar 11 17:45:05 2014

@<TRIPOS>MOLECULE
5TMN_1_CAVITY_N1_ALL.mol2
   71     0     7     0     0
SMALL
NO_CHARGES


@<TRIPOS>ATOM
      1 N          50.9104   11.5029   -0.5831 N.2       2 ALA2        0.0000 
      2 N          50.6349   12.1774   -1.8942 N.2       2 ALA2        0.0000 
      3 O          50.3594   12.8519   -3.2054 O.2       2 ALA2        0.0000 
      4 O          47.9788   16.1049   -7.8959 O.2       2 ALA2        0.0000 
      5 DU         49.2574   15.5499   -8.4500 H         7 CUB7        0.0000 
      6 CZ         50.2606   15.6694  -10.3154 C.ar      5 PHE5        0.0000 
      7 CZ         51.6447   12.7223   -0.1100 C.ar      5 PHE5        0.0000 
      8 CA         52.9233   12.1673   -0.6642 C.3       6 GLY6        0.0000 
      9 N          51.3692   13.3968   -1.4212 N.2       2 ALA2        0.0000 
     10 DU         52.6478   12.8418   -1.9754 H         7 CUB7        0.0000 
     11 N          51.0937   14.0713   -2.7324 N.2       2 ALA2        0.0000 
     12 N          52.3723   13.5163   -3.2865 N.2       2 ALA2        0.0000 
     13 DU         53.6510   12.9613   -3.8407 H         7 CUB7        0.0000 
     14 CA         54.9296   12.4063   -4.3949 C.3       6 GLY6        0.0000 
     15 O          52.0968   14.1908   -4.5977 O.2       2 ALA2        0.0000 
     16 N          53.3755   13.6358   -5.1519 N.2       2 ALA2        0.0000 
     17 N          51.8214   14.8653   -5.9089 N.2       2 ALA2        0.0000 
     18 O          48.9886   16.6499   -6.1117 O.2       2 ALA2        0.0000 
     19 O          50.2672   16.0949   -6.6658 O.2       2 ALA2        0.0000 
     20 N          51.5459   15.5399   -7.2200 N.2       2 ALA2        0.0000 
     21 CA         48.7131   17.3244   -7.4228 C.3       6 GLY6        0.0000 
     22 DU         49.9917   16.7694   -7.9770 H         7 CUB7        0.0000 
     23 OG         51.2704   16.2144   -8.5312 O.2       1 SER1        0.0000 
     24 CA         48.4376   17.9989   -8.7340 C.3       6 GLY6        0.0000 
     25 CZ         49.7163   17.4439   -9.2882 C.ar      5 PHE5        0.0000 
     26 CA         53.6576   13.3867   -0.1912 C.3       6 GLY6        0.0000 
     27 N          50.8249   15.1712   -0.3940 N.2       2 ALA2        0.0000 
     28 CZ         52.1035   14.6162   -0.9482 C.ar      5 PHE5        0.0000 
     29 CA         53.3821   14.0612   -1.5023 C.3       6 GLY6        0.0000 
     30 CA         54.6608   13.5062   -2.0565 C.3       6 GLY6        0.0000 
     31 N          51.8280   15.2907   -2.2593 N.2       2 ALA2        0.0000 
     32 N          53.1067   14.7357   -2.8135 N.2       2 ALA2        0.0000 
     33 O          54.3853   14.1807   -3.3677 O.2       2 ALA2        0.0000 
     34 N          52.8312   15.4103   -4.1247 N.2       2 ALA2        0.0000 
     35 CA         54.1098   14.8553   -4.6788 C.3       6 GLY6        0.0000 
     36 N          52.5557   16.0848   -5.4358 N.2       2 ALA2        0.0000 
     37 N          51.0016   17.3143   -6.1928 N.2       2 ALA2        0.0000 
     38 CA         49.4475   18.5438   -6.9498 C.3       6 GLY6        0.0000 
     39 OG         50.7261   17.9888   -7.5040 O.2       1 SER1        0.0000 
     40 CA         49.1720   19.2183   -8.2610 C.3       6 GLY6        0.0000 
     41 OG         50.4506   18.6633   -8.8151 O.2       1 SER1        0.0000 
     42 CA         51.5592   16.3907    0.0790 C.3       6 GLY6        0.0000 
     43 CA         52.8378   15.8357   -0.4751 C.3       6 GLY6        0.0000 
     44 N          51.2837   17.0652   -1.2321 N.2       2 ALA2        0.0000 
     45 N          52.5624   16.5102   -1.7863 N.2       2 ALA2        0.0000 
     46 CA         53.8410   15.9552   -2.3405 C.3       6 GLY6        0.0000 
     47 N          52.2869   17.1847   -3.0975 N.2       2 ALA2        0.0000 
     48 N          53.5655   16.6297   -3.6516 N.2       2 ALA2        0.0000 
     49 CA         54.8441   16.0747   -4.2058 C.3       6 GLY6        0.0000 
     50 N          52.0114   17.8592   -4.4086 N.2       2 ALA2        0.0000 
     51 N          53.2900   17.3042   -4.9628 N.2       2 ALA2        0.0000 
     52 OD1        51.7359   18.5337   -5.7198 O.3       3 ASP3        0.0000 
     53 N          53.0145   17.9787   -6.2739 N.2       2 ALA2        0.0000 
     54 OD1        51.4604   19.2082   -7.0309 O.3       3 ASP3        0.0000 
     55 CA         52.2935   17.6101    0.5521 C.3       6 GLY6        0.0000 
     56 CA         53.5722   17.0551   -0.0021 C.3       6 GLY6        0.0000 
     57 CA         52.0181   18.2846   -0.7591 C.3       6 GLY6        0.0000 
     58 CA         53.2967   17.7296   -1.3133 C.3       6 GLY6        0.0000 
     59 CA         54.5753   17.1746   -1.8674 C.3       6 GLY6        0.0000 
     60 NZ         51.7426   18.9591   -2.0703 N.2       4 LYS4        0.0000 
     61 NZ         53.0212   18.4041   -2.6244 N.2       4 LYS4        0.0000 
     62 O          54.2998   17.8491   -3.1786 O.2       2 ALA2        0.0000 
     63 NZ         52.7457   19.0786   -3.9356 N.2       4 LYS4        0.0000 
     64 N          54.0243   18.5236   -4.4898 N.2       2 ALA2        0.0000 
     65 CA         54.3065   18.2745    0.4709 C.3       6 GLY6        0.0000 
     66 CA         52.7524   19.5040   -0.2861 C.3       6 GLY6        0.0000 
     67 CA         54.0310   18.9490   -0.8402 C.3       6 GLY6        0.0000 
     68 O          55.3096   18.3940   -1.3944 O.2       2 ALA2        0.0000 
     69 NZ         53.7555   19.6236   -2.1514 N.2       4 LYS4        0.0000 
     70 O          55.0341   19.0686   -2.7056 O.2       2 ALA2        0.0000 
     71 CA         54.7653   20.1685   -0.3672 C.3       6 GLY6        0.0000 
@<TRIPOS>BOND
@<TRIPOS>SUBSTRUCTURE
     1 SER1       23 GROUP   
     2 ALA2        1 GROUP   
     3 ASP3       52 GROUP   
     4 LYS4       60 GROUP   
     5 PHE5        6 GROUP   
     6 GLY6        8 GROUP   
     7 CUB7        5 GROUP   
@<TRIPOS>SET

