#    Name: 5tmn_0PJ_1_INTS_M
#    Modification time : Tue Mar 25 13:50:15 2014

@<TRIPOS>MOLECULE
5tmn_0PJ_1_INTS_M
   67     0    12     0     0
SMALL
NO_CHARGES


@<TRIPOS>ATOM
      1 CA         50.6100   17.8450  -11.5650 C.3       4 GLC5        0.0000 
      2 CA         48.8800   18.2920  -11.1850 C.3      12 GLL5        0.0000 
      3 CA         52.3400   17.3980  -11.9450 C.3       8 GLP5        0.0000 
      4 CA         46.7800   19.5640   -8.6100 C.3       4 GLC5        0.0000 
      5 CA         46.4780   18.9750  -10.7030 C.3      12 GLL5        0.0000 
      6 CA         47.0820   20.1530   -6.5170 C.3       8 GLP5        0.0000 
      7 CA         48.7630   19.0655   -6.6085 C.3       4 GLC5        0.0000 
      8 CA         50.4440   17.9780   -6.7000 C.3      12 GLL5        0.0000 
      9 N          51.0915   21.5120   -5.5300 N.am      2 SEC2        0.0000 
     10 N          51.5010   20.4720   -6.1370 N.am     10 SEL2        0.0000 
     11 N          50.6820   22.5520   -4.9230 N.am      6 SEP2        0.0000 
     12 Zn         53.7180   19.4220   -6.8080 Zn        3 ZIC7        0.0000 
     13 Zn         53.0740   18.6410   -6.5730 Zn       11 ZIL7        0.0000 
     14 Zn         54.3620   20.2030   -7.0430 Zn        7 ZIP7        0.0000 
     15 N          53.7580   17.3985   -6.9620 N.am      2 SEC2        0.0000 
     16 N          53.0740   18.6410   -6.5730 N.am     10 SEL2        0.0000 
     17 N          54.4420   16.1560   -7.3510 N.am      6 SEP2        0.0000 
     18 O          50.6980   17.4020   -3.8990 O.2       1 ALC1        0.0000 
     19 O          51.7120   18.5170   -4.5090 O.2       9 ALL1        0.0000 
     20 O          49.6840   16.2870   -3.2890 O.2       5 ALP1        0.0000 
     21 O          50.3120   18.9255   -4.2325 O.2       1 ALC1        0.0000 
     22 O          48.9120   19.3340   -3.9560 O.2       5 ALP1        0.0000 
     23 CA         53.7780   20.1285   -4.1140 C.3       4 GLC5        0.0000 
     24 CA         52.8360   18.2290   -3.6390 C.3      12 GLL5        0.0000 
     25 CA         54.7200   22.0280   -4.5890 C.3       8 GLP5        0.0000 
     26 N          56.0945   16.1845   -3.6250 N.am      2 SEC2        0.0000 
     27 N          54.7570   16.7750   -3.8340 N.am     10 SEL2        0.0000 
     28 N          57.4320   15.5940   -3.4160 N.am      6 SEP2        0.0000 
     29 N          56.1230   17.3250   -3.6090 N.am      2 SEC2        0.0000 
     30 N          57.4890   17.8750   -3.3840 N.am      6 SEP2        0.0000 
     31 CA         54.3470   20.2505    0.5180 C.3       4 GLC5        0.0000 
     32 CA         54.6320   19.3710   -1.4350 C.3      12 GLL5        0.0000 
     33 CA         54.0620   21.1300    2.4710 C.3       8 GLP5        0.0000 
     34 CA         55.1725   20.9165   -2.5965 C.3       4 GLC5        0.0000 
     35 CA         55.7130   22.4620   -3.7580 C.3       8 GLP5        0.0000 
     36 CA         56.6045   19.3185   -0.6535 C.3       4 GLC5        0.0000 
     37 CA         58.5770   19.2660    0.1280 C.3       8 GLP5        0.0000 
     38 CA         52.7955   16.2850    1.3860 C.3       4 GLC5        0.0000 
     39 CA         53.2110   18.0830    0.2190 C.3      12 GLL5        0.0000 
     40 CA         52.3800   14.4870    2.5530 C.3       8 GLP5        0.0000 
     41 CA         51.4070   17.9330    1.0565 C.3       4 GLC5        0.0000 
     42 CA         49.6030   17.7830    1.8940 C.3       8 GLP5        0.0000 
     43 CA         53.6365   19.6065    1.3450 C.3       4 GLC5        0.0000 
     44 O          51.2105   16.0860   -3.7415 O.2       1 ALC1        0.0000 
     45 O          52.7370   15.8850   -4.1940 O.2       9 ALL1        0.0000 
     46 CA         54.4195   15.1405   -5.6345 C.3       4 GLC5        0.0000 
     47 CA         53.2020   14.5210   -4.4530 C.3      12 GLL5        0.0000 
     48 CA         55.6370   15.7600   -6.8160 C.3       8 GLP5        0.0000 
     49 N          50.0585   14.4855   -5.1470 N.am      2 SEC2        0.0000 
     50 N          51.3250   14.3630   -5.9430 N.am     10 SEL2        0.0000 
     51 N          48.7920   14.6080   -4.3510 N.am      6 SEP2        0.0000 
     52 CA         54.5520   14.5335   -1.4570 C.3       4 GLC5        0.0000 
     53 CA         53.4490   13.6930   -3.1390 C.3      12 GLL5        0.0000 
     54 CA         55.6550   15.3740    0.2250 C.3       8 GLP5        0.0000 
     55 CA         51.8510   12.8575    0.4575 C.3       4 GLC5        0.0000 
     56 CA         52.3400   12.1690   -1.5350 C.3      12 GLL5        0.0000 
     57 CA         51.3620   13.5460    2.4500 C.3       8 GLP5        0.0000 
     58 CA         54.2120   12.5815   -0.3945 C.3       4 GLC5        0.0000 
     59 CA         56.0840   12.9940    0.7460 C.3       8 GLP5        0.0000 
     60 CA         52.3155   14.5140    0.6910 C.3       4 GLC5        0.0000 
     61 CA         52.2510   14.5410   -1.1710 C.3      12 GLL5        0.0000 
     62 CA         53.9530   14.9575   -0.4730 C.3       4 GLC5        0.0000 
     63 CA         44.7233   21.7518  -10.7825 C.3       4 GLC5        0.0000 
     64 CA         45.2480   19.5850  -10.9620 C.3      12 GLL5        0.0000 
     65 CA         44.2670   23.5610  -10.0370 C.3       8 GLP5        0.0000 
     66 CA         54.6718   16.8993   -0.1673 C.3       4 GLC5        0.0000 
     67 CA         53.7000   18.1610   -1.2410 C.3      12 GLL5        0.0000 
@<TRIPOS>BOND
@<TRIPOS>SUBSTRUCTURE
     1 ALC1       18 GROUP        1 X    ALC  0     ROOT ALC X 1
     2 SEC2        9 GROUP        1 X    SEC  0     **** SEC X 2
     3 ZIC7       12 GROUP        1 X    ZIC  0     **** ZIC X 5
     4 GLC5        1 GROUP        1 X    GLC  0     **** GLC X 6
     5 ALP1       20 GROUP        1 Y    ALP  0     ROOT ALP Y 8
     6 SEP2       11 GROUP        1 Y    SEP  0     **** SEP Y 9
     7 ZIP7       14 GROUP        1 Y    ZIP  0     **** ZIP Y 12
     8 GLP5        3 GROUP        1 Y    GLP  0     **** GLP Y 13
     9 ALL1       19 GROUP        1 Z    ALL  0     ROOT ALL Z 15
    10 SEL2       10 GROUP        1 Z    SEL  0     **** SEL Z 16
    11 ZIL7       13 GROUP        1 Z    ZIL  0     **** ZIL Z 19
    12 GLL5        2 GROUP        1 Z    GLL  0     **** GLL Z 20
@<TRIPOS>SET

