#    Name: 5tmn_0PJ_1_ligand
#    Modification time : Tue Mar 25 13:50:15 2014

@<TRIPOS>MOLECULE
5tmn_0PJ_1_ligand
   64    64     1     0     0
SMALL
NO_CHARGES


@<TRIPOS>ATOM
      1 C1         49.7310   17.9210   -8.9170 C.2       1 0PJ317      0.0000 
      2 O1         49.6240   16.7190   -9.0150 O.2       1 0PJ317      0.0000 
      3 O2         49.4360   18.7460   -9.8800 O.3       1 0PJ317      0.0000 
      4 C2         48.8800   18.2920  -11.1850 C.3       1 0PJ317      0.0000 
      5 C3         47.5420   19.0400  -11.5680 C.ar      1 0PJ317      0.0000 
      6 C4         46.4780   18.9750  -10.7030 C.ar      1 0PJ317      0.0000 
      7 C5         45.2480   19.5850  -10.9620 C.ar      1 0PJ317      0.0000 
      8 C6         45.1110   20.3000  -12.0940 C.ar      1 0PJ317      0.0000 
      9 C7         46.1540   20.4140  -12.9580 C.ar      1 0PJ317      0.0000 
     10 C8         47.3800   19.7700  -12.7250 C.ar      1 0PJ317      0.0000 
     11 N          50.1310   18.6280   -7.8860 N.am      1 0PJ317      0.0000 
     12 C          50.4440   17.9780   -6.7000 C.3       1 0PJ317      0.0000 
     13 P          51.7310   18.9700   -6.1030 P.3       1 0PJ317      0.0000 
     14 O11        51.5010   20.4720   -6.1370 O.co2     1 0PJ317      0.0000 
     15 O21        53.0740   18.6410   -6.5730 O.co2     1 0PJ317      0.0000 
     16 N1         51.7120   18.5170   -4.5090 N.pl3     1 0PJ317      0.0000 
     17 CA         52.8360   18.2290   -3.6390 C.3       1 0PJ317      0.0000 
     18 C9         53.5300   16.8860   -3.9040 C.2       1 0PJ317      0.0000 
     19 O          54.7570   16.7750   -3.8340 O.2       1 0PJ317      0.0000 
     20 CB         52.4730   18.3230   -2.1310 C.3       1 0PJ317      0.0000 
     21 CG         53.7000   18.1610   -1.2410 C.3       1 0PJ317      0.0000 
     22 CD1        54.6320   19.3710   -1.4350 C.3       1 0PJ317      0.0000 
     23 CD2        53.2110   18.0830    0.2190 C.3       1 0PJ317      0.0000 
     24 N2         52.7370   15.8850   -4.1940 N.am      1 0PJ317      0.0000 
     25 CA1        53.2020   14.5210   -4.4530 C.3       1 0PJ317      0.0000 
     26 CC         52.3890   13.8360   -5.5240 C.2       1 0PJ317      0.0000 
     27 O3         51.3250   14.3630   -5.9430 O.co2     1 0PJ317      0.0000 
     28 CB1        53.4490   13.6930   -3.1390 C.3       1 0PJ317      0.0000 
     29 CG1        52.2500   13.4870   -2.2600 C.3       1 0PJ317      0.0000 
     30 CD11       52.3400   12.1690   -1.5350 C.3       1 0PJ317      0.0000 
     31 CD21       52.2510   14.5410   -1.1710 C.3       1 0PJ317      0.0000 
     32 OXT        52.7910   12.7660   -6.0710 O.co2     1 0PJ317      0.0000 
     33 H          48.6568   17.2197  -11.1612 H         1 0PJ317      0.0000 
     34 H          49.5948   18.4702  -11.9959 H         1 0PJ317      0.0000 
     35 H          46.5833   18.4442   -9.8015 H         1 0PJ317      0.0000 
     36 H          44.4820   19.4762  -10.2902 H         1 0PJ317      0.0000 
     37 H          44.2073   20.7687  -12.3136 H         1 0PJ317      0.0000 
     38 H          46.0607   20.9907  -13.8227 H         1 0PJ317      0.0000 
     39 H          48.1328   19.8491  -13.4106 H         1 0PJ317      0.0000 
     40 H          50.2234   19.6600   -7.9217 H         1 0PJ317      0.0000 
     41 H          50.9058   17.0350   -6.7898 H         1 0PJ317      0.0000 
     42 H          49.7298   18.0418   -5.9277 H         1 0PJ317      0.0000 
     43 H          50.7319   18.4506   -4.1519 H         1 0PJ317      0.0000 
     44 H          53.6287   19.0138   -3.7892 H         1 0PJ317      0.0000 
     45 H          51.7471   17.5422   -1.9007 H         1 0PJ317      0.0000 
     46 H          52.0114   19.2938   -1.9463 H         1 0PJ317      0.0000 
     47 H          54.2072   17.2685   -1.4919 H         1 0PJ317      0.0000 
     48 H          51.6861   16.0049   -4.2602 H         1 0PJ317      0.0000 
     49 H          54.2611   14.6357   -4.9062 H         1 0PJ317      0.0000 
     50 H          54.2515   14.2082   -2.5722 H         1 0PJ317      0.0000 
     51 H          53.8701   12.7127   -3.4428 H         1 0PJ317      0.0000 
     52 H          51.3554   13.5443   -2.8044 H         1 0PJ317      0.0000 
     53 H          55.4536   19.3014   -0.8692 H         1 0PJ317      0.0000 
     54 H          54.9359   19.4574   -2.3838 H         1 0PJ317      0.0000 
     55 H          54.1809   20.2299   -1.1924 H         1 0PJ317      0.0000 
     56 H          53.9709   17.9737    0.8598 H         1 0PJ317      0.0000 
     57 H          52.7159   18.9087    0.4895 H         1 0PJ317      0.0000 
     58 H          52.5928   17.3102    0.3628 H         1 0PJ317      0.0000 
     59 H          52.3900   11.3983   -2.1703 H         1 0PJ317      0.0000 
     60 H          53.1506   12.1208   -0.9513 H         1 0PJ317      0.0000 
     61 H          51.5460   12.0134   -0.9473 H         1 0PJ317      0.0000 
     62 H          53.0745   14.4904   -0.6059 H         1 0PJ317      0.0000 
     63 H          52.2115   15.4659   -1.5492 H         1 0PJ317      0.0000 
     64 H          51.4678   14.4416   -0.5573 H         1 0PJ317      0.0000 
@<TRIPOS>BOND
     1    2    1 2    
     2    3    1 1    
     3   11    1 am   
     4    4    3 1    
     5    5    4 1    
     6   33    4 1    
     7   34    4 1    
     8    6    5 ar   
     9   10    5 ar   
    10    7    6 ar   
    11   35    6 1    
    12    8    7 ar   
    13   36    7 1    
    14    9    8 ar   
    15   37    8 1    
    16   10    9 ar   
    17   38    9 1    
    18   39   10 1    
    19   12   11 1    
    20   40   11 1    
    21   13   12 1    
    22   41   12 1    
    23   42   12 1    
    24   14   13 ar   
    25   15   13 ar   
    26   16   13 1    
    27   17   16 1    
    28   43   16 1    
    29   18   17 1    
    30   20   17 1    
    31   44   17 1    
    32   19   18 2    
    33   24   18 am   
    34   21   20 1    
    35   45   20 1    
    36   46   20 1    
    37   22   21 1    
    38   23   21 1    
    39   47   21 1    
    40   53   22 1    
    41   54   22 1    
    42   55   22 1    
    43   56   23 1    
    44   57   23 1    
    45   58   23 1    
    46   25   24 1    
    47   48   24 1    
    48   26   25 1    
    49   28   25 1    
    50   49   25 1    
    51   27   26 ar   
    52   32   26 ar   
    53   29   28 1    
    54   50   28 1    
    55   51   28 1    
    56   30   29 1    
    57   31   29 1    
    58   52   29 1    
    59   59   30 1    
    60   60   30 1    
    61   61   30 1    
    62   62   31 1    
    63   63   31 1    
    64   64   31 1    
@<TRIPOS>SUBSTRUCTURE
     1 0PJ317      1 GROUP   
@<TRIPOS>SET

