#    Name: 3sh2_5DR_2_INTS_M
#    Modification time : Tue Mar 25 12:37:22 2014

@<TRIPOS>MOLECULE
3sh2_5DR_2_INTS_M
   73     0     9     0     0
SMALL
NO_CHARGES


@<TRIPOS>ATOM
      1 CA        -23.3755  -16.0945   35.4100 C.3       3 GLC5        0.0000 
      2 CA        -23.4760  -16.4690   33.3500 C.3       9 GLL5        0.0000 
      3 CA        -23.2750  -15.7200   37.4700 C.3       6 GLP5        0.0000 
      4 CA        -22.6225  -14.6885   33.4935 C.3       3 GLC5        0.0000 
      5 CA        -21.7690  -12.9080   33.6370 C.3       6 GLP5        0.0000 
      6 CA        -22.5480  -16.2555   31.7280 C.3       3 GLC5        0.0000 
      7 CA        -21.6200  -16.0420   30.1060 C.3       6 GLP5        0.0000 
      8 CA        -24.0810  -17.8765   34.3115 C.3       3 GLC5        0.0000 
      9 CA        -24.6860  -19.2840   35.2730 C.3       6 GLP5        0.0000 
     10 N         -23.6150  -18.1415   31.5875 N.am      2 SEC2        0.0000 
     11 N         -24.1660  -17.1610   32.4280 N.am      8 SEL2        0.0000 
     12 N         -23.0640  -19.1220   30.7470 N.am      5 SEP2        0.0000 
     13 CA        -23.5190  -16.4330   31.0920 C.3       3 GLC5        0.0000 
     14 CA        -25.4180  -16.8240   32.0780 C.3       9 GLL5        0.0000 
     15 CA        -25.0520  -18.0540   33.6755 C.3       3 GLC5        0.0000 
     16 CA        -24.2745  -15.3690   35.5650 C.3       3 GLC5        0.0000 
     17 CA        -25.2740  -15.0180   33.6600 C.3       9 GLL5        0.0000 
     18 CA        -23.5215  -13.9630   33.6485 C.3       3 GLC5        0.0000 
     19 CA        -27.7060  -18.1955   29.8125 C.3       3 GLC5        0.0000 
     20 CA        -26.8570  -18.8410   31.6680 C.3       9 GLL5        0.0000 
     21 CA        -28.5550  -17.5500   27.9570 C.3       6 GLP5        0.0000 
     22 CA        -27.3685  -20.5560   31.3790 C.3       3 GLC5        0.0000 
     23 CA        -27.8800  -22.2710   31.0900 C.3       6 GLP5        0.0000 
     24 CA        -25.7715  -19.0625   33.4705 C.3       3 GLC5        0.0000 
     25 CA        -31.2530  -13.7045   26.2725 C.3       3 GLC5        0.0000 
     26 CA        -31.0580  -13.8450   28.1820 C.3       9 GLL5        0.0000 
     27 CA        -31.4480  -13.5640   24.3630 C.3       6 GLP5        0.0000 
     28 CA        -29.6600  -15.0315   27.7280 C.3       3 GLC5        0.0000 
     29 CA        -28.2620  -16.2180   27.2740 C.3       6 GLP5        0.0000 
     30 CA        -33.0425  -13.2935   28.2765 C.3       3 GLC5        0.0000 
     31 CA        -35.0270  -12.7420   28.3710 C.3       6 GLP5        0.0000 
     32 CA        -30.4445  -12.1385   27.8455 C.3       3 GLC5        0.0000 
     33 CA        -29.8310  -10.4320   27.5090 C.3       6 GLP5        0.0000 
     34 O         -21.9530  -18.2075   33.0210 O.2       1 ALC1        0.0000 
     35 O         -22.2380  -16.8440   33.6590 O.2       7 ALL1        0.0000 
     36 O         -21.6680  -19.5710   32.3830 O.2       4 ALP1        0.0000 
     37 O         -24.7585  -13.3195   34.9500 O.2       1 ALC1        0.0000 
     38 O         -25.7940  -13.9610   34.2800 O.2       7 ALL1        0.0000 
     39 O         -23.7230  -12.6780   35.6200 O.2       4 ALP1        0.0000 
     40 CA        -27.9960  -15.7865   33.9955 C.3       3 GLC5        0.0000 
     41 CA        -27.3420  -15.3280   32.3660 C.3       9 GLL5        0.0000 
     42 CA        -28.6500  -16.2450   35.6250 C.3       6 GLP5        0.0000 
     43 CA        -26.6665  -16.5475   29.5365 C.3       3 GLC5        0.0000 
     44 CA        -26.1020  -17.6860   31.0150 C.3       9 GLL5        0.0000 
     45 CA        -27.2310  -15.4090   28.0580 C.3       6 GLP5        0.0000 
     46 CA        -30.8290  -12.9660   32.2105 C.3       3 GLC5        0.0000 
     47 CA        -29.8510  -14.5330   31.7690 C.3       9 GLL5        0.0000 
     48 CA        -31.8070  -11.3990   32.6520 C.3       6 GLP5        0.0000 
     49 CA        -31.7280  -14.6170   32.7240 C.3       3 GLC5        0.0000 
     50 CA        -33.6050  -14.7010   33.6790 C.3       6 GLP5        0.0000 
     51 CA        -28.4480  -13.3120   31.5850 C.3       3 GLC5        0.0000 
     52 CA        -27.0450  -12.0910   31.4010 C.3       6 GLP5        0.0000 
     53 CA        -27.5727  -15.2815   30.1412 C.3       3 GLC5        0.0000 
     54 CA        -28.4870  -14.9800   32.0830 C.3       9 GLL5        0.0000 
     55 CA        -29.4135  -15.0377   33.6515 C.3       3 GLC5        0.0000 
     56 CA        -29.6580  -15.3190   35.3770 C.3       6 GLP5        0.0000 
     57 CA        -27.4797  -13.6225   31.8127 C.3       3 GLC5        0.0000 
     58 CA        -29.5587  -21.8173   31.8852 C.3       3 GLC5        0.0000 
     59 CA        -31.1880  -20.8380   33.1370 C.3       9 GLL5        0.0000 
     60 CA        -32.4610  -19.9357   34.4158 C.3       3 GLC5        0.0000 
     61 CA        -33.7160  -19.6940   35.9190 C.3       6 GLP5        0.0000 
     62 CA        -29.6580  -21.6145   30.8638 C.3       3 GLC5        0.0000 
     63 CA        -31.4190  -21.6190   30.8610 C.3       9 GLL5        0.0000 
     64 CA        -30.4037  -17.2390   28.7617 C.3       3 GLC5        0.0000 
     65 CA        -32.2200  -17.5840   29.7940 C.3       9 GLL5        0.0000 
     66 CA        -33.2177  -16.1165   30.9882 C.3       3 GLC5        0.0000 
     67 CA        -34.1830  -15.3050   32.4100 C.3       6 GLP5        0.0000 
     68 CA        -29.7895  -17.4802   29.5688 C.3       3 GLC5        0.0000 
     69 CA        -31.3990  -17.9130   30.8710 C.3       9 GLL5        0.0000 
     70 CA        -32.6035  -16.3578   31.7952 C.3       3 GLC5        0.0000 
     71 CA        -29.8338  -16.4898   29.2268 C.3       3 GLC5        0.0000 
     72 CA        -30.6990  -15.5850   31.0390 C.3       9 GLL5        0.0000 
     73 CA        -32.6478  -15.3673   31.4532 C.3       3 GLC5        0.0000 
@<TRIPOS>BOND
@<TRIPOS>SUBSTRUCTURE
     1 ALC1       34 GROUP        1 X    ALC  0     ROOT ALC X 1
     2 SEC2       10 GROUP        1 X    SEC  0     **** SEC X 2
     3 GLC5        1 GROUP        1 X    GLC  0     **** GLC X 6
     4 ALP1       36 GROUP        1 Y    ALP  0     ROOT ALP Y 8
     5 SEP2       12 GROUP        1 Y    SEP  0     **** SEP Y 9
     6 GLP5        3 GROUP        1 Y    GLP  0     **** GLP Y 13
     7 ALL1       35 GROUP        1 Z    ALL  0     ROOT ALL Z 15
     8 SEL2       11 GROUP        1 Z    SEL  0     **** SEL Z 16
     9 GLL5        2 GROUP        1 Z    GLL  0     **** GLL Z 20
@<TRIPOS>SET

