#    Name: 3sh2_5DR_2_ligand
#    Modification time : Tue Mar 25 12:37:22 2014

@<TRIPOS>MOLECULE
3sh2_5DR_2_ligand
   49    51     1     0     0
SMALL
NO_CHARGES


@<TRIPOS>ATOM
      1 N1        -24.0260  -15.4090   33.9610 N.ar      1 5DR168      0.0000 
      2 C2        -23.4760  -16.4690   33.3500 C.ar      1 5DR168      0.0000 
      3 N3        -24.1660  -17.1610   32.4280 N.ar      1 5DR168      0.0000 
      4 C4        -25.4180  -16.8240   32.0780 C.ar      1 5DR168      0.0000 
      5 C5        -26.0040  -15.7240   32.7040 C.ar      1 5DR168      0.0000 
      6 C6        -25.2740  -15.0180   33.6600 C.ar      1 5DR168      0.0000 
      7 CAA       -26.8570  -18.8410   31.6680 C.3       1 5DR168      0.0000 
      8 CAB       -31.0580  -13.8450   28.1820 C.3       1 5DR168      0.0000 
      9 NAC       -22.2380  -16.8440   33.6590 N.pl3     1 5DR168      0.0000 
     10 NAD       -25.7940  -13.9610   34.2800 N.pl3     1 5DR168      0.0000 
     11 CAE       -28.4870  -14.9800   32.0830 C.1       1 5DR168      0.0000 
     12 CAF       -27.3420  -15.3280   32.3660 C.1       1 5DR168      0.0000 
     13 CAG       -31.2870  -21.8890   32.2240 C.ar      1 5DR168      0.0000 
     14 CAH       -31.1880  -20.8380   33.1370 C.ar      1 5DR168      0.0000 
     15 CAI       -31.4190  -21.6190   30.8610 C.ar      1 5DR168      0.0000 
     16 CAJ       -31.2240  -19.5170   32.6880 C.ar      1 5DR168      0.0000 
     17 CAK       -31.4530  -20.2970   30.4140 C.ar      1 5DR168      0.0000 
     18 CAL       -32.2200  -17.5840   29.7940 C.ar      1 5DR168      0.0000 
     19 CAM       -32.2850  -16.2720   29.3390 C.ar      1 5DR168      0.0000 
     20 CAN       -30.6490  -16.9080   31.4900 C.ar      1 5DR168      0.0000 
     21 CAO       -26.1020  -17.6860   31.0150 C.3       1 5DR168      0.0000 
     22 CAP       -29.8510  -14.5330   31.7690 C.3       1 5DR168      0.0000 
     23 OAS       -31.6020  -13.9860   29.4990 O.3       1 5DR168      0.0000 
     24 CAV       -31.3520  -19.2370   31.3230 C.ar      1 5DR168      0.0000 
     25 CAW       -31.3990  -17.9130   30.8710 C.ar      1 5DR168      0.0000 
     26 CAX       -30.6990  -15.5850   31.0390 C.ar      1 5DR168      0.0000 
     27 CAZ       -31.5260  -15.2740   29.9540 C.ar      1 5DR168      0.0000 
     28 H         -21.7821  -16.3117   34.3723 H         1 5DR168      0.0000 
     29 H         -21.8747  -17.6244   33.1502 H         1 5DR168      0.0000 
     30 H         -25.1408  -13.2818   34.6147 H         1 5DR168      0.0000 
     31 H         -26.7910  -13.9415   34.3552 H         1 5DR168      0.0000 
     32 H         -31.2627  -22.8604   32.5548 H         1 5DR168      0.0000 
     33 H         -31.0886  -21.0367   34.1395 H         1 5DR168      0.0000 
     34 H         -31.4909  -22.3905   30.1889 H         1 5DR168      0.0000 
     35 H         -31.1562  -18.7438   33.3630 H         1 5DR168      0.0000 
     36 H         -31.5530  -20.0982   29.4091 H         1 5DR168      0.0000 
     37 H         -32.7795  -18.3160   29.3350 H         1 5DR168      0.0000 
     38 H         -32.8949  -16.0320   28.5449 H         1 5DR168      0.0000 
     39 H         -30.0466  -17.1472   32.2957 H         1 5DR168      0.0000 
     40 H         -25.3497  -18.0839   30.3384 H         1 5DR168      0.0000 
     41 H         -26.8001  -17.0721   30.4511 H         1 5DR168      0.0000 
     42 H         -29.8236  -13.6229   31.1375 H         1 5DR168      0.0000 
     43 H         -30.3878  -14.2496   32.6960 H         1 5DR168      0.0000 
     44 H         -26.2466  -19.4339   32.1933 H         1 5DR168      0.0000 
     45 H         -27.5623  -18.5149   32.2975 H         1 5DR168      0.0000 
     46 H         -27.3131  -19.4172   30.9898 H         1 5DR168      0.0000 
     47 H         -30.0937  -14.1077   28.1484 H         1 5DR168      0.0000 
     48 H         -31.5406  -14.4158   27.5177 H         1 5DR168      0.0000 
     49 H         -31.1164  -12.9018   27.8551 H         1 5DR168      0.0000 
@<TRIPOS>BOND
     1    2    1 ar   
     2    6    1 ar   
     3    3    2 ar   
     4    9    2 1    
     5    4    3 ar   
     6    5    4 ar   
     7   21    4 1    
     8    6    5 ar   
     9   12    5 1    
    10   10    6 1    
    11   21    7 1    
    12   44    7 1    
    13   45    7 1    
    14   46    7 1    
    15   23    8 1    
    16   47    8 1    
    17   48    8 1    
    18   49    8 1    
    19   28    9 1    
    20   29    9 1    
    21   30   10 1    
    22   31   10 1    
    23   12   11 3    
    24   22   11 1    
    25   14   13 ar   
    26   15   13 ar   
    27   32   13 1    
    28   16   14 ar   
    29   33   14 1    
    30   17   15 ar   
    31   34   15 1    
    32   24   16 ar   
    33   35   16 1    
    34   24   17 ar   
    35   36   17 1    
    36   19   18 ar   
    37   25   18 ar   
    38   37   18 1    
    39   27   19 ar   
    40   38   19 1    
    41   25   20 ar   
    42   26   20 ar   
    43   39   20 1    
    44   40   21 1    
    45   41   21 1    
    46   26   22 1    
    47   42   22 1    
    48   43   22 1    
    49   27   23 1    
    50   25   24 1    
    51   27   26 ar   
@<TRIPOS>SUBSTRUCTURE
     1 5DR168      1 GROUP   
@<TRIPOS>SET

