#    Name: 3apf_BMW_1_INTS_M
#    Modification time : Mon Mar 24 17:59:25 2014

@<TRIPOS>MOLECULE
3apf_BMW_1_INTS_M
   86     0     9     0     0
SMALL
NO_CHARGES


@<TRIPOS>ATOM
      1 CA         43.7930   16.8080   30.8445 C.3       3 GLC5        0.0000 
      2 CA         44.8500   17.6400   32.5020 C.3       9 GLL5        0.0000 
      3 CA         42.7360   15.9760   29.1870 C.3       6 GLP5        0.0000 
      4 CA         45.0105   16.1705   30.5370 C.3       3 GLC5        0.0000 
      5 CA         44.0210   15.4560   32.0370 C.3       9 GLL5        0.0000 
      6 CA         46.0000   16.8850   29.0370 C.3       6 GLP5        0.0000 
      7 CA         45.3090   12.8830   32.2135 C.3       3 GLC5        0.0000 
      8 CA         44.7470   13.6060   30.7920 C.3       9 GLL5        0.0000 
      9 CA         45.8710   12.1600   33.6350 C.3       6 GLP5        0.0000 
     10 CA         45.3735   15.2455   29.9145 C.3       3 GLC5        0.0000 
     11 CA         43.7415   14.7910   29.9895 C.3       3 GLC5        0.0000 
     12 CA         45.6085   11.9120   31.5225 C.3       3 GLC5        0.0000 
     13 CA         45.3460   11.6640   29.4100 C.3       9 GLL5        0.0000 
     14 CA         43.6960   10.3590   28.6885 C.3       3 GLC5        0.0000 
     15 CA         42.0460    9.0540   27.9670 C.3       6 GLP5        0.0000 
     16 CA         44.4985   10.1545   30.1755 C.3       3 GLC5        0.0000 
     17 CA         43.6510    8.6450   30.9410 C.3       6 GLP5        0.0000 
     18 CA         45.0360    9.9080   27.3410 C.3       3 GLC5        0.0000 
     19 CA         46.2790   11.3580   28.2330 C.3       9 GLL5        0.0000 
     20 CA         43.7930    8.4580   26.4490 C.3       6 GLP5        0.0000 
     21 CA         47.7575   10.3820   29.1750 C.3       3 GLC5        0.0000 
     22 CA         49.2360    9.4060   30.1170 C.3       6 GLP5        0.0000 
     23 CA         47.3465   10.5930   26.6215 C.3       3 GLC5        0.0000 
     24 CA         48.4140    9.8280   25.0100 C.3       6 GLP5        0.0000 
     25 CA         45.8855   12.3190   26.5195 C.3       3 GLC5        0.0000 
     26 CA         45.4920   13.2800   24.8060 C.3       6 GLP5        0.0000 
     27 N          48.5745   10.8735   28.0950 N.am      2 SEC2        0.0000 
     28 N          47.6240   11.7470   28.4100 N.am      8 SEL2        0.0000 
     29 N          49.5250   10.0000   27.7800 N.am      5 SEP2        0.0000 
     30 CA         48.4240   11.2745   29.3140 C.3       3 GLC5        0.0000 
     31 CA         47.6120   13.1430   28.5110 C.3       9 GLL5        0.0000 
     32 CA         48.6185   11.9100   26.9345 C.3       3 GLC5        0.0000 
     33 CA         49.6250   10.6770   25.3580 C.3       6 GLP5        0.0000 
     34 CA         47.0910   14.7285   27.9845 C.3       3 GLC5        0.0000 
     35 CA         46.5700   16.3140   27.4580 C.3       6 GLP5        0.0000 
     36 CA         47.1860   13.4380   26.5535 C.3       3 GLC5        0.0000 
     37 CA         46.7600   13.7330   24.5960 C.3       6 GLP5        0.0000 
     38 CA         46.4785   12.7780   31.7820 C.3       3 GLC5        0.0000 
     39 CA         47.0860   13.3960   29.9290 C.3       9 GLL5        0.0000 
     40 CA         46.5430   15.1405   29.4830 C.3       3 GLC5        0.0000 
     41 CA         41.2165   13.1635   29.2025 C.3       3 GLC5        0.0000 
     42 CA         40.9510   12.0580   30.7460 C.3       9 GLL5        0.0000 
     43 CA         41.4820   14.2690   27.6590 C.3       6 GLP5        0.0000 
     44 CA         40.6695   10.4515   33.6995 C.3       3 GLC5        0.0000 
     45 CA         39.4090   12.1660   33.0410 C.3       9 GLL5        0.0000 
     46 CA         41.9300    8.7370   34.3580 C.3       6 GLP5        0.0000 
     47 N          40.0140   10.7695   28.6315 N.am      2 SEC2        0.0000 
     48 N          39.3630   10.5980   29.7110 N.am      8 SEL2        0.0000 
     49 N          40.6650   10.9410   27.5520 N.am      5 SEP2        0.0000 
     50 N          39.1030   12.1200   29.1860 N.am      2 SEC2        0.0000 
     51 N          38.8430   13.6420   28.6610 N.am      5 SEP2        0.0000 
     52 O          38.1115   10.4950   29.7825 O.2       1 ALC1        0.0000 
     53 O          39.3630   10.5980   29.7110 O.2       7 ALL1        0.0000 
     54 O          36.8600   10.3920   29.8540 O.2       4 ALP1        0.0000 
     55 CA         45.4900   16.5057   34.0343 C.3       3 GLC5        0.0000 
     56 CA         45.4630   15.4910   35.7290 C.3       6 GLP5        0.0000 
     57 CA         46.3107   17.4120   30.5640 C.3       3 GLC5        0.0000 
     58 CA         47.0590   18.4770   32.0050 C.3       9 GLL5        0.0000 
     59 CA         45.7900   19.9917   30.6393 C.3       3 GLC5        0.0000 
     60 CA         46.6200   19.7840   32.1680 C.3       9 GLL5        0.0000 
     61 CA         45.6230   20.0760   28.9460 C.3       6 GLP5        0.0000 
     62 CA         46.2161   18.6710   30.5605 C.3       3 GLC5        0.0000 
     63 CA         45.1270   19.1883   30.7620 C.3       3 GLC5        0.0000 
     64 CA         45.3155   17.5928   30.8075 C.3       3 GLC5        0.0000 
     65 CA         44.4120   18.9610   32.6540 C.3       9 GLL5        0.0000 
     66 CA         44.2343   12.5640   27.9098 C.3       3 GLC5        0.0000 
     67 CA         42.6560   13.6170   26.9980 C.3       6 GLP5        0.0000 
     68 CA         44.4390   13.2415   32.7756 C.3       3 GLC5        0.0000 
     69 CA         42.6000   13.5230   31.6970 C.3       9 GLL5        0.0000 
     70 CA         42.3665   14.5743   30.4750 C.3       3 GLC5        0.0000 
     71 CA         39.7832   12.5763   35.1492 C.3       3 GLC5        0.0000 
     72 CA         39.5580   12.6310   37.2880 C.3       6 GLP5        0.0000 
     73 CA         38.3160   10.0735   33.3875 C.3       3 GLC5        0.0000 
     74 CA         37.4350    8.3650   34.2740 C.3       6 GLP5        0.0000 
     75 CA         39.1280   13.6819   31.6649 C.3       3 GLC5        0.0000 
     76 CA         38.0510   14.8560   30.6070 C.3       6 GLP5        0.0000 
     77 CA         40.8524    9.9906   32.1251 C.3       3 GLC5        0.0000 
     78 CA         38.9850   11.3980   31.9610 C.3       9 GLL5        0.0000 
     79 CA         42.0340    8.4340   32.8830 C.3       6 GLP5        0.0000 
     80 CA         38.7164   12.6501   30.4911 C.3       3 GLC5        0.0000 
     81 CA         39.7620   11.3350   30.8010 C.3       9 GLL5        0.0000 
     82 CA         37.7620   13.7530   29.6150 C.3       6 GLP5        0.0000 
     83 CA         44.1594   15.5849   34.2111 C.3       3 GLC5        0.0000 
     84 CA         42.8070   14.7900   32.2340 C.3       9 GLL5        0.0000 
     85 CA         42.7959   15.8274   30.9401 C.3       3 GLC5        0.0000 
     86 CA         42.7390   16.8280   33.4350 C.3       9 GLL5        0.0000 
@<TRIPOS>BOND
@<TRIPOS>SUBSTRUCTURE
     1 ALC1       52 GROUP        1 X    ALC  0     ROOT ALC X 1
     2 SEC2       27 GROUP        1 X    SEC  0     **** SEC X 2
     3 GLC5        1 GROUP        1 X    GLC  0     **** GLC X 6
     4 ALP1       54 GROUP        1 Y    ALP  0     ROOT ALP Y 8
     5 SEP2       29 GROUP        1 Y    SEP  0     **** SEP Y 9
     6 GLP5        3 GROUP        1 Y    GLP  0     **** GLP Y 13
     7 ALL1       53 GROUP        1 Z    ALL  0     ROOT ALL Z 15
     8 SEL2       28 GROUP        1 Z    SEL  0     **** SEL Z 16
     9 GLL5        2 GROUP        1 Z    GLL  0     **** GLL Z 20
@<TRIPOS>SET

