#    Name: 3apf_BMW_1_ligand
#    Modification time : Mon Mar 24 17:59:25 2014

@<TRIPOS>MOLECULE
3apf_BMW_1_ligand
   53    58     1     0     0
SMALL
NO_CHARGES


@<TRIPOS>ATOM
      1 C1         46.1840   17.4010   32.1770 C.ar      1 BMW1103     0.0000 
      2 C2         47.0590   18.4770   32.0050 C.ar      1 BMW1103     0.0000 
      3 N3         48.3540   18.5450   31.7040 N.2       1 BMW1103     0.0000 
      4 C5         48.7190   19.8280   31.6720 C.2       1 BMW1103     0.0000 
      5 N6         47.6560   20.5860   31.9530 N.pl3     1 BMW1103     0.0000 
      6 C7         46.6200   19.7840   32.1680 C.ar      1 BMW1103     0.0000 
      7 C8         45.2940   20.0310   32.4970 C.ar      1 BMW1103     0.0000 
      8 C9         44.4120   18.9610   32.6540 C.ar      1 BMW1103     0.0000 
      9 C10        44.8500   17.6400   32.5020 C.ar      1 BMW1103     0.0000 
     10 N11        43.9740   16.6500   32.6500 N.pl3     1 BMW1103     0.0000 
     11 C12        42.7390   16.8280   33.4350 C.3       1 BMW1103     0.0000 
     12 C13        41.8560   15.6410   33.0670 C.3       1 BMW1103     0.0000 
     13 C14        42.8070   14.7900   32.2340 C.ar      1 BMW1103     0.0000 
     14 C15        44.0210   15.4560   32.0370 C.ar      1 BMW1103     0.0000 
     15 N16        44.9680   14.8310   31.3090 N.ar      1 BMW1103     0.0000 
     16 C17        44.7470   13.6060   30.7920 C.ar      1 BMW1103     0.0000 
     17 N18        45.7020   12.9250   30.0500 N.3       1 BMW1103     0.0000 
     18 C19        45.3460   11.6640   29.4100 C.3       1 BMW1103     0.0000 
     19 C20        46.2790   11.3580   28.2330 C.3       1 BMW1103     0.0000 
     20 O21        47.6240   11.7470   28.4100 O.3       1 BMW1103     0.0000 
     21 C22        47.6120   13.1430   28.5110 C.3       1 BMW1103     0.0000 
     22 C23        47.0860   13.3960   29.9290 C.3       1 BMW1103     0.0000 
     23 N24        43.5880   12.9770   30.9830 N.ar      1 BMW1103     0.0000 
     24 C25        42.6000   13.5230   31.6970 C.ar      1 BMW1103     0.0000 
     25 C26        41.3940   12.8220   31.8290 C.ar      1 BMW1103     0.0000 
     26 C27        40.9510   12.0580   30.7460 C.ar      1 BMW1103     0.0000 
     27 C28        40.6080   12.8770   32.9800 C.ar      1 BMW1103     0.0000 
     28 C29        39.4090   12.1660   33.0410 C.ar      1 BMW1103     0.0000 
     29 C30        38.9850   11.3980   31.9610 C.ar      1 BMW1103     0.0000 
     30 C31        39.7620   11.3350   30.8010 C.ar      1 BMW1103     0.0000 
     31 O32        39.3630   10.5980   29.7110 O.3       1 BMW1103     0.0000 
     32 H          46.5235   16.4407   32.0642 H         1 BMW1103     0.0000 
     33 H          49.6141   20.1584   31.4759 H         1 BMW1103     0.0000 
     34 H          47.6470   21.5564   31.9922 H         1 BMW1103     0.0000 
     35 H          44.9617   20.9922   32.6245 H         1 BMW1103     0.0000 
     36 H          43.4228   19.1440   32.8854 H         1 BMW1103     0.0000 
     37 H          42.2361   17.7348   33.1609 H         1 BMW1103     0.0000 
     38 H          42.9440   16.7970   34.4873 H         1 BMW1103     0.0000 
     39 H          41.0484   15.9645   32.4725 H         1 BMW1103     0.0000 
     40 H          41.5749   15.1186   33.9379 H         1 BMW1103     0.0000 
     41 H          44.3172   11.6940   29.0281 H         1 BMW1103     0.0000 
     42 H          45.4125   10.8301   30.1209 H         1 BMW1103     0.0000 
     43 H          45.8266   11.8431   27.3281 H         1 BMW1103     0.0000 
     44 H          46.1926   10.2579   28.0304 H         1 BMW1103     0.0000 
     45 H          46.9322   13.6113   27.8224 H         1 BMW1103     0.0000 
     46 H          48.5915   13.5806   28.4434 H         1 BMW1103     0.0000 
     47 H          47.7382   12.8733   30.6333 H         1 BMW1103     0.0000 
     48 H          47.1515   14.4681   30.1311 H         1 BMW1103     0.0000 
     49 H          41.5235   12.0300   29.8805 H         1 BMW1103     0.0000 
     50 H          40.9116   13.4408   33.7827 H         1 BMW1103     0.0000 
     51 H          38.8327   12.2112   33.8955 H         1 BMW1103     0.0000 
     52 H          38.1019   10.8767   32.0135 H         1 BMW1103     0.0000 
     53 H          38.5443   10.1103   30.0141 H         1 BMW1103     0.0000 
@<TRIPOS>BOND
     1    2    1 ar   
     2    9    1 ar   
     3   32    1 1    
     4    3    2 1    
     5    6    2 ar   
     6    4    3 2    
     7    5    4 1    
     8   33    4 1    
     9    6    5 1    
    10   34    5 1    
    11    7    6 ar   
    12    8    7 ar   
    13   35    7 1    
    14    9    8 ar   
    15   36    8 1    
    16   10    9 1    
    17   11   10 1    
    18   14   10 1    
    19   12   11 1    
    20   37   11 1    
    21   38   11 1    
    22   13   12 1    
    23   39   12 1    
    24   40   12 1    
    25   14   13 ar   
    26   24   13 ar   
    27   15   14 ar   
    28   16   15 ar   
    29   17   16 1    
    30   23   16 ar   
    31   18   17 1    
    32   22   17 1    
    33   19   18 1    
    34   41   18 1    
    35   42   18 1    
    36   20   19 1    
    37   43   19 1    
    38   44   19 1    
    39   21   20 1    
    40   22   21 1    
    41   45   21 1    
    42   46   21 1    
    43   47   22 1    
    44   48   22 1    
    45   24   23 ar   
    46   25   24 1    
    47   26   25 ar   
    48   27   25 ar   
    49   30   26 ar   
    50   49   26 1    
    51   28   27 ar   
    52   50   27 1    
    53   29   28 ar   
    54   51   28 1    
    55   30   29 ar   
    56   52   29 1    
    57   31   30 1    
    58   53   31 1    
@<TRIPOS>SUBSTRUCTURE
     1 BMW1103     1 GROUP   
@<TRIPOS>SET

