#    Name: 3a28_NAD_8_INTS_M
#    Modification time : Tue Mar 25 11:32:36 2014

@<TRIPOS>MOLECULE
3a28_NAD_8_INTS_M
  104     0     9     0     0
SMALL
NO_CHARGES


@<TRIPOS>ATOM
      1 CA         24.0315  -16.4420   39.5485 C.3       3 GLC5        0.0000 
      2 CA         22.2110  -16.9380   39.3830 C.3       9 GLL5        0.0000 
      3 CA         25.8520  -15.9460   39.7140 C.3       6 GLP5        0.0000 
      4 CA         21.4785  -16.7575   36.7275 C.3       3 GLC5        0.0000 
      5 CA         22.0460  -17.8850   38.1920 C.3       9 GLL5        0.0000 
      6 CA         20.9110  -15.6300   35.2630 C.3       6 GLP5        0.0000 
      7 N          22.5455  -18.3905   35.9230 N.am      2 SEC2        0.0000 
      8 N          22.8010  -17.3830   37.0750 N.am      8 SEL2        0.0000 
      9 N          22.2900  -19.3980   34.7710 N.am      5 SEP2        0.0000 
     10 O          24.3125  -17.5405   37.1200 O.2       1 ALC1        0.0000 
     11 O          22.8010  -17.3830   37.0750 O.2       7 ALL1        0.0000 
     12 O          25.8240  -17.6980   37.1650 O.2       4 ALP1        0.0000 
     13 N          22.7065  -19.7515   36.2980 N.am      2 SEC2        0.0000 
     14 N          23.1230  -20.1050   37.8250 N.am      8 SEL2        0.0000 
     15 O          24.3985  -19.9720   37.7255 O.2       1 ALC1        0.0000 
     16 O          23.1230  -20.1050   37.8250 O.2       7 ALL1        0.0000 
     17 O          25.6740  -19.8390   37.6260 O.2       4 ALP1        0.0000 
     18 CA         24.6195  -17.3885   39.8190 C.3       3 GLC5        0.0000 
     19 CA         23.3870  -18.8310   39.9240 C.3       9 GLL5        0.0000 
     20 CA         25.6570  -23.3230   41.6935 C.3       3 GLC5        0.0000 
     21 CA         25.2670  -22.0420   43.0970 C.3       9 GLL5        0.0000 
     22 CA         26.0470  -24.6040   40.2900 C.3       6 GLP5        0.0000 
     23 CA         27.2140  -23.0830   42.9655 C.3       3 GLC5        0.0000 
     24 CA         29.1610  -24.1240   42.8340 C.3       6 GLP5        0.0000 
     25 O          26.0905  -24.0575   44.2185 O.2       1 ALC1        0.0000 
     26 O          25.0630  -22.9520   44.0300 O.2       7 ALL1        0.0000 
     27 O          27.1180  -25.1630   44.4070 O.2       4 ALP1        0.0000 
     28 N          27.7580  -22.0840   43.6230 N.am      2 SEC2        0.0000 
     29 N          26.5760  -21.7930   42.7590 N.am      8 SEL2        0.0000 
     30 N          28.9400  -22.3750   44.4870 N.am      5 SEP2        0.0000 
     31 CA         27.6985  -20.2605   39.9070 C.3       3 GLC5        0.0000 
     32 CA         26.8050  -20.8480   41.7850 C.3       9 GLL5        0.0000 
     33 CA         28.5920  -19.6730   38.0290 C.3       6 GLP5        0.0000 
     34 CA         26.0800  -22.2460   40.5595 C.3       3 GLC5        0.0000 
     35 CA         25.3550  -23.6440   39.3340 C.3       6 GLP5        0.0000 
     36 CA         28.8880  -20.6755   42.2715 C.3       3 GLC5        0.0000 
     37 CA         30.9710  -20.5030   42.7580 C.3       6 GLP5        0.0000 
     38 CA         27.9830  -22.4860   42.3095 C.3       3 GLC5        0.0000 
     39 CA         27.7545  -20.1570   43.2355 C.3       3 GLC5        0.0000 
     40 CA         28.7040  -19.4660   44.6860 C.3       6 GLP5        0.0000 
     41 CA         26.2940  -19.1340   42.6835 C.3       3 GLC5        0.0000 
     42 CA         25.7830  -17.4200   43.5820 C.3       6 GLP5        0.0000 
     43 N          20.2250  -11.2510   38.7465 N.am      2 SEC2        0.0000 
     44 N          19.7110  -12.3390   39.5120 N.am      8 SEL2        0.0000 
     45 N          20.7390  -10.1630   37.9810 N.am      5 SEP2        0.0000 
     46 N          16.3585  -12.0925   39.6190 N.am      2 SEC2        0.0000 
     47 N          17.3520  -12.2280   40.2770 N.am      8 SEL2        0.0000 
     48 N          15.3650  -11.9570   38.9610 N.am      5 SEP2        0.0000 
     49 CA         20.8520  -10.8395   41.1730 C.3       3 GLC5        0.0000 
     50 CA         20.6100  -12.6080   42.1810 C.3       9 GLL5        0.0000 
     51 CA         21.0940   -9.0710   40.1650 C.3       6 GLP5        0.0000 
     52 CA         19.9615  -10.5720   42.7005 C.3       3 GLC5        0.0000 
     53 CA         20.8210  -12.3670   43.6540 C.3       9 GLL5        0.0000 
     54 CA         19.1020   -8.7770   41.7470 C.3       6 GLP5        0.0000 
     55 CA         22.0995  -11.5800   45.1985 C.3       3 GLC5        0.0000 
     56 CA         23.3780  -10.7930   46.7430 C.3       6 GLP5        0.0000 
     57 CA         20.9850  -15.4230   45.0580 C.3       3 GLC5        0.0000 
     58 CA         20.3740  -13.4730   44.6150 C.3       9 GLL5        0.0000 
     59 CA         21.5960  -17.3730   45.5010 C.3       6 GLP5        0.0000 
     60 N          20.8700  -13.4845   47.1795 N.am      2 SEC2        0.0000 
     61 N          21.2660  -13.5410   45.7380 N.am      8 SEL2        0.0000 
     62 N          20.4740  -13.4280   48.6210 N.am      5 SEP2        0.0000 
     63 O          22.4045  -13.6885   44.9320 O.2       1 ALC1        0.0000 
     64 O          21.2660  -13.5410   45.7380 O.2       7 ALL1        0.0000 
     65 O          23.5430  -13.8360   44.1260 O.2       4 ALP1        0.0000 
     66 CA         19.0660  -13.1800   47.1640 C.3       3 GLC5        0.0000 
     67 CA         18.9880  -13.0020   45.0240 C.3       9 GLL5        0.0000 
     68 CA         19.1440  -13.3580   49.3040 C.3       6 GLP5        0.0000 
     69 N          17.5230  -13.2300   46.9695 N.am      2 SEC2        0.0000 
     70 N          18.6120  -13.6050   46.2800 N.am      8 SEL2        0.0000 
     71 N          16.4340  -12.8550   47.6590 N.am      5 SEP2        0.0000 
     72 N          19.5430  -13.5165   47.4505 N.am      2 SEC2        0.0000 
     73 CA         19.1565  -10.1500   43.4365 C.3       3 GLC5        0.0000 
     74 CA         19.2110  -11.5230   45.1260 C.3       9 GLL5        0.0000 
     75 CA         15.8960   -8.1065   42.7805 C.3       3 GLC5        0.0000 
     76 CA         15.8650   -9.9410   43.9850 C.3       9 GLL5        0.0000 
     77 CA         15.9270   -6.2720   41.5760 C.3       6 GLP5        0.0000 
     78 N          13.5775   -8.2005   42.1875 N.am      2 SEC2        0.0000 
     79 N          13.9770   -9.3720   42.7760 N.am      8 SEL2        0.0000 
     80 N          13.1780   -7.0290   41.5990 N.am      5 SEP2        0.0000 
     81 O          14.3870  -10.0255   40.6800 O.2       1 ALC1        0.0000 
     82 O          15.3530  -10.7850   41.7060 O.2       7 ALL1        0.0000 
     83 O          13.4210   -9.2660   39.6540 O.2       4 ALP1        0.0000 
     84 CA         24.9138  -22.2497   40.6393 C.3       3 GLC5        0.0000 
     85 CA         24.6750  -20.3960   41.4640 C.3       9 GLL5        0.0000 
     86 CA         25.8242  -21.1898   44.3025 C.3       3 GLC5        0.0000 
     87 CA         24.2700  -21.3150   42.4250 C.3       9 GLL5        0.0000 
     88 CA         26.8800  -20.7010   45.8440 C.3       6 GLP5        0.0000 
     89 CA         25.1277  -19.1378   42.7632 C.3       3 GLC5        0.0000 
     90 CA         23.7673  -21.4973   44.5340 C.3       3 GLC5        0.0000 
     91 CA         22.7660  -21.3160   46.3070 C.3       6 GLP5        0.0000 
     92 CA         18.3385  -14.4428   44.3028 C.3       3 GLC5        0.0000 
     93 CA         16.9960  -15.6480   43.7860 C.3       6 GLP5        0.0000 
     94 CA         17.7980   -9.5580   42.8670 C.3       3 GLC5        0.0000 
     95 CA         17.1230  -10.7370   43.9890 C.3       9 GLL5        0.0000 
     96 CA         17.5010   -8.5370   44.6325 C.3       3 GLC5        0.0000 
     97 CA         18.5080   -6.7350   45.2780 C.3       6 GLP5        0.0000 
     98 CA         16.1285  -12.3450   43.8960 C.3       3 GLC5        0.0000 
     99 CA         15.7630  -14.3510   43.8050 C.3       6 GLP5        0.0000 
    100 CA         16.9645   -9.5583   48.0083 C.3       3 GLC5        0.0000 
    101 CA         16.5490   -9.2040   46.2760 C.3       9 GLL5        0.0000 
    102 CA         16.8320   -9.5420   49.7630 C.3       6 GLP5        0.0000 
    103 CA         17.6754   -8.1397   45.6304 C.3       3 GLC5        0.0000 
    104 CA         17.6450   -9.9450   46.2310 C.3       9 GLL5        0.0000 
@<TRIPOS>BOND
@<TRIPOS>SUBSTRUCTURE
     1 ALC1       10 GROUP        1 X    ALC  0     ROOT ALC X 1
     2 SEC2        7 GROUP        1 X    SEC  0     **** SEC X 2
     3 GLC5        1 GROUP        1 X    GLC  0     **** GLC X 6
     4 ALP1       12 GROUP        1 Y    ALP  0     ROOT ALP Y 8
     5 SEP2        9 GROUP        1 Y    SEP  0     **** SEP Y 9
     6 GLP5        3 GROUP        1 Y    GLP  0     **** GLP Y 13
     7 ALL1       11 GROUP        1 Z    ALL  0     ROOT ALL Z 15
     8 SEL2        8 GROUP        1 Z    SEL  0     **** SEL Z 16
     9 GLL5        2 GROUP        1 Z    GLL  0     **** GLL Z 20
@<TRIPOS>SET

