#    Name: 3a28_NAD_8_ligand
#    Modification time : Tue Mar 25 11:32:36 2014

@<TRIPOS>MOLECULE
3a28_NAD_8_ligand
   70    74     1     0     0
SMALL
NO_CHARGES


@<TRIPOS>ATOM
      1 PA         18.6800  -15.3450   39.0340 P.3       1 NAD9300     0.0000 
      2 O1A        17.9900  -16.6150   39.3430 O.co2     1 NAD9300     0.0000 
      3 O2A        18.2150  -14.6250   37.8170 O.co2     1 NAD9300     0.0000 
      4 O5B        20.2610  -15.5750   38.9160 O.3       1 NAD9300     0.0000 
      5 C5B        20.9060  -16.3860   39.9160 C.3       1 NAD9300     0.0000 
      6 C4B        22.2110  -16.9380   39.3830 C.3       1 NAD9300     0.0000 
      7 O4B        22.7310  -17.7340   40.4720 O.3       1 NAD9300     0.0000 
      8 C3B        22.0460  -17.8850   38.1920 C.3       1 NAD9300     0.0000 
      9 O3B        22.8010  -17.3830   37.0750 O.3       1 NAD9300     0.0000 
     10 C2B        22.4870  -19.2360   38.7820 C.3       1 NAD9300     0.0000 
     11 O2B        23.1230  -20.1050   37.8250 O.3       1 NAD9300     0.0000 
     12 C1B        23.3870  -18.8310   39.9240 C.3       1 NAD9300     0.0000 
     13 N9A        23.5020  -19.8430   40.9680 N.pl3     1 NAD9300     0.0000 
     14 C8A        22.4850  -20.4470   41.6530 C.2       1 NAD9300     0.0000 
     15 N7A        22.8960  -21.3420   42.5420 N.2       1 NAD9300     0.0000 
     16 C5A        24.2700  -21.3150   42.4250 C.ar      1 NAD9300     0.0000 
     17 C6A        25.2670  -22.0420   43.0970 C.ar      1 NAD9300     0.0000 
     18 N6A        25.0630  -22.9520   44.0300 N.pl3     1 NAD9300     0.0000 
     19 N1A        26.5760  -21.7930   42.7590 N.ar      1 NAD9300     0.0000 
     20 C2A        26.8050  -20.8480   41.7850 C.ar      1 NAD9300     0.0000 
     21 N3A        25.9540  -20.1150   41.0940 N.ar      1 NAD9300     0.0000 
     22 C4A        24.6750  -20.3960   41.4640 C.ar      1 NAD9300     0.0000 
     23 O3         18.5730  -14.4280   40.2830 O.3       1 NAD9300     0.0000 
     24 PN         18.6900  -12.8060   40.4740 P.3       1 NAD9300     0.0000 
     25 O1N        19.7110  -12.3390   39.5120 O.co2     1 NAD9300     0.0000 
     26 O2N        17.3520  -12.2280   40.2770 O.co2     1 NAD9300     0.0000 
     27 O5D        19.2190  -12.8160   41.9610 O.3       1 NAD9300     0.0000 
     28 C5D        20.6100  -12.6080   42.1810 C.3       1 NAD9300     0.0000 
     29 C4D        20.8210  -12.3670   43.6540 C.3       1 NAD9300     0.0000 
     30 O4D        20.0300  -11.1990   44.0320 O.3       1 NAD9300     0.0000 
     31 C3D        20.3740  -13.4730   44.6150 C.3       1 NAD9300     0.0000 
     32 O3D        21.2660  -13.5410   45.7380 O.3       1 NAD9300     0.0000 
     33 C2D        18.9880  -13.0020   45.0240 C.3       1 NAD9300     0.0000 
     34 O2D        18.6120  -13.6050   46.2800 O.3       1 NAD9300     0.0000 
     35 C1D        19.2110  -11.5230   45.1260 C.3       1 NAD9300     0.0000 
     36 N1N        17.9810  -10.7410   45.0920 N.pl3     1 NAD9300     0.0000 
     37 C2N        17.1230  -10.7370   43.9890 C.ar      1 NAD9300     0.0000 
     38 C3N        15.8650   -9.9410   43.9850 C.ar      1 NAD9300     0.0000 
     39 C7N        15.0280  -10.0290   42.7780 C.2       1 NAD9300     0.0000 
     40 O7N        13.9770   -9.3720   42.7760 O.2       1 NAD9300     0.0000 
     41 N7N        15.3530  -10.7850   41.7060 N.am      1 NAD9300     0.0000 
     42 C4N        15.5320   -9.0840   45.1930 C.ar      1 NAD9300     0.0000 
     43 C5N        16.5490   -9.2040   46.2760 C.ar      1 NAD9300     0.0000 
     44 C6N        17.6450   -9.9450   46.2310 C.ar      1 NAD9300     0.0000 
     45 H          20.2707  -17.2316   40.2120 H         1 NAD9300     0.0000 
     46 H          21.1237  -15.8026   40.8207 H         1 NAD9300     0.0000 
     47 H          22.8724  -16.1565   39.1456 H         1 NAD9300     0.0000 
     48 H          20.9875  -17.9406   37.9987 H         1 NAD9300     0.0000 
     49 H          21.5965  -19.6825   39.2192 H         1 NAD9300     0.0000 
     50 H          24.3357  -18.5559   39.5339 H         1 NAD9300     0.0000 
     51 H          21.5242  -20.2202   41.4840 H         1 NAD9300     0.0000 
     52 H          24.1100  -23.1133   44.2864 H         1 NAD9300     0.0000 
     53 H          25.8799  -23.3977   44.3960 H         1 NAD9300     0.0000 
     54 H          27.8844  -20.6925   41.5594 H         1 NAD9300     0.0000 
     55 H          20.9806  -11.7384   41.6340 H         1 NAD9300     0.0000 
     56 H          21.2007  -13.4783   41.8872 H         1 NAD9300     0.0000 
     57 H          21.8621  -12.1454   43.8478 H         1 NAD9300     0.0000 
     58 H          20.2877  -14.3671   44.0722 H         1 NAD9300     0.0000 
     59 H          18.3271  -13.2044   44.2314 H         1 NAD9300     0.0000 
     60 H          19.7500  -11.3363   46.0543 H         1 NAD9300     0.0000 
     61 H          17.3292  -11.2800   43.1475 H         1 NAD9300     0.0000 
     62 H          14.7101  -10.7623   40.9404 H         1 NAD9300     0.0000 
     63 H          16.2075  -11.3000   41.7736 H         1 NAD9300     0.0000 
     64 H          14.7695   -8.5451   45.2389 H         1 NAD9300     0.0000 
     65 H          16.3151   -8.6168   47.1357 H         1 NAD9300     0.0000 
     66 H          18.3185   -9.9798   47.0352 H         1 NAD9300     0.0000 
     67 H          23.7522  -17.6123   37.2817 H         1 NAD9300     0.0000 
     68 H          24.0505  -20.2391   38.1738 H         1 NAD9300     0.0000 
     69 H          22.1370  -13.1861   45.3984 H         1 NAD9300     0.0000 
     70 H          18.0085  -14.3630   46.0326 H         1 NAD9300     0.0000 
@<TRIPOS>BOND
     1    2    1 ar   
     2    3    1 ar   
     3    4    1 1    
     4   23    1 1    
     5    5    4 1    
     6    6    5 1    
     7   45    5 1    
     8   46    5 1    
     9    7    6 1    
    10    8    6 1    
    11   47    6 1    
    12   12    7 1    
    13    9    8 1    
    14   10    8 1    
    15   48    8 1    
    16   67    9 1    
    17   11   10 1    
    18   12   10 1    
    19   49   10 1    
    20   68   11 1    
    21   13   12 1    
    22   50   12 1    
    23   14   13 1    
    24   22   13 1    
    25   15   14 2    
    26   51   14 1    
    27   16   15 1    
    28   17   16 ar   
    29   22   16 ar   
    30   18   17 1    
    31   19   17 ar   
    32   52   18 1    
    33   53   18 1    
    34   20   19 ar   
    35   21   20 ar   
    36   54   20 1    
    37   22   21 ar   
    38   24   23 1    
    39   25   24 ar   
    40   26   24 ar   
    41   27   24 1    
    42   28   27 1    
    43   29   28 1    
    44   55   28 1    
    45   56   28 1    
    46   30   29 1    
    47   31   29 1    
    48   57   29 1    
    49   35   30 1    
    50   32   31 1    
    51   33   31 1    
    52   58   31 1    
    53   69   32 1    
    54   34   33 1    
    55   35   33 1    
    56   59   33 1    
    57   70   34 1    
    58   36   35 1    
    59   60   35 1    
    60   37   36 ar   
    61   44   36 ar   
    62   38   37 ar   
    63   61   37 1    
    64   39   38 1    
    65   42   38 ar   
    66   40   39 2    
    67   41   39 am   
    68   62   41 1    
    69   63   41 1    
    70   43   42 ar   
    71   64   42 1    
    72   44   43 ar   
    73   65   43 1    
    74   66   44 1    
@<TRIPOS>SUBSTRUCTURE
     1 NAD9300     1 GROUP   
@<TRIPOS>SET

