#    Name: 3ama_SKE_1_INTS_M
#    Modification time : Mon Mar 24 17:48:59 2014

@<TRIPOS>MOLECULE
3ama_SKE_1_INTS_M
   45     0     9     0     0
SMALL
NO_CHARGES


@<TRIPOS>ATOM
      1 CA        -30.5555   12.5185    4.2035 C.3       3 GLC5        0.0000 
      2 CA        -28.7600   11.7680    5.1630 C.3       9 GLL5        0.0000 
      3 CA        -32.3510   13.2690    3.2440 C.3       6 GLP5        0.0000 
      4 O         -34.0215    9.9710    2.0705 O.2       1 ALC1        0.0000 
      5 O         -32.7050    9.9840    2.5270 O.2       7 ALL1        0.0000 
      6 O         -35.3380    9.9580    1.6140 O.2       4 ALP1        0.0000 
      7 CA        -28.7160    6.9745    1.4345 C.3       3 GLC5        0.0000 
      8 CA        -28.0770    7.7870    2.6430 C.3       9 GLL5        0.0000 
      9 CA        -29.3550    6.1620    0.2260 C.3       6 GLP5        0.0000 
     10 N         -34.2855    9.2855    5.0250 N.am      2 SEC2        0.0000 
     11 N         -32.8470    9.7610    4.8840 N.am      8 SEL2        0.0000 
     12 N         -35.7240    8.8100    5.1660 N.am      5 SEP2        0.0000 
     13 CA        -31.3275   11.6720    7.5730 C.3       3 GLC5        0.0000 
     14 CA        -31.4040    9.6890    8.2320 C.3       9 GLL5        0.0000 
     15 CA        -31.2510   13.6550    6.9140 C.3       6 GLP5        0.0000 
     16 O         -33.4170    8.8760    7.5030 O.2       1 ALC1        0.0000 
     17 O         -32.2440    9.5780    7.1800 O.2       7 ALL1        0.0000 
     18 O         -34.5900    8.1740    7.8260 O.2       4 ALP1        0.0000 
     19 CA        -25.6225   11.8700    6.4215 C.3       3 GLC5        0.0000 
     20 CA        -26.7610   10.5130    5.4890 C.3       9 GLL5        0.0000 
     21 CA        -24.4840   13.2270    7.3540 C.3       6 GLP5        0.0000 
     22 CA        -26.9040   12.4585    4.4705 C.3       3 GLC5        0.0000 
     23 CA        -27.0470   14.4040    3.4520 C.3       6 GLP5        0.0000 
     24 CA        -31.0150    7.9937    8.8160 C.3       3 GLC5        0.0000 
     25 CA        -30.0060    9.7340    8.1000 C.3       9 GLL5        0.0000 
     26 CA        -31.3250    6.2760    9.4660 C.3       6 GLP5        0.0000 
     27 CA        -29.2657   11.7205    8.2650 C.3       3 GLC5        0.0000 
     28 CA        -28.9360   13.6460    7.8650 C.3       6 GLP5        0.0000 
     29 CA        -30.3960    8.0840    9.6655 C.3       3 GLC5        0.0000 
     30 CA        -29.1850    9.8560    9.2300 C.3       9 GLL5        0.0000 
     31 CA        -31.4380    8.0538    9.7730 C.3       3 GLC5        0.0000 
     32 CA        -31.1380    9.8940   10.6410 C.3       9 GLL5        0.0000 
     33 CA        -31.0679   11.7625    9.7254 C.3       3 GLC5        0.0000 
     34 CA        -31.9640    9.7690    9.5190 C.3       9 GLL5        0.0000 
     35 CA        -30.9320   13.6850    9.4060 C.3       6 GLP5        0.0000 
     36 CA        -28.4413   12.2838    3.7359 C.3       3 GLC5        0.0000 
     37 CA        -28.4810   14.0550    3.0260 C.3       6 GLP5        0.0000 
     38 CA        -28.2525   12.2598    6.5569 C.3       3 GLC5        0.0000 
     39 CA        -27.9940   10.7000    4.8540 C.3       9 GLL5        0.0000 
     40 CA        -26.6065    7.4560    5.9947 C.3       3 GLC5        0.0000 
     41 CA        -25.9770    9.4020    5.1640 C.3       9 GLL5        0.0000 
     42 CA        -27.0150    5.9670    7.3070 C.3       6 GLP5        0.0000 
     43 CA        -28.6556    7.3546    4.3460 C.3       3 GLC5        0.0000 
     44 CA        -26.4190    8.4880    4.2010 C.3       9 GLL5        0.0000 
     45 CA        -30.0300    5.9590    4.8450 C.3       6 GLP5        0.0000 
@<TRIPOS>BOND
@<TRIPOS>SUBSTRUCTURE
     1 ALC1        4 GROUP        1 X    ALC  0     ROOT ALC X 1
     2 SEC2       10 GROUP        1 X    SEC  0     **** SEC X 2
     3 GLC5        1 GROUP        1 X    GLC  0     **** GLC X 6
     4 ALP1        6 GROUP        1 Y    ALP  0     ROOT ALP Y 8
     5 SEP2       12 GROUP        1 Y    SEP  0     **** SEP Y 9
     6 GLP5        3 GROUP        1 Y    GLP  0     **** GLP Y 13
     7 ALL1        5 GROUP        1 Z    ALL  0     ROOT ALL Z 15
     8 SEL2       11 GROUP        1 Z    SEL  0     **** SEL Z 16
     9 GLL5        2 GROUP        1 Z    GLL  0     **** GLL Z 20
@<TRIPOS>SET

