#    Name: 3ama_SKE_1_ligand
#    Modification time : Mon Mar 24 17:48:59 2014

@<TRIPOS>MOLECULE
3ama_SKE_1_ligand
   39    41     1     0     0
SMALL
NO_CHARGES


@<TRIPOS>ATOM
      1 S         -28.6830   10.0970   11.9220 S.o2      1 SKE351      0.0000 
      2 C1        -32.1560    9.8830    3.7540 C.2       1 SKE351      0.0000 
      3 F1        -28.7600   11.7680    5.1630 F         1 SKE351      0.0000 
      4 N1        -32.7050    9.9840    2.5270 N.pl3     1 SKE351      0.0000 
      5 O1        -29.5200   10.0720   13.1440 O.2       1 SKE351      0.0000 
      6 C2        -31.9350    9.7100    5.8650 C.2       1 SKE351      0.0000 
      7 F2        -28.0770    7.7870    2.6430 F         1 SKE351      0.0000 
      8 N2        -32.8470    9.7610    4.8840 N.2       1 SKE351      0.0000 
      9 O2        -27.9410   11.4000   11.7950 O.2       1 SKE351      0.0000 
     10 C3        -31.4040    9.6890    8.2320 C.ar      1 SKE351      0.0000 
     11 N3        -32.2440    9.5780    7.1800 N.pl3     1 SKE351      0.0000 
     12 O3        -29.9410   10.0090    1.9880 O.2       1 SKE351      0.0000 
     13 C4        -30.0060    9.7340    8.1000 C.ar      1 SKE351      0.0000 
     14 N4        -27.6010    8.8890   11.9620 N.pl3     1 SKE351      0.0000 
     15 C5        -29.1850    9.8560    9.2300 C.ar      1 SKE351      0.0000 
     16 N5        -30.7180    9.7660    5.3140 N.2       1 SKE351      0.0000 
     17 C6        -29.7490    9.9280   10.5000 C.ar      1 SKE351      0.0000 
     18 N6        -30.8520    9.9000    4.0690 N.am      1 SKE351      0.0000 
     19 C7        -31.1380    9.8940   10.6410 C.ar      1 SKE351      0.0000 
     20 C8        -31.9640    9.7690    9.5190 C.ar      1 SKE351      0.0000 
     21 C9        -29.8050    9.9720    3.2190 C.2       1 SKE351      0.0000 
     22 C10       -28.4260    9.7910    3.8830 C.ar      1 SKE351      0.0000 
     23 C11       -27.9940   10.7000    4.8540 C.ar      1 SKE351      0.0000 
     24 C12       -26.7610   10.5130    5.4890 C.ar      1 SKE351      0.0000 
     25 C13       -25.9770    9.4020    5.1640 C.ar      1 SKE351      0.0000 
     26 C14       -26.4190    8.4880    4.2010 C.ar      1 SKE351      0.0000 
     27 C15       -27.6450    8.6810    3.5630 C.ar      1 SKE351      0.0000 
     28 H         -32.0661   10.1102    1.7681 H         1 SKE351      0.0000 
     29 H         -33.7023    9.9237    2.4848 H         1 SKE351      0.0000 
     30 H         -33.2870    9.3578    7.4104 H         1 SKE351      0.0000 
     31 H         -29.5819    9.6768    7.1647 H         1 SKE351      0.0000 
     32 H         -26.9867    8.8223   11.1757 H         1 SKE351      0.0000 
     33 H         -27.6283    8.3004   12.7700 H         1 SKE351      0.0000 
     34 H         -28.1646    9.8919    9.1150 H         1 SKE351      0.0000 
     35 H         -31.5588    9.9615   11.5786 H         1 SKE351      0.0000 
     36 H         -32.9834    9.7353    9.6326 H         1 SKE351      0.0000 
     37 H         -26.4355   11.1862    6.1874 H         1 SKE351      0.0000 
     38 H         -25.0754    9.2560    5.6323 H         1 SKE351      0.0000 
     39 H         -25.8389    7.6744    3.9646 H         1 SKE351      0.0000 
@<TRIPOS>BOND
     1    5    1 2    
     2    9    1 2    
     3   14    1 1    
     4   17    1 1    
     5    4    2 1    
     6    8    2 2    
     7   18    2 1    
     8   23    3 1    
     9   28    4 1    
    10   29    4 1    
    11    8    6 1    
    12   11    6 1    
    13   16    6 2    
    14   27    7 1    
    15   11   10 1    
    16   13   10 ar   
    17   20   10 ar   
    18   30   11 1    
    19   21   12 2    
    20   15   13 ar   
    21   31   13 1    
    22   32   14 1    
    23   33   14 1    
    24   17   15 ar   
    25   34   15 1    
    26   18   16 1    
    27   19   17 ar   
    28   21   18 am   
    29   20   19 ar   
    30   35   19 1    
    31   36   20 1    
    32   22   21 1    
    33   23   22 ar   
    34   27   22 ar   
    35   24   23 ar   
    36   25   24 ar   
    37   37   24 1    
    38   26   25 ar   
    39   38   25 1    
    40   27   26 ar   
    41   39   26 1    
@<TRIPOS>SUBSTRUCTURE
     1 SKE351      1 GROUP   
@<TRIPOS>SET

