#    Name: 2bbb_HH1_1_INTS_M
#    Modification time : Mon Mar 24 20:29:19 2014

@<TRIPOS>MOLECULE
2bbb_HH1_1_INTS_M
  114     0     9     0     0
SMALL
NO_CHARGES


@<TRIPOS>ATOM
      1 O          12.2590   20.4380    5.3295 O.2       1 ALC1        0.0000 
      2 O          13.6540   21.0860    5.2950 O.2       7 ALL1        0.0000 
      3 O          10.8640   19.7900    5.3640 O.2       4 ALP1        0.0000 
      4 N          13.8875   17.9805    3.6140 N.am      2 SEC2        0.0000 
      5 N          14.3590   18.3970    4.7680 N.am      8 SEL2        0.0000 
      6 N          13.4160   17.5640    2.4600 N.am      5 SEP2        0.0000 
      7 O          14.2645   17.2995    5.4490 O.2       1 ALC1        0.0000 
      8 O          14.3590   18.3970    4.7680 O.2       7 ALL1        0.0000 
      9 O          14.1700   16.2020    6.1300 O.2       4 ALP1        0.0000 
     10 O          13.8100   16.8545    4.5535 O.2       1 ALC1        0.0000 
     11 O          13.2610   15.3120    4.3390 O.2       4 ALP1        0.0000 
     12 CA         16.5680   20.7715    2.3225 C.3       3 GLC5        0.0000 
     13 CA         16.1560   19.7970    4.2210 C.3       9 GLL5        0.0000 
     14 CA         16.9800   21.7460    0.4240 C.3       6 GLP5        0.0000 
     15 CA         17.6315   20.6025    1.6255 C.3       3 GLC5        0.0000 
     16 CA         18.2830   19.4590    2.8270 C.3       9 GLL5        0.0000 
     17 CA         22.4470   18.0895    0.1785 C.3       3 GLC5        0.0000 
     18 CA         22.2070   17.6450    2.2720 C.3       9 GLL5        0.0000 
     19 CA         22.6870   18.5340   -1.9150 C.3       6 GLP5        0.0000 
     20 CA         19.1140   19.9175    8.5265 C.3       3 GLC5        0.0000 
     21 CA         19.4380   18.2280    7.4560 C.3       9 GLL5        0.0000 
     22 CA         18.7900   21.6070    9.5970 C.3       6 GLP5        0.0000 
     23 CA         22.6315   19.7340    7.6285 C.3       3 GLC5        0.0000 
     24 CA         20.9950   18.3710    7.3610 C.3       9 GLL5        0.0000 
     25 CA         24.2680   21.0970    7.8960 C.3       6 GLP5        0.0000 
     26 CA         20.5225   20.2160    8.1165 C.3       3 GLC5        0.0000 
     27 CA         20.0500   22.0610    8.8720 C.3       6 GLP5        0.0000 
     28 CA         22.4385   15.4650    9.7825 C.3       3 GLC5        0.0000 
     29 CA         20.9300   14.9410    8.6150 C.3       9 GLL5        0.0000 
     30 CA         23.9470   15.9890   10.9500 C.3       6 GLP5        0.0000 
     31 CA         21.0225   13.6770   11.1495 C.3       3 GLC5        0.0000 
     32 CA         19.8520   14.3990    9.4090 C.3       9 GLL5        0.0000 
     33 CA         22.1930   12.9550   12.8900 C.3       6 GLP5        0.0000 
     34 CA         16.4185   14.8370    9.5755 C.3       3 GLC5        0.0000 
     35 CA         18.5930   15.0870    9.5510 C.3       9 GLL5        0.0000 
     36 CA         14.2440   14.5870    9.6000 C.3       6 GLP5        0.0000 
     37 CA         16.4875   16.9910    9.6160 C.3       3 GLC5        0.0000 
     38 CA         18.3240   16.3550    8.9080 C.3       9 GLL5        0.0000 
     39 CA         14.6510   17.6270   10.3240 C.3       6 GLP5        0.0000 
     40 CA         18.1175   18.1680   10.1095 C.3       3 GLC5        0.0000 
     41 CA         17.9110   19.9810   11.3110 C.3       6 GLP5        0.0000 
     42 CA         17.7890   15.2750    5.3680 C.3       3 GLC5        0.0000 
     43 CA         18.1160   17.0990    5.3810 C.3       9 GLL5        0.0000 
     44 CA         17.4620   13.4510    5.3550 C.3       6 GLP5        0.0000 
     45 CA         14.4035   23.3455   11.5640 C.3       3 GLC5        0.0000 
     46 CA         13.7800   22.6220    9.9160 C.3       9 GLL5        0.0000 
     47 CA         15.0270   24.0690   13.2120 C.3       6 GLP5        0.0000 
     48 CA         12.9750   23.4045   11.6865 C.3       3 GLC5        0.0000 
     49 CA         12.3670   22.9770    9.8370 C.3       9 GLL5        0.0000 
     50 CA         13.5830   23.8320   13.5360 C.3       6 GLP5        0.0000 
     51 CA         10.7850   19.5270    8.2995 C.3       3 GLC5        0.0000 
     52 CA         11.8710   21.1470    8.2100 C.3       9 GLL5        0.0000 
     53 CA          9.6990   17.9070    8.3890 C.3       6 GLP5        0.0000 
     54 CA         11.2785   22.7810    3.1060 C.3       3 GLC5        0.0000 
     55 CA         11.7140   24.9450    3.4900 C.3       9 GLL5        0.0000 
     56 CA         10.8430   20.6170    2.7220 C.3       6 GLP5        0.0000 
     57 CA         12.2875   27.0025    3.5450 C.3       3 GLC5        0.0000 
     58 CA         12.8610   29.0600    3.6000 C.3       6 GLP5        0.0000 
     59 N          10.1810   24.1115    1.4020 N.am      2 SEC2        0.0000 
     60 N          11.4530   24.3640    2.1830 N.am      8 SEL2        0.0000 
     61 N           8.9090   23.8590    0.6210 N.am      5 SEP2        0.0000 
     62 CA         10.9385   24.3480    0.4160 C.3       3 GLC5        0.0000 
     63 CA         12.7080   24.2050    1.5010 C.3       9 GLL5        0.0000 
     64 CA          9.1690   24.4910   -0.6690 C.3       6 GLP5        0.0000 
     65 CA         15.7360   24.6825    2.9565 C.3       3 GLC5        0.0000 
     66 CA         13.6830   24.4880    2.6230 C.3       9 GLL5        0.0000 
     67 CA         17.7890   24.8770    3.2900 C.3       6 GLP5        0.0000 
     68 CA         14.1950   26.4075    2.3190 C.3       3 GLC5        0.0000 
     69 CA         14.7070   28.3270    2.0150 C.3       6 GLP5        0.0000 
     70 O          23.2265   13.2465    5.0060 O.2       1 ALC1        0.0000 
     71 O          23.1320   14.6290    5.8260 O.2       7 ALL1        0.0000 
     72 O          23.3210   11.8640    4.1860 O.2       4 ALP1        0.0000 
     73 N          20.2210   13.1090    5.2850 N.am      2 SEC2        0.0000 
     74 N          21.0270   14.2140    5.0920 N.am      8 SEL2        0.0000 
     75 N          19.4150   12.0040    5.4780 N.am      5 SEP2        0.0000 
     76 CA         19.1620   16.4910    0.7083 C.3       3 GLC5        0.0000 
     77 CA         19.7440   17.5860    1.9400 C.3       9 GLL5        0.0000 
     78 CA         17.9350   15.7080   -0.4280 C.3       6 GLP5        0.0000 
     79 CA         20.3197   18.3304    0.2640 C.3       3 GLC5        0.0000 
     80 CA         20.2730   19.0680   -1.4910 C.3       6 GLP5        0.0000 
     81 CA         21.5840   20.8355    4.2830 C.3       3 GLC5        0.0000 
     82 CA         22.1300   18.9280    2.9710 C.3       9 GLL5        0.0000 
     83 CA         21.6850   22.4250    5.5070 C.3       6 GLP5        0.0000 
     84 CA         22.4276   20.2846    2.0536 C.3       3 GLC5        0.0000 
     85 CA         20.8360   19.5640    3.1470 C.3       9 GLL5        0.0000 
     86 CA         23.3530   21.6440    1.2230 C.3       6 GLP5        0.0000 
     87 CA         22.2814   17.1834    9.0901 C.3       3 GLC5        0.0000 
     88 CA         23.5780   17.4250   10.5720 C.3       6 GLP5        0.0000 
     89 CA         20.6615   12.7970    9.5905 C.3       3 GLC5        0.0000 
     90 CA         20.9320   10.9240   10.1690 C.3       6 GLP5        0.0000 
     91 CA         18.0008   14.2700    8.0780 C.3       3 GLC5        0.0000 
     92 CA         16.7790   13.7970    6.6760 C.3       6 GLP5        0.0000 
     93 CA         20.3112   16.0850   10.6805 C.3       3 GLC5        0.0000 
     94 CA         21.4000   17.4270   11.8810 C.3       6 GLP5        0.0000 
     95 CA         17.9047   15.8410   11.0482 C.3       3 GLC5        0.0000 
     96 CA         17.3510   15.9610   12.8670 C.3       6 GLP5        0.0000 
     97 CA         17.8242   15.2135    7.5968 C.3       3 GLC5        0.0000 
     98 CA         20.1348   17.0285   10.1993 C.3       3 GLC5        0.0000 
     99 CA         12.6125   20.4385   10.2835 C.3       3 GLC5        0.0000 
    100 CA         13.2940   20.8300    8.2290 C.3       9 GLL5        0.0000 
    101 CA         11.4500   19.6970   11.9090 C.3       6 GLP5        0.0000 
    102 CA         14.2802   19.2664    9.3792 C.3       3 GLC5        0.0000 
    103 CA         14.2560   21.5300    9.0870 C.3       9 GLL5        0.0000 
    104 CA         15.0015   23.5910    8.6372 C.3       3 GLC5        0.0000 
    105 CA         15.9850   25.1060    7.7730 C.3       6 GLP5        0.0000 
    106 CA         15.9850   22.4540    9.7828 C.3       3 GLC5        0.0000 
    107 CA         17.9520   22.8320   10.0640 C.3       6 GLP5        0.0000 
    108 CA         12.2617   21.2482   10.8928 C.3       3 GLC5        0.0000 
    109 CA         11.5420   20.6975   10.2647 C.3       3 GLC5        0.0000 
    110 CA         11.3970   22.2490    9.0310 C.3       9 GLL5        0.0000 
    111 CA         12.4725   22.5325    2.0168 C.3       3 GLC5        0.0000 
    112 CA         11.9110   20.7570    1.6330 C.3       6 GLP5        0.0000 
    113 CA         13.7933   25.2752    0.5655 C.3       3 GLC5        0.0000 
    114 CA         14.3910   26.2040   -0.9310 C.3       6 GLP5        0.0000 
@<TRIPOS>BOND
@<TRIPOS>SUBSTRUCTURE
     1 ALC1        1 GROUP        1 X    ALC  0     ROOT ALC X 1
     2 SEC2        4 GROUP        1 X    SEC  0     **** SEC X 2
     3 GLC5       12 GROUP        1 X    GLC  0     **** GLC X 6
     4 ALP1        3 GROUP        1 Y    ALP  0     ROOT ALP Y 8
     5 SEP2        6 GROUP        1 Y    SEP  0     **** SEP Y 9
     6 GLP5       14 GROUP        1 Y    GLP  0     **** GLP Y 13
     7 ALL1        2 GROUP        1 Z    ALL  0     ROOT ALL Z 15
     8 SEL2        5 GROUP        1 Z    SEL  0     **** SEL Z 16
     9 GLL5       13 GROUP        1 Z    GLL  0     **** GLL Z 20
@<TRIPOS>SET

