#    Name: 2bbb_HH1_1_ligand
#    Modification time : Mon Mar 24 20:29:19 2014

@<TRIPOS>MOLECULE
2bbb_HH1_1_ligand
   86    91     1     0     0
SMALL
NO_CHARGES


@<TRIPOS>ATOM
      1 O01        12.8760   22.9320    4.3100 O.3       1 HH1301      0.0000 
      2 C02        13.9040   22.3520    4.9250 C.2       1 HH1301      0.0000 
      3 O03        14.9410   22.9190    5.1390 O.2       1 HH1301      0.0000 
      4 NP4        13.6540   21.0860    5.2950 N.am      1 HH1301      0.0000 
      5 C05        14.5960   20.3240    6.1320 C.3       1 HH1301      0.0000 
      6 C06        15.2710   19.2060    5.3240 C.3       1 HH1301      0.0000 
      7 O07        14.3590   18.3970    4.7680 O.3       1 HH1301      0.0000 
      8 C08        16.1560   19.7970    4.2210 C.3       1 HH1301      0.0000 
      9 C09        17.5450   19.1160    4.1280 C.3       1 HH1301      0.0000 
     10 C10        18.2830   19.4590    2.8270 C.3       1 HH1301      0.0000 
     11 C11        19.6540   18.8610    2.6380 C.ar      1 HH1301      0.0000 
     12 C12        19.7440   17.5860    1.9400 C.ar      1 HH1301      0.0000 
     13 C13        21.0340   16.9620    1.7490 C.ar      1 HH1301      0.0000 
     14 C14        22.2070   17.6450    2.2720 C.ar      1 HH1301      0.0000 
     15 C15        22.1300   18.9280    2.9710 C.ar      1 HH1301      0.0000 
     16 C16        20.8360   19.5640    3.1470 C.ar      1 HH1301      0.0000 
     17 C17        18.3860   19.4580    5.3790 C.2       1 HH1301      0.0000 
     18 O18        18.7810   20.5500    5.6710 O.2       1 HH1301      0.0000 
     19 C19        19.4380   18.2280    7.4560 C.3       1 HH1301      0.0000 
     20 C20        20.9950   18.3710    7.3610 C.3       1 HH1301      0.0000 
     21 C49        21.5380   16.4870    5.6560 C.3       1 HH1301      0.0000 
     22 C22        21.6120   16.9660    7.1320 C.3       1 HH1301      0.0000 
     23 C23        20.6660   16.2150    7.9700 C.ar      1 HH1301      0.0000 
     24 C24        20.9300   14.9410    8.6150 C.ar      1 HH1301      0.0000 
     25 C25        19.8520   14.3990    9.4090 C.ar      1 HH1301      0.0000 
     26 C26        18.5930   15.0870    9.5510 C.ar      1 HH1301      0.0000 
     27 C27        18.3240   16.3550    8.9080 C.ar      1 HH1301      0.0000 
     28 C28        19.4150   16.9050    8.1270 C.ar      1 HH1301      0.0000 
     29 N29        17.4900   17.6780    4.3150 N.4       1 HH1301      0.0000 
     30 C30        18.1160   17.0990    5.3810 C.2       1 HH1301      0.0000 
     31 C35        18.6910   18.2310    6.1250 C.2       1 HH1301      0.0000 
     32 C36        13.8320   19.7330    7.3350 C.3       1 HH1301      0.0000 
     33 C37        13.2940   20.8300    8.2290 C.ar      1 HH1301      0.0000 
     34 C38        14.2560   21.5300    9.0870 C.ar      1 HH1301      0.0000 
     35 C39        13.7800   22.6220    9.9160 C.ar      1 HH1301      0.0000 
     36 C40        12.3670   22.9770    9.8370 C.ar      1 HH1301      0.0000 
     37 C41        11.3970   22.2490    9.0310 C.ar      1 HH1301      0.0000 
     38 C42        11.8710   21.1470    8.2100 C.ar      1 HH1301      0.0000 
     39 C44        13.0370   24.3340    3.9770 C.3       1 HH1301      0.0000 
     40 C45        11.7140   24.9450    3.4900 C.3       1 HH1301      0.0000 
     41 O46        11.4530   24.3640    2.1830 O.3       1 HH1301      0.0000 
     42 C47        12.7080   24.2050    1.5010 C.3       1 HH1301      0.0000 
     43 C48        13.6830   24.4880    2.6230 C.3       1 HH1301      0.0000 
     44 C1         21.8780   15.0040    5.4970 C.2       1 HH1301      0.0000 
     45 N1         23.1320   14.6290    5.8260 N.am      1 HH1301      0.0000 
     46 O2         21.0270   14.2140    5.0920 O.2       1 HH1301      0.0000 
     47 H          12.7926   20.5833    5.0134 H         1 HH1301      0.0000 
     48 H          15.3628   20.9790    6.5186 H         1 HH1301      0.0000 
     49 H          15.9417   18.6785    6.0111 H         1 HH1301      0.0000 
     50 H          16.3031   20.8660    4.4095 H         1 HH1301      0.0000 
     51 H          15.6496   19.6907    3.2555 H         1 HH1301      0.0000 
     52 H          18.3565   20.5720    2.7539 H         1 HH1301      0.0000 
     53 H          17.6316   19.1579    1.9699 H         1 HH1301      0.0000 
     54 H          18.9085   17.1447    1.5936 H         1 HH1301      0.0000 
     55 H          21.1211   16.0927    1.2752 H         1 HH1301      0.0000 
     56 H          23.1285   17.2117    2.1473 H         1 HH1301      0.0000 
     57 H          22.9620   19.3586    3.3221 H         1 HH1301      0.0000 
     58 H          20.7483   20.4418    3.5943 H         1 HH1301      0.0000 
     59 H          19.0953   18.9625    8.1291 H         1 HH1301      0.0000 
     60 H          21.3634   18.7778    8.2832 H         1 HH1301      0.0000 
     61 H          21.2354   19.0072    6.5308 H         1 HH1301      0.0000 
     62 H          22.2347   17.0858    5.0616 H         1 HH1301      0.0000 
     63 H          20.5262   16.6705    5.2821 H         1 HH1301      0.0000 
     64 H          22.5602   16.9404    7.5243 H         1 HH1301      0.0000 
     65 H          21.7888   14.4799    8.5153 H         1 HH1301      0.0000 
     66 H          19.9867   13.5018    9.8834 H         1 HH1301      0.0000 
     67 H          17.8572   14.6624   10.1306 H         1 HH1301      0.0000 
     68 H          17.4645   16.8118    8.9935 H         1 HH1301      0.0000 
     69 H          18.1968   16.2244    5.6316 H         1 HH1301      0.0000 
     70 H          14.5112   19.0957    7.9004 H         1 HH1301      0.0000 
     71 H          13.0091   19.1248    6.9607 H         1 HH1301      0.0000 
     72 H          15.2126   21.2568    9.0955 H         1 HH1301      0.0000 
     73 H          14.3943   23.1147   10.5197 H         1 HH1301      0.0000 
     74 H          12.0379   23.7893   10.3830 H         1 HH1301      0.0000 
     75 H          10.4348   22.5003    9.0427 H         1 HH1301      0.0000 
     76 H          11.2411   20.6206    7.6480 H         1 HH1301      0.0000 
     77 H          13.4671   24.9462    4.6430 H         1 HH1301      0.0000 
     78 H          11.8368   26.0144    3.4321 H         1 HH1301      0.0000 
     79 H          10.9430   24.6905    4.1991 H         1 HH1301      0.0000 
     80 H          12.8421   24.9302    0.7365 H         1 HH1301      0.0000 
     81 H          12.8542   23.2096    1.1599 H         1 HH1301      0.0000 
     82 H          14.5328   23.7995    2.5445 H         1 HH1301      0.0000 
     83 H          14.0679   25.5092    2.5171 H         1 HH1301      0.0000 
     84 H          23.7395   15.3566    6.1447 H         1 HH1301      0.0000 
     85 H          23.3422   13.6569    5.7218 H         1 HH1301      0.0000 
     86 H          14.6731   17.4708    4.9769 H         1 HH1301      0.0000 
@<TRIPOS>BOND
     1    2    1 1    
     2   39    1 1    
     3    3    2 2    
     4    4    2 am   
     5    5    4 1    
     6   47    4 1    
     7    6    5 1    
     8   32    5 1    
     9   48    5 1    
    10    7    6 1    
    11    8    6 1    
    12   49    6 1    
    13   86    7 1    
    14    9    8 1    
    15   50    8 1    
    16   51    8 1    
    17   10    9 1    
    18   17    9 1    
    19   29    9 1    
    20   11   10 1    
    21   52   10 1    
    22   53   10 1    
    23   12   11 ar   
    24   16   11 ar   
    25   13   12 ar   
    26   54   12 1    
    27   14   13 ar   
    28   55   13 1    
    29   15   14 ar   
    30   56   14 1    
    31   16   15 ar   
    32   57   15 1    
    33   58   16 1    
    34   18   17 2    
    35   31   17 1    
    36   20   19 1    
    37   28   19 1    
    38   31   19 1    
    39   59   19 1    
    40   22   20 1    
    41   60   20 1    
    42   61   20 1    
    43   22   21 1    
    44   44   21 1    
    45   62   21 1    
    46   63   21 1    
    47   23   22 1    
    48   64   22 1    
    49   24   23 ar   
    50   28   23 ar   
    51   25   24 ar   
    52   65   24 1    
    53   26   25 ar   
    54   66   25 1    
    55   27   26 ar   
    56   67   26 1    
    57   28   27 ar   
    58   68   27 1    
    59   30   29 1    
    60   31   30 2    
    61   69   30 1    
    62   33   32 1    
    63   70   32 1    
    64   71   32 1    
    65   34   33 ar   
    66   38   33 ar   
    67   35   34 ar   
    68   72   34 1    
    69   36   35 ar   
    70   73   35 1    
    71   37   36 ar   
    72   74   36 1    
    73   38   37 ar   
    74   75   37 1    
    75   76   38 1    
    76   40   39 1    
    77   43   39 1    
    78   77   39 1    
    79   41   40 1    
    80   78   40 1    
    81   79   40 1    
    82   42   41 1    
    83   43   42 1    
    84   80   42 1    
    85   81   42 1    
    86   82   43 1    
    87   83   43 1    
    88   45   44 am   
    89   46   44 2    
    90   84   45 1    
    91   85   45 1    
@<TRIPOS>SUBSTRUCTURE
     1 HH1301      1 GROUP   
@<TRIPOS>SET

