#    Name: 1z07_GNP_1_INTS_M
#    Modification time : Mon Apr  7 16:19:41 2014

@<TRIPOS>MOLECULE
1z07_GNP_1_INTS_M
   85     0    15     0     0
SMALL
NO_CHARGES


@<TRIPOS>ATOM
      1 N           1.0495   35.6630  -11.0440 N.am      2 SEC2        0.0000 
      2 N           1.1580   34.3640  -10.9650 N.am     12 SEL2        0.0000 
      3 N           0.9410   36.9620  -11.1230 N.am      7 SEP2        0.0000 
      4 N           0.9430   34.2600  -12.3265 N.am      2 SEC2        0.0000 
      5 N           0.7280   34.1560  -13.6880 N.am      7 SEP2        0.0000 
      6 N          -0.2120   34.1075  -11.1705 N.am      2 SEC2        0.0000 
      7 N          -1.5820   33.8510  -11.3760 N.am      7 SEP2        0.0000 
      8 Zn          2.3315   31.2830   -9.9220 Zn        4 ZIC7        0.0000 
      9 Zn          1.8100   32.0220  -10.2930 Zn       14 ZIL7        0.0000 
     10 Zn          2.8530   30.5440   -9.5510 Zn        9 ZIP7        0.0000 
     11 N           1.4795   31.5230  -11.5605 N.am      2 SEC2        0.0000 
     12 N           1.8100   32.0220  -10.2930 N.am     12 SEL2        0.0000 
     13 N           1.1490   31.0240  -12.8280 N.am      7 SEP2        0.0000 
     14 NZ          1.1180   33.8685   -7.3550 N.4       3 LYC4        0.0000 
     15 NZ          0.8940   33.7590   -8.6830 N.4      13 LYL4        0.0000 
     16 NZ          1.3420   33.9780   -6.0270 N.4       8 LYP4        0.0000 
     17 N           1.1180   33.8685   -7.3550 N.am      2 SEC2        0.0000 
     18 N           0.8940   33.7590   -8.6830 N.am     12 SEL2        0.0000 
     19 N           1.3420   33.9780   -6.0270 N.am      7 SEP2        0.0000 
     20 N          -0.5870   33.5420   -8.4550 N.am      2 SEC2        0.0000 
     21 N          -2.0680   33.3250   -8.2270 N.am      7 SEP2        0.0000 
     22 NZ          2.6655   33.9235   -6.5815 N.4       3 LYC4        0.0000 
     23 NZ          3.9890   33.8690   -7.1360 N.4      13 LYL4        0.0000 
     24 N           5.2820   34.4060   -6.5845 N.am      2 SEC2        0.0000 
     25 N           3.9890   33.8690   -7.1360 N.am     12 SEL2        0.0000 
     26 N           6.5750   34.9430   -6.0330 N.am      7 SEP2        0.0000 
     27 N           4.7975   33.1165   -6.2160 N.am      2 SEC2        0.0000 
     28 N           5.6060   32.3640   -5.2960 N.am      7 SEP2        0.0000 
     29 N           2.6655   33.9235   -6.5815 N.am      2 SEC2        0.0000 
     30 Zn          3.4925   31.1750   -9.0670 Zn        4 ZIC7        0.0000 
     31 Zn          4.1320   31.8060   -8.5830 Zn       14 ZIL7        0.0000 
     32 N           4.7625   30.7945   -7.6005 N.am      2 SEC2        0.0000 
     33 N           4.1320   31.8060   -8.5830 N.am     12 SEL2        0.0000 
     34 N           5.3930   29.7830   -6.6180 N.am      7 SEP2        0.0000 
     35 N           6.1270   34.3225   -7.4340 N.am      2 SEC2        0.0000 
     36 N           5.6790   33.7020   -8.8350 N.am     12 SEL2        0.0000 
     37 N           7.6730   30.5755   -7.9190 N.am      2 SEC2        0.0000 
     38 N           7.2610   31.7980   -8.6810 N.am     12 SEL2        0.0000 
     39 N           8.0850   29.3530   -7.1570 N.am      7 SEP2        0.0000 
     40 N           8.6580   31.3915   -8.6505 N.am      2 SEC2        0.0000 
     41 N          10.0550   30.9850   -8.6200 N.am      7 SEP2        0.0000 
     42 CA          6.3715   36.1620   -9.8405 C.3       5 GLC5        0.0000 
     43 CA          7.9430   35.1200  -10.4020 C.3      15 GLL5        0.0000 
     44 CA          4.8000   37.2040   -9.2790 C.3      10 GLP5        0.0000 
     45 N           9.9355   37.2045   -9.1035 N.am      2 SEC2        0.0000 
     46 N          10.1830   35.9370   -9.8610 N.am     12 SEL2        0.0000 
     47 N           9.6880   38.4720   -8.3460 N.am      7 SEP2        0.0000 
     48 CA          9.4325   32.4260  -12.2370 C.3       5 GLC5        0.0000 
     49 CA         10.0700   34.4500  -11.7170 C.3      15 GLL5        0.0000 
     50 CA          8.7950   30.4020  -12.7570 C.3      10 GLP5        0.0000 
     51 O          11.7500   34.4015  -13.5715 O.2       1 ALC1        0.0000 
     52 O          10.7700   35.0380  -12.8130 O.2      11 ALL1        0.0000 
     53 O          12.7300   33.7650  -14.3300 O.2       6 ALP1        0.0000 
     54 CA         12.5145   32.8765   -9.5390 C.3       5 GLC5        0.0000 
     55 CA         11.0160   33.8780  -10.6620 C.3      15 GLL5        0.0000 
     56 CA         14.0130   31.8750   -8.4160 C.3      10 GLP5        0.0000 
     57 O          12.3005   32.0220  -11.7520 O.2       1 ALC1        0.0000 
     58 O          12.1840   33.3030  -11.2150 O.2      11 ALL1        0.0000 
     59 O          12.4170   30.7410  -12.2890 O.2       6 ALP1        0.0000 
     60 CA         13.0910   33.8500   -9.5485 C.3       5 GLC5        0.0000 
     61 CA         11.3350   35.1150   -9.8190 C.3      15 GLL5        0.0000 
     62 CA         14.8470   32.5850   -9.2780 C.3      10 GLP5        0.0000 
     63 CA         10.6730   36.4970   -8.4145 C.3       5 GLC5        0.0000 
     64 CA         10.0110   37.8790   -7.0100 C.3      10 GLP5        0.0000 
     65 N          10.7625   34.2790   -4.9580 N.am      2 SEC2        0.0000 
     66 N          11.4870   33.9500   -6.3560 N.am     12 SEL2        0.0000 
     67 N          10.0380   34.6080   -3.5600 N.am      7 SEP2        0.0000 
     68 CA         12.0315   36.3365   -5.6950 C.3       5 GLC5        0.0000 
     69 CA         12.6080   34.7630   -6.4340 C.3      15 GLL5        0.0000 
     70 CA         11.4550   37.9100   -4.9560 C.3      10 GLP5        0.0000 
     71 CA         12.5835   32.8770   -5.4670 C.3       5 GLC5        0.0000 
     72 CA         12.5590   30.9910   -4.5000 C.3      10 GLP5        0.0000 
     73 N          12.9395   35.8805   -3.2375 N.am      2 SEC2        0.0000 
     74 N          13.6450   34.6990   -4.2700 N.am     12 SEL2        0.0000 
     75 N          12.2340   37.0620   -2.2050 N.am      7 SEP2        0.0000 
     76 N          14.6315   33.3310   -4.6050 N.am      2 SEC2        0.0000 
     77 N          15.6180   31.9630   -4.9400 N.am      7 SEP2        0.0000 
     78 O          15.4940   36.3370   -4.9080 O.2       1 ALC1        0.0000 
     79 O          14.5570   35.9530   -5.9390 O.2      11 ALL1        0.0000 
     80 O          16.4310   36.7210   -3.8770 O.2       6 ALP1        0.0000 
     81 O          16.7040   37.3110   -6.5015 O.2       1 ALC1        0.0000 
     82 O          15.6140   37.2810   -7.5150 O.2      11 ALL1        0.0000 
     83 O          17.7940   37.3410   -5.4880 O.2       6 ALP1        0.0000 
     84 CA         11.3685   36.5965   -7.3535 C.3       5 GLC5        0.0000 
     85 CA         12.7260   35.3140   -7.6970 C.3      15 GLL5        0.0000 
@<TRIPOS>BOND
@<TRIPOS>SUBSTRUCTURE
     1 ALC1       51 GROUP        1 X    ALC  0     ROOT ALC X 1
     2 SEC2        1 GROUP        1 X    SEC  0     **** SEC X 2
     3 LYC4       14 GROUP        1 X    LYC  0     **** LYC X 4
     4 ZIC7        8 GROUP        1 X    ZIC  0     **** ZIC X 5
     5 GLC5       42 GROUP        1 X    GLC  0     **** GLC X 6
     6 ALP1       53 GROUP        1 Y    ALP  0     ROOT ALP Y 8
     7 SEP2        3 GROUP        1 Y    SEP  0     **** SEP Y 9
     8 LYP4       16 GROUP        1 Y    LYP  0     **** LYP Y 11
     9 ZIP7       10 GROUP        1 Y    ZIP  0     **** ZIP Y 12
    10 GLP5       44 GROUP        1 Y    GLP  0     **** GLP Y 13
    11 ALL1       52 GROUP        1 Z    ALL  0     ROOT ALL Z 15
    12 SEL2        2 GROUP        1 Z    SEL  0     **** SEL Z 16
    13 LYL4       15 GROUP        1 Z    LYL  0     **** LYL Z 18
    14 ZIL7        9 GROUP        1 Z    ZIL  0     **** ZIL Z 19
    15 GLL5       43 GROUP        1 Z    GLL  0     **** GLL Z 20
@<TRIPOS>SET

