#    Name: 1z07_GNP_1_ligand
#    Modification time : Mon Apr  7 16:19:41 2014

@<TRIPOS>MOLECULE
1z07_GNP_1_ligand
   44    46     1     0     0
SMALL
NO_CHARGES


@<TRIPOS>ATOM
      1 PG          1.7390   33.4700   -9.8940 P.3       1 GNP301      0.0000 
      2 O1G         1.1580   34.3640  -10.9650 O.co2     1 GNP301      0.0000 
      3 O2G         1.8100   32.0220  -10.2930 O.co2     1 GNP301      0.0000 
      4 O3G         0.8940   33.7590   -8.6830 O.co2     1 GNP301      0.0000 
      5 N3B         3.2440   33.9210   -9.5650 N.4       1 GNP301      0.0000 
      6 PB          4.2370   33.2820   -8.4750 P.3       1 GNP301      0.0000 
      7 O1B         3.9890   33.8690   -7.1360 O.co2     1 GNP301      0.0000 
      8 O2B         4.1320   31.8060   -8.5830 O.co2     1 GNP301      0.0000 
      9 O3A         5.6790   33.7020   -8.8350 O.3       1 GNP301      0.0000 
     10 PA          6.7960   32.9010   -9.5440 P.3       1 GNP301      0.0000 
     11 O1A         7.2610   31.7980   -8.6810 O.co2     1 GNP301      0.0000 
     12 O2A         6.4060   32.5320  -10.9250 O.co2     1 GNP301      0.0000 
     13 O5'         8.0240   33.8980   -9.6510 O.3       1 GNP301      0.0000 
     14 C5'         7.9430   35.1200  -10.4020 C.3       1 GNP301      0.0000 
     15 C4'         9.3090   35.5300  -10.9490 C.3       1 GNP301      0.0000 
     16 O4'        10.1830   35.9370   -9.8610 O.3       1 GNP301      0.0000 
     17 C3'        10.0700   34.4500  -11.7170 C.3       1 GNP301      0.0000 
     18 O3'        10.7700   35.0380  -12.8130 O.3       1 GNP301      0.0000 
     19 C2'        11.0160   33.8780  -10.6620 C.3       1 GNP301      0.0000 
     20 O2'        12.1840   33.3030  -11.2150 O.3       1 GNP301      0.0000 
     21 C1'        11.3350   35.1150   -9.8190 C.3       1 GNP301      0.0000 
     22 N9         11.6550   34.8290   -8.4180 N.pl3     1 GNP301      0.0000 
     23 C8         10.9590   34.0210   -7.5480 C.2       1 GNP301      0.0000 
     24 N7         11.4870   33.9500   -6.3560 N.2       1 GNP301      0.0000 
     25 C5         12.6080   34.7630   -6.4340 C.2       1 GNP301      0.0000 
     26 C6         13.5810   35.0840   -5.4480 C.2       1 GNP301      0.0000 
     27 O6         13.6450   34.6990   -4.2700 O.2       1 GNP301      0.0000 
     28 N1         14.5570   35.9530   -5.9390 N.am      1 GNP301      0.0000 
     29 C2         14.5940   36.4540   -7.2240 C.2       1 GNP301      0.0000 
     30 N2         15.6140   37.2810   -7.5150 N.pl3     1 GNP301      0.0000 
     31 N3         13.6880   36.1610   -8.1560 N.2       1 GNP301      0.0000 
     32 C4         12.7260   35.3140   -7.6970 C.2       1 GNP301      0.0000 
     33 H           7.5678   35.9491   -9.7805 H         1 GNP301      0.0000 
     34 H           7.2550   35.0209  -11.2572 H         1 GNP301      0.0000 
     35 H           9.1770   36.3827  -11.6212 H         1 GNP301      0.0000 
     36 H           9.3800   33.6994  -11.9956 H         1 GNP301      0.0000 
     37 H          10.4477   33.2146  -10.0454 H         1 GNP301      0.0000 
     38 H          12.1655   35.6292  -10.2952 H         1 GNP301      0.0000 
     39 H          10.1239   33.5446   -7.8393 H         1 GNP301      0.0000 
     40 H          15.3275   36.2473   -5.2668 H         1 GNP301      0.0000 
     41 H          15.6131   37.6741   -8.4345 H         1 GNP301      0.0000 
     42 H          16.2822   37.4290   -6.7859 H         1 GNP301      0.0000 
     43 H          11.6704   34.6029  -12.8083 H         1 GNP301      0.0000 
     44 H          11.9228   32.3685  -11.4567 H         1 GNP301      0.0000 
@<TRIPOS>BOND
     1    2    1 ar   
     2    3    1 ar   
     3    4    1 ar   
     4    5    1 1    
     5    6    5 1    
     6    7    6 ar   
     7    8    6 ar   
     8    9    6 1    
     9   10    9 1    
    10   11   10 ar   
    11   12   10 ar   
    12   13   10 1    
    13   14   13 1    
    14   15   14 1    
    15   33   14 1    
    16   34   14 1    
    17   16   15 1    
    18   17   15 1    
    19   35   15 1    
    20   21   16 1    
    21   18   17 1    
    22   19   17 1    
    23   36   17 1    
    24   43   18 1    
    25   20   19 1    
    26   21   19 1    
    27   37   19 1    
    28   44   20 1    
    29   22   21 1    
    30   38   21 1    
    31   23   22 1    
    32   32   22 1    
    33   24   23 2    
    34   39   23 1    
    35   25   24 1    
    36   26   25 1    
    37   32   25 2    
    38   27   26 2    
    39   28   26 am   
    40   29   28 1    
    41   40   28 1    
    42   30   29 1    
    43   31   29 2    
    44   41   30 1    
    45   42   30 1    
    46   32   31 1    
@<TRIPOS>SUBSTRUCTURE
     1 GNP301      1 GROUP   
@<TRIPOS>SET

