#    Name: 3a7j_ADP_1_INTS_M
#    Modification time : Mon Apr  7 18:59:07 2014

@<TRIPOS>MOLECULE
3a7j_ADP_1_INTS_M
   58     0    15     0     0
SMALL
NO_CHARGES


@<TRIPOS>ATOM
      1 NZ          4.8505   23.6945   21.6070 N.4       3 LYC4        0.0000 
      2 NZ          5.5440   22.3680   21.9220 N.4      13 LYL4        0.0000 
      3 NZ          4.1570   25.0210   21.2920 N.4       8 LYP4        0.0000 
      4 Zn          6.5460   22.3355   21.8405 Zn        4 ZIC7        0.0000 
      5 Zn          5.5440   22.3680   21.9220 Zn       14 ZIL7        0.0000 
      6 Zn          7.5480   22.3030   21.7590 Zn        9 ZIP7        0.0000 
      7 N           4.8505   23.6945   21.6070 N.am      2 SEC2        0.0000 
      8 N           5.5440   22.3680   21.9220 N.am     12 SEL2        0.0000 
      9 N           4.1570   25.0210   21.2920 N.am      7 SEP2        0.0000 
     10 N           4.1350   19.2325   22.2900 N.am      2 SEC2        0.0000 
     11 N           4.6470   20.0320   21.4050 N.am     12 SEL2        0.0000 
     12 N           3.6230   18.4330   23.1750 N.am      7 SEP2        0.0000 
     13 N           5.4845   18.9375   22.0300 N.am      2 SEC2        0.0000 
     14 N           6.3220   17.8430   22.6550 N.am      7 SEP2        0.0000 
     15 NZ          3.7730   23.2810   22.1790 N.4       3 LYC4        0.0000 
     16 NZ          3.3890   21.5410   23.0660 N.4      13 LYL4        0.0000 
     17 NZ          4.0115   24.3590   19.9170 N.4       3 LYC4        0.0000 
     18 NZ          3.8660   23.6970   18.5420 N.4      13 LYL4        0.0000 
     19 N           4.0115   24.3590   19.9170 N.am      2 SEC2        0.0000 
     20 N           3.8660   23.6970   18.5420 N.am     12 SEL2        0.0000 
     21 Zn          4.9225   20.5135   17.7770 Zn        4 ZIC7        0.0000 
     22 Zn          4.1780   21.2810   17.9320 Zn       14 ZIL7        0.0000 
     23 Zn          5.6670   19.7460   17.6220 Zn        9 ZIP7        0.0000 
     24 CA          1.4595   19.8645   20.2920 C.3       5 GLC5        0.0000 
     25 CA          1.2470   20.5810   18.6170 C.3      15 GLL5        0.0000 
     26 CA          1.6720   19.1480   21.9670 C.3      10 GLP5        0.0000 
     27 CA         -2.9635   21.1195   18.1695 C.3       5 GLC5        0.0000 
     28 CA         -1.6610   22.1710   16.9880 C.3      15 GLL5        0.0000 
     29 CA         -4.2660   20.0680   19.3510 C.3      10 GLP5        0.0000 
     30 CA         -1.5980   22.9780   18.8880 C.3       5 GLC5        0.0000 
     31 CA         -1.5350   23.7850   20.7880 C.3      10 GLP5        0.0000 
     32 O          -1.2135   28.9925   14.5915 O.2       1 ALC1        0.0000 
     33 O          -0.7390   27.8210   15.0380 O.2      11 ALL1        0.0000 
     34 O          -1.6880   30.1640   14.1450 O.2       6 ALP1        0.0000 
     35 N          -3.0435   27.1720   13.1575 N.am      2 SEC2        0.0000 
     36 N          -2.5470   26.4690   14.3910 N.am     12 SEL2        0.0000 
     37 N          -3.5400   27.8750   11.9240 N.am      7 SEP2        0.0000 
     38 CA         -4.6805   25.1480   15.5870 C.3       5 GLC5        0.0000 
     39 CA         -3.2490   25.3070   14.4210 C.3      15 GLL5        0.0000 
     40 CA         -6.1120   24.9890   16.7530 C.3      10 GLP5        0.0000 
     41 CA         -3.4070   27.0510   15.7750 C.3       5 GLC5        0.0000 
     42 CA         -3.5650   28.7950   17.1290 C.3      10 GLP5        0.0000 
     43 CA         -3.2655   26.2235   12.5455 C.3       5 GLC5        0.0000 
     44 CA         -3.2820   27.1400   10.6700 C.3      10 GLP5        0.0000 
     45 CA         -3.9380   24.7060   16.3045 C.3       5 GLC5        0.0000 
     46 CA         -1.7640   24.4230   15.8560 C.3      15 GLL5        0.0000 
     47 CA          0.4445   21.5140   14.2353 C.3       5 GLC5        0.0000 
     48 CA         -1.1550   21.1260   15.8780 C.3      15 GLL5        0.0000 
     49 CA          1.3330   22.0120   12.4010 C.3      10 GLP5        0.0000 
     50 CA         -2.2825   25.0680   17.6947 C.3       5 GLC5        0.0000 
     51 CA         -3.1980   25.1400   19.5040 C.3      10 GLP5        0.0000 
     52 CA         -2.3760   27.4520   16.3200 C.3       5 GLC5        0.0000 
     53 CA         -0.9700   25.5690   15.9150 C.3      15 GLL5        0.0000 
     54 CA         -0.3245   27.2095   16.9860 C.3       5 GLC5        0.0000 
     55 CA         -1.4040   26.6490   15.1070 C.3      15 GLL5        0.0000 
     56 CA          0.5380   28.3100   18.4610 C.3      10 GLP5        0.0000 
     57 CA         -0.0907   24.7645   14.5203 C.3       5 GLC5        0.0000 
     58 CA          1.2940   24.2630   13.3570 C.3      10 GLP5        0.0000 
@<TRIPOS>BOND
@<TRIPOS>SUBSTRUCTURE
     1 ALC1       32 GROUP        1 X    ALC  0     ROOT ALC X 1
     2 SEC2        7 GROUP        1 X    SEC  0     **** SEC X 2
     3 LYC4        1 GROUP        1 X    LYC  0     **** LYC X 4
     4 ZIC7        4 GROUP        1 X    ZIC  0     **** ZIC X 5
     5 GLC5       24 GROUP        1 X    GLC  0     **** GLC X 6
     6 ALP1       34 GROUP        1 Y    ALP  0     ROOT ALP Y 8
     7 SEP2        9 GROUP        1 Y    SEP  0     **** SEP Y 9
     8 LYP4        3 GROUP        1 Y    LYP  0     **** LYP Y 11
     9 ZIP7        6 GROUP        1 Y    ZIP  0     **** ZIP Y 12
    10 GLP5       26 GROUP        1 Y    GLP  0     **** GLP Y 13
    11 ALL1       33 GROUP        1 Z    ALL  0     ROOT ALL Z 15
    12 SEL2        8 GROUP        1 Z    SEL  0     **** SEL Z 16
    13 LYL4        2 GROUP        1 Z    LYL  0     **** LYL Z 18
    14 ZIL7        5 GROUP        1 Z    ZIL  0     **** ZIL Z 19
    15 GLL5       25 GROUP        1 Z    GLL  0     **** GLL Z 20
@<TRIPOS>SET

