#    Name: 3a7j_ADP_1_ligand
#    Modification time : Mon Apr  7 18:59:07 2014

@<TRIPOS>MOLECULE
3a7j_ADP_1_ligand
   39    41     1     0     0
SMALL
NO_CHARGES


@<TRIPOS>ATOM
      1 PB          4.4400   21.3990   21.7170 P.3       1 ADP500      0.0000 
      2 O1B         5.5440   22.3680   21.9220 O.co2     1 ADP500      0.0000 
      3 O2B         4.6470   20.0320   21.4050 O.co2     1 ADP500      0.0000 
      4 O3B         3.3890   21.5410   23.0660 O.co2     1 ADP500      0.0000 
      5 PA          3.4570   22.2730   18.7760 P.3       1 ADP500      0.0000 
      6 O1A         3.8660   23.6970   18.5420 O.co2     1 ADP500      0.0000 
      7 O2A         4.1780   21.2810   17.9320 O.co2     1 ADP500      0.0000 
      8 O3A         3.4220   21.9930   20.4630 O.3       1 ADP500      0.0000 
      9 O5'         1.9030   21.9150   18.5050 O.3       1 ADP500      0.0000 
     10 C5'         1.2470   20.5810   18.6170 C.3       1 ADP500      0.0000 
     11 C4'        -0.0210   20.7300   17.7840 C.3       1 ADP500      0.0000 
     12 O4'        -0.8310   21.7920   18.0780 O.3       1 ADP500      0.0000 
     13 C3'         0.2670   20.9060   16.2610 C.3       1 ADP500      0.0000 
     14 O3'         1.0070   19.8160   15.7650 O.3       1 ADP500      0.0000 
     15 C2'        -1.1550   21.1260   15.8780 C.3       1 ADP500      0.0000 
     16 O2'        -1.8880   19.9460   15.7730 O.3       1 ADP500      0.0000 
     17 C1'        -1.6610   22.1710   16.9880 C.3       1 ADP500      0.0000 
     18 N9         -1.1740   23.5470   16.6970 N.pl3     1 ADP500      0.0000 
     19 C8         -0.0690   24.2380   17.2040 C.2       1 ADP500      0.0000 
     20 N7          0.0990   25.4040   16.7590 N.2       1 ADP500      0.0000 
     21 C5         -0.9700   25.5690   15.9150 C.ar      1 ADP500      0.0000 
     22 C6         -1.4040   26.6490   15.1070 C.ar      1 ADP500      0.0000 
     23 N6         -0.7390   27.8210   15.0380 N.pl3     1 ADP500      0.0000 
     24 N1         -2.5470   26.4690   14.3910 N.ar      1 ADP500      0.0000 
     25 C2         -3.2490   25.3070   14.4210 C.ar      1 ADP500      0.0000 
     26 N3         -2.9280   24.2170   15.1210 N.ar      1 ADP500      0.0000 
     27 C4         -1.7640   24.4230   15.8560 C.ar      1 ADP500      0.0000 
     28 H           0.9826   20.3751   19.6276 H         1 ADP500      0.0000 
     29 H           1.8611   19.8224   18.1914 H         1 ADP500      0.0000 
     30 H          -0.5897   19.7787   17.8422 H         1 ADP500      0.0000 
     31 H           0.7711   21.8659   16.2152 H         1 ADP500      0.0000 
     32 H          -1.1400   21.7166   14.9485 H         1 ADP500      0.0000 
     33 H          -2.6296   22.0757   17.1477 H         1 ADP500      0.0000 
     34 H           0.5235   23.7652   17.8909 H         1 ADP500      0.0000 
     35 H          -1.1135   28.5031   14.4099 H         1 ADP500      0.0000 
     36 H           0.0692   27.9033   15.6211 H         1 ADP500      0.0000 
     37 H          -4.1495   25.2706   13.8194 H         1 ADP500      0.0000 
     38 H           1.8753   20.2091   15.4625 H         1 ADP500      0.0000 
     39 H          -1.2835   19.3075   15.2968 H         1 ADP500      0.0000 
@<TRIPOS>BOND
     1    2    1 ar   
     2    3    1 ar   
     3    4    1 ar   
     4    8    1 1    
     5    6    5 ar   
     6    7    5 ar   
     7    8    5 1    
     8    9    5 1    
     9   10    9 1    
    10   11   10 1    
    11   28   10 1    
    12   29   10 1    
    13   12   11 1    
    14   13   11 1    
    15   30   11 1    
    16   17   12 1    
    17   14   13 1    
    18   15   13 1    
    19   31   13 1    
    20   38   14 1    
    21   16   15 1    
    22   17   15 1    
    23   32   15 1    
    24   39   16 1    
    25   18   17 1    
    26   33   17 1    
    27   19   18 1    
    28   27   18 1    
    29   20   19 2    
    30   34   19 1    
    31   21   20 1    
    32   22   21 ar   
    33   27   21 ar   
    34   23   22 1    
    35   24   22 ar   
    36   35   23 1    
    37   36   23 1    
    38   25   24 ar   
    39   26   25 ar   
    40   37   25 1    
    41   27   26 ar   
@<TRIPOS>SUBSTRUCTURE
     1 ADP500      1 GROUP   
@<TRIPOS>SET

