#    Name: 4mbi_26K_1_INTS_M
#    Modification time : Tue Mar 25 12:07:19 2014

@<TRIPOS>MOLECULE
4mbi_26K_1_INTS_M
   36     0     6     0     0
SMALL
NO_CHARGES


@<TRIPOS>ATOM
      1 OD1        24.8355   33.8185   -6.1460 O.co2     1 ASC3        0.0000 
      2 OD1        23.5870   32.9630   -5.0260 O.co2     5 ASL3        0.0000 
      3 OD1        26.0840   34.6740   -7.2660 O.co2     3 ASP3        0.0000 
      4 CA         25.0880   40.2065   -2.1005 C.3       2 GLC5        0.0000 
      5 CA         23.7500   38.7250   -1.4760 C.3       6 GLL5        0.0000 
      6 CA         26.4260   41.6880   -2.7250 C.3       4 GLP5        0.0000 
      7 CA         25.2370   37.5515   -0.6580 C.3       2 GLC5        0.0000 
      8 CA         26.7240   36.3780    0.1600 C.3       4 GLP5        0.0000 
      9 CA         21.9215   38.3545   -1.1125 C.3       2 GLC5        0.0000 
     10 CA         23.2120   36.7370   -0.3880 C.3       6 GLL5        0.0000 
     11 CA         20.6310   39.9720   -1.8370 C.3       4 GLP5        0.0000 
     12 CA         22.0100   30.7915   -4.6255 C.3       2 GLC5        0.0000 
     13 CA         23.7340   31.6320   -4.4470 C.3       6 GLL5        0.0000 
     14 CA         20.2860   29.9510   -4.8040 C.3       4 GLP5        0.0000 
     15 CA         24.5615   31.8710   -2.7500 C.3       2 GLC5        0.0000 
     16 CA         25.3890   32.1100   -1.0530 C.3       4 GLP5        0.0000 
     17 CA         20.9925   32.0930   -5.2530 C.3       2 GLC5        0.0000 
     18 CA         22.3740   33.0070   -5.8240 C.3       6 GLL5        0.0000 
     19 CA         19.6110   31.1790   -4.6820 C.3       4 GLP5        0.0000 
     20 CA         24.4590   33.0410   -2.5215 C.3       2 GLC5        0.0000 
     21 CA         23.5290   33.9720   -3.9900 C.3       6 GLL5        0.0000 
     22 CA         24.2145   34.9790    4.2690 C.3       2 GLC5        0.0000 
     23 CA         22.9900   34.6940    2.7670 C.3       6 GLL5        0.0000 
     24 CA         25.4390   35.2640    5.7710 C.3       4 GLP5        0.0000 
     25 CA         21.8045   34.3445    4.1465 C.3       2 GLC5        0.0000 
     26 CA         20.6190   33.9950    5.5260 C.3       4 GLP5        0.0000 
     27 CA         22.0918   39.2005   -1.9550 C.3       2 GLC5        0.0000 
     28 CA         21.9335   37.3702    1.5577 C.3       2 GLC5        0.0000 
     29 CA         20.6230   38.2110    2.8400 C.3       4 GLP5        0.0000 
     30 CA         20.9932   35.9154    0.4574 C.3       2 GLC5        0.0000 
     31 CA         18.9060   36.0420    0.0650 C.3       4 GLP5        0.0000 
     32 CA         21.7883   36.5410    2.4677 C.3       2 GLC5        0.0000 
     33 CA         22.9170   35.0480    1.4240 C.3       6 GLL5        0.0000 
     34 CA         24.9023   36.0834    0.5049 C.3       2 GLC5        0.0000 
     35 CA         24.7661   34.2477    1.8876 C.3       2 GLC5        0.0000 
     36 CA         26.4890   33.3060    1.8010 C.3       4 GLP5        0.0000 
@<TRIPOS>BOND
@<TRIPOS>SUBSTRUCTURE
     1 ASC3        1 GROUP        1 X    ASC  0     ROOT ASC X 3
     2 GLC5        4 GROUP        1 X    GLC  0     **** GLC X 6
     3 ASP3        3 GROUP        1 Y    ASP  0     ROOT ASP Y 10
     4 GLP5        6 GROUP        1 Y    GLP  0     **** GLP Y 13
     5 ASL3        2 GROUP        1 Z    ASL  0     ROOT ASL Z 17
     6 GLL5        5 GROUP        1 Z    GLL  0     **** GLL Z 20
@<TRIPOS>SET

