#    Name: 4mbi_26K_1_ligand
#    Modification time : Tue Mar 25 12:07:19 2014

@<TRIPOS>MOLECULE
4mbi_26K_1_ligand
   38    40     1     0     0
SMALL
NO_CHARGES


@<TRIPOS>ATOM
      1 N1         23.5870   32.9630   -5.0260 N.4       1 26K401      0.0000 
      2 N3         23.6600   38.0040   -0.3540 N.pl3     1 26K401      0.0000 
      3 C4         22.2440   34.8110   -4.0750 C.3       1 26K401      0.0000 
      4 C5         22.9020   36.7940   -2.6990 C.2       1 26K401      0.0000 
      5 C6         23.3550   38.1330   -2.6700 C.2       1 26K401      0.0000 
      6 C7         23.7500   38.7250   -1.4760 C.2       1 26K401      0.0000 
      7 C8         23.2120   36.7370   -0.3880 C.2       1 26K401      0.0000 
      8 C10        22.9170   35.0480    1.4240 C.2       1 26K401      0.0000 
      9 C13        23.7610   37.3500    1.7530 C.2       1 26K401      0.0000 
     10 C2         23.7340   31.6320   -4.4470 C.3       1 26K401      0.0000 
     11 C1         22.3740   33.0070   -5.8240 C.3       1 26K401      0.0000 
     12 C3         23.5290   33.9720   -3.9900 C.3       1 26K401      0.0000 
     13 N2         22.5520   36.2280   -3.8890 N.pl3     1 26K401      0.0000 
     14 N7         22.8430   36.0900   -1.5300 N.2       1 26K401      0.0000 
     15 C9         23.2760   36.3220    0.9390 C.2       1 26K401      0.0000 
     16 C12        22.4430   33.9930    0.6430 C.2       1 26K401      0.0000 
     17 N5         22.2060   32.9660    1.4880 N.2       1 26K401      0.0000 
     18 N4         22.5430   33.4050    2.7730 N.pl3     1 26K401      0.0000 
     19 C11        22.9900   34.6940    2.7670 C.2       1 26K401      0.0000 
     20 N6         24.0200   38.4390    0.9360 N.2       1 26K401      0.0000 
     21 H          24.4421   33.1609   -5.6760 H         1 26K401      0.0000 
     22 H          21.5554   34.4545   -3.3047 H         1 26K401      0.0000 
     23 H          21.7878   34.6334   -5.0522 H         1 26K401      0.0000 
     24 H          23.3889   38.6676   -3.5500 H         1 26K401      0.0000 
     25 H          24.0973   39.6895   -1.4820 H         1 26K401      0.0000 
     26 H          23.8863   37.3037    2.6861 H         1 26K401      0.0000 
     27 H          24.3843   34.6638   -4.0592 H         1 26K401      0.0000 
     28 H          23.5639   33.5159   -2.9872 H         1 26K401      0.0000 
     29 H          22.4881   36.8208   -4.7590 H         1 26K401      0.0000 
     30 H          22.3210   34.0188   -0.2931 H         1 26K401      0.0000 
     31 H          22.4614   32.8427    3.5660 H         1 26K401      0.0000 
     32 H          23.2742   35.2165    3.4704 H         1 26K401      0.0000 
     33 H          23.7899   30.9246   -5.1516 H         1 26K401      0.0000 
     34 H          24.5620   31.5582   -3.8912 H         1 26K401      0.0000 
     35 H          22.9624   31.3968   -3.8560 H         1 26K401      0.0000 
     36 H          22.2342   33.9065   -6.2380 H         1 26K401      0.0000 
     37 H          22.3958   32.3412   -6.5698 H         1 26K401      0.0000 
     38 H          21.5616   32.8070   -5.2762 H         1 26K401      0.0000 
@<TRIPOS>BOND
     1   10    1 1    
     2   11    1 1    
     3   12    1 1    
     4   21    1 1    
     5    6    2 1    
     6    7    2 1    
     7   20    2 1    
     8   12    3 1    
     9   13    3 1    
    10   22    3 1    
    11   23    3 1    
    12    5    4 1    
    13   13    4 1    
    14   14    4 2    
    15    6    5 2    
    16   24    5 1    
    17   25    6 1    
    18   14    7 1    
    19   15    7 2    
    20   15    8 1    
    21   16    8 1    
    22   19    8 2    
    23   15    9 1    
    24   20    9 2    
    25   26    9 1    
    26   33   10 1    
    27   34   10 1    
    28   35   10 1    
    29   36   11 1    
    30   37   11 1    
    31   38   11 1    
    32   27   12 1    
    33   28   12 1    
    34   29   13 1    
    35   17   16 2    
    36   30   16 1    
    37   18   17 1    
    38   19   18 1    
    39   31   18 1    
    40   32   19 1    
@<TRIPOS>SUBSTRUCTURE
     1 26K401      1 GROUP   
@<TRIPOS>SET

