#    Name: 3c4z_ADP_1_INTS_M
#    Modification time : Mon Mar 24 20:31:54 2014

@<TRIPOS>MOLECULE
3c4z_ADP_1_INTS_M
   56     0    15     0     0
SMALL
NO_CHARGES


@<TRIPOS>ATOM
      1 N         -32.9240  -24.1140   17.5295 N.am      2 SEC2        0.0000 
      2 N         -31.5170  -24.3360   17.5900 N.am     12 SEL2        0.0000 
      3 N         -34.3310  -23.8920   17.4690 N.am      7 SEP2        0.0000 
      4 NZ        -28.4800  -24.6970   18.7240 N.4       3 LYC4        0.0000 
      5 NZ        -29.1190  -24.8940   17.3990 N.4      13 LYL4        0.0000 
      6 NZ        -27.8410  -24.5000   20.0490 N.4       8 LYP4        0.0000 
      7 Zn        -28.5565  -25.5030   16.7225 Zn        4 ZIC7        0.0000 
      8 Zn        -29.1190  -24.8940   17.3990 Zn       14 ZIL7        0.0000 
      9 Zn        -27.9940  -26.1120   16.0460 Zn        9 ZIP7        0.0000 
     10 N         -28.4800  -24.6970   18.7240 N.am      2 SEC2        0.0000 
     11 N         -29.1190  -24.8940   17.3990 N.am     12 SEL2        0.0000 
     12 N         -27.8410  -24.5000   20.0490 N.am      7 SEP2        0.0000 
     13 Zn        -29.5635  -22.4060   15.3885 Zn        4 ZIC7        0.0000 
     14 Zn        -30.1680  -23.1580   15.8500 Zn       14 ZIL7        0.0000 
     15 Zn        -28.9590  -21.6540   14.9270 Zn        9 ZIP7        0.0000 
     16 NZ        -27.6800  -23.2495   19.5450 N.4       3 LYC4        0.0000 
     17 NZ        -27.5190  -21.9990   19.0410 N.4      13 LYL4        0.0000 
     18 N         -27.6800  -23.2495   19.5450 N.am      2 SEC2        0.0000 
     19 N         -27.5190  -21.9990   19.0410 N.am     12 SEL2        0.0000 
     20 Zn        -28.7080  -21.3370   15.9165 Zn        4 ZIC7        0.0000 
     21 Zn        -28.4570  -21.0200   16.9060 Zn       14 ZIL7        0.0000 
     22 CA        -32.1730  -20.7605   18.5455 C.3       5 GLC5        0.0000 
     23 CA        -30.6720  -19.7580   18.7100 C.3      15 GLL5        0.0000 
     24 CA        -33.6740  -21.7630   18.3810 C.3      10 GLP5        0.0000 
     25 CA        -31.8155  -16.8625   19.7220 C.3       5 GLC5        0.0000 
     26 CA        -30.5210  -18.2410   18.7630 C.3      15 GLL5        0.0000 
     27 CA        -33.1100  -15.4840   20.6810 C.3      10 GLP5        0.0000 
     28 CA        -31.2465  -16.0955   20.4030 C.3       5 GLC5        0.0000 
     29 CA        -29.3830  -16.7070   20.1250 C.3      15 GLL5        0.0000 
     30 CA        -30.1400  -17.5780   21.8355 C.3       5 GLC5        0.0000 
     31 CA        -30.8970  -18.4490   23.5460 C.3      10 GLP5        0.0000 
     32 CA        -24.1040  -15.1080   22.4225 C.3       5 GLC5        0.0000 
     33 CA        -25.3680  -16.6140   22.9260 C.3      15 GLL5        0.0000 
     34 CA        -22.8400  -13.6020   21.9190 C.3      10 GLP5        0.0000 
     35 O         -23.4265  -17.0055   24.3595 O.2       1 ALC1        0.0000 
     36 O         -24.3330  -17.3590   23.3490 O.2      11 ALL1        0.0000 
     37 O         -22.5200  -16.6520   25.3700 O.2       6 ALP1        0.0000 
     38 N         -24.5025  -14.3515   23.7565 N.am      2 SEC2        0.0000 
     39 N         -25.5400  -15.3200   23.2430 N.am     12 SEL2        0.0000 
     40 N         -23.4650  -13.3830   24.2700 N.am      7 SEP2        0.0000 
     41 CA        -27.6215  -14.3600   24.1965 C.3       5 GLC5        0.0000 
     42 CA        -26.5790  -14.6010   22.8140 C.3      15 GLL5        0.0000 
     43 CA        -28.6640  -14.1190   25.5790 C.3      10 GLP5        0.0000 
     44 CA        -26.4125  -15.8085   24.5930 C.3       5 GLC5        0.0000 
     45 CA        -26.2460  -17.0160   26.3720 C.3      10 GLP5        0.0000 
     46 CA        -24.7095  -14.1015   22.3665 C.3       5 GLC5        0.0000 
     47 CA        -25.3670  -15.4955   21.1505 C.3       5 GLC5        0.0000 
     48 CA        -24.1550  -16.3900   19.4870 C.3      10 GLP5        0.0000 
     49 CA        -30.6852  -19.3422   20.6827 C.3       5 GLC5        0.0000 
     50 CA        -30.7740  -19.6850   22.6290 C.3      10 GLP5        0.0000 
     51 CA        -28.2285  -17.4838   23.0333 C.3       5 GLC5        0.0000 
     52 CA        -27.4300  -16.3870   21.5950 C.3      15 GLL5        0.0000 
     53 CA        -29.5770  -18.1610   24.2600 C.3      10 GLP5        0.0000 
     54 CA        -26.0475  -16.9680   24.4220 C.3       5 GLC5        0.0000 
     55 CA        -26.3300  -17.2260   22.0180 C.3      15 GLL5        0.0000 
     56 CA        -25.3972  -16.5218   20.7602 C.3       5 GLC5        0.0000 
@<TRIPOS>BOND
@<TRIPOS>SUBSTRUCTURE
     1 ALC1       35 GROUP        1 X    ALC  0     ROOT ALC X 1
     2 SEC2        1 GROUP        1 X    SEC  0     **** SEC X 2
     3 LYC4        4 GROUP        1 X    LYC  0     **** LYC X 4
     4 ZIC7        7 GROUP        1 X    ZIC  0     **** ZIC X 5
     5 GLC5       22 GROUP        1 X    GLC  0     **** GLC X 6
     6 ALP1       37 GROUP        1 Y    ALP  0     ROOT ALP Y 8
     7 SEP2        3 GROUP        1 Y    SEP  0     **** SEP Y 9
     8 LYP4        6 GROUP        1 Y    LYP  0     **** LYP Y 11
     9 ZIP7        9 GROUP        1 Y    ZIP  0     **** ZIP Y 12
    10 GLP5       24 GROUP        1 Y    GLP  0     **** GLP Y 13
    11 ALL1       36 GROUP        1 Z    ALL  0     ROOT ALL Z 15
    12 SEL2        2 GROUP        1 Z    SEL  0     **** SEL Z 16
    13 LYL4        5 GROUP        1 Z    LYL  0     **** LYL Z 18
    14 ZIL7        8 GROUP        1 Z    ZIL  0     **** ZIL Z 19
    15 GLL5       23 GROUP        1 Z    GLL  0     **** GLL Z 20
@<TRIPOS>SET

