#    Name: 3c4z_ADP_1_ligand
#    Modification time : Mon Mar 24 20:31:54 2014

@<TRIPOS>MOLECULE
3c4z_ADP_1_ligand
   39    41     1     0     0
SMALL
NO_CHARGES


@<TRIPOS>ATOM
      1 PB        -30.1670  -23.8500   17.1670 P.3       1 ADP562      0.0000 
      2 O1B       -31.5170  -24.3360   17.5900 O.co2     1 ADP562      0.0000 
      3 O2B       -29.1190  -24.8940   17.3990 O.co2     1 ADP562      0.0000 
      4 O3B       -30.1680  -23.1580   15.8500 O.co2     1 ADP562      0.0000 
      5 PA        -28.7450  -21.5520   18.2610 P.3       1 ADP562      0.0000 
      6 O1A       -27.5190  -21.9990   19.0410 O.co2     1 ADP562      0.0000 
      7 O2A       -28.4570  -21.0200   16.9060 O.co2     1 ADP562      0.0000 
      8 O3A       -29.8820  -22.6720   18.2360 O.3       1 ADP562      0.0000 
      9 O5'       -29.4490  -20.4060   19.1070 O.3       1 ADP562      0.0000 
     10 C5'       -30.6720  -19.7580   18.7100 C.3       1 ADP562      0.0000 
     11 C4'       -30.5210  -18.2410   18.7630 C.3       1 ADP562      0.0000 
     12 O4'       -30.3270  -17.7780   20.0990 O.3       1 ADP562      0.0000 
     13 C3'       -29.3490  -17.6750   17.9850 C.3       1 ADP562      0.0000 
     14 O3'       -29.6770  -17.5040   16.6120 O.3       1 ADP562      0.0000 
     15 C2'       -29.0590  -16.3720   18.6880 C.3       1 ADP562      0.0000 
     16 O2'       -29.9630  -15.3700   18.2460 O.3       1 ADP562      0.0000 
     17 C1'       -29.3830  -16.7070   20.1250 C.3       1 ADP562      0.0000 
     18 N9        -28.1540  -17.1670   20.8010 N.pl3     1 ADP562      0.0000 
     19 C8        -27.6010  -18.3820   20.7450 C.2       1 ADP562      0.0000 
     20 N7        -26.4870  -18.4670   21.4930 N.2       1 ADP562      0.0000 
     21 C5        -26.3300  -17.2260   22.0180 C.ar      1 ADP562      0.0000 
     22 C6        -25.3680  -16.6140   22.9260 C.ar      1 ADP562      0.0000 
     23 N6        -24.3330  -17.3590   23.3490 N.pl3     1 ADP562      0.0000 
     24 N1        -25.5400  -15.3200   23.2430 N.ar      1 ADP562      0.0000 
     25 C2        -26.5790  -14.6010   22.8140 C.ar      1 ADP562      0.0000 
     26 N3        -27.5130  -15.0850   21.9800 N.ar      1 ADP562      0.0000 
     27 C4        -27.4300  -16.3870   21.5950 C.ar      1 ADP562      0.0000 
     28 H         -31.5052  -20.0378   19.3696 H         1 ADP562      0.0000 
     29 H         -30.9561  -20.0336   17.6848 H         1 ADP562      0.0000 
     30 H         -31.4308  -17.7825   18.3578 H         1 ADP562      0.0000 
     31 H         -28.5132  -18.3309   18.1422 H         1 ADP562      0.0000 
     32 H         -28.0566  -16.1347   18.6021 H         1 ADP562      0.0000 
     33 H         -29.7751  -15.8472   20.6013 H         1 ADP562      0.0000 
     34 H         -27.9667  -19.1374   20.2140 H         1 ADP562      0.0000 
     35 H         -24.2851  -18.2906   22.9886 H         1 ADP562      0.0000 
     36 H         -23.7030  -16.9154   23.9864 H         1 ADP562      0.0000 
     37 H         -26.6752  -13.5920   23.1481 H         1 ADP562      0.0000 
     38 H         -30.0094  -16.5635   16.5407 H         1 ADP562      0.0000 
     39 H         -29.4915  -14.5042   18.4134 H         1 ADP562      0.0000 
@<TRIPOS>BOND
     1    2    1 ar   
     2    3    1 ar   
     3    4    1 ar   
     4    8    1 1    
     5    6    5 ar   
     6    7    5 ar   
     7    8    5 1    
     8    9    5 1    
     9   10    9 1    
    10   11   10 1    
    11   28   10 1    
    12   29   10 1    
    13   12   11 1    
    14   13   11 1    
    15   30   11 1    
    16   17   12 1    
    17   14   13 1    
    18   15   13 1    
    19   31   13 1    
    20   38   14 1    
    21   16   15 1    
    22   17   15 1    
    23   32   15 1    
    24   39   16 1    
    25   18   17 1    
    26   33   17 1    
    27   19   18 1    
    28   27   18 1    
    29   20   19 2    
    30   34   19 1    
    31   21   20 1    
    32   22   21 ar   
    33   27   21 ar   
    34   23   22 1    
    35   24   22 ar   
    36   35   23 1    
    37   36   23 1    
    38   25   24 ar   
    39   26   25 ar   
    40   37   25 1    
    41   27   26 ar   
@<TRIPOS>SUBSTRUCTURE
     1 ADP562      1 GROUP   
@<TRIPOS>SET

