#    Name: 2xyj_WLM_3_INTS_M
#    Modification time : Tue Mar 25 07:07:14 2014

@<TRIPOS>MOLECULE
2xyj_WLM_3_INTS_M
   79     0     3     0     0
SMALL
NO_CHARGES


@<TRIPOS>ATOM
      1 CA         12.3465   28.6480   28.1850 C.3       1 GLC5        0.0000 
      2 CA         13.7040   28.8540   26.6170 C.3       3 GLL5        0.0000 
      3 CA         10.9890   28.4420   29.7530 C.3       2 GLP5        0.0000 
      4 CA         16.6335   29.7455   24.2095 C.3       1 GLC5        0.0000 
      5 CA         16.2000   28.2220   25.5510 C.3       3 GLL5        0.0000 
      6 CA         17.0670   31.2690   22.8680 C.3       2 GLP5        0.0000 
      7 CA         16.2780   25.3325   26.1565 C.3       1 GLC5        0.0000 
      8 CA         16.6230   25.7380   24.3660 C.3       3 GLL5        0.0000 
      9 CA         15.9330   24.9270   27.9470 C.3       2 GLP5        0.0000 
     10 CA         15.3580   25.7235   22.8340 C.3       1 GLC5        0.0000 
     11 CA         14.0930   25.7090   21.3020 C.3       2 GLP5        0.0000 
     12 CA         17.9265   27.0970   23.3945 C.3       1 GLC5        0.0000 
     13 CA         19.2300   28.4560   22.4230 C.3       2 GLP5        0.0000 
     14 CA         17.7800   25.1745   23.3455 C.3       1 GLC5        0.0000 
     15 CA         18.9370   24.6110   22.3250 C.3       2 GLP5        0.0000 
     16 CA         14.4110   32.9365   27.8575 C.3       1 GLC5        0.0000 
     17 CA         14.4840   31.2720   27.4310 C.3       3 GLL5        0.0000 
     18 CA         14.3380   34.6010   28.2840 C.3       2 GLP5        0.0000 
     19 CA         12.4265   31.4910   27.2660 C.3       1 GLC5        0.0000 
     20 CA         10.3690   31.7100   27.1010 C.3       2 GLP5        0.0000 
     21 CA         16.1580   31.1310   28.5515 C.3       1 GLC5        0.0000 
     22 CA         17.8320   30.9900   29.6720 C.3       2 GLP5        0.0000 
     23 CA         14.5380   31.3635   25.4010 C.3       1 GLC5        0.0000 
     24 CA         14.5920   31.4550   23.3710 C.3       2 GLP5        0.0000 
     25 CA         10.8415   23.5990   26.7380 C.3       1 GLC5        0.0000 
     26 CA         11.9630   24.4190   25.5640 C.3       3 GLL5        0.0000 
     27 CA          9.7200   22.7790   27.9120 C.3       2 GLP5        0.0000 
     28 CA         10.5825   22.9120   25.6170 C.3       1 GLC5        0.0000 
     29 CA         12.3010   23.3190   24.5500 C.3       3 GLL5        0.0000 
     30 CA          8.8640   22.5050   26.6840 C.3       2 GLP5        0.0000 
     31 CA         13.1970   24.5140   22.9260 C.3       1 GLC5        0.0000 
     32 CA         14.7610   23.7730   26.4310 C.3       1 GLC5        0.0000 
     33 CA         13.5890   22.6190   24.9150 C.3       3 GLL5        0.0000 
     34 CA         14.4165   24.2325   22.7175 C.3       1 GLC5        0.0000 
     35 CA         14.7400   22.7560   24.1330 C.3       3 GLL5        0.0000 
     36 CA         11.6815   22.3015   26.9865 C.3       1 GLC5        0.0000 
     37 CA         13.6430   21.8240   26.0610 C.3       3 GLL5        0.0000 
     38 CA         15.9245   23.5065   26.2115 C.3       1 GLC5        0.0000 
     39 CA         15.9160   22.0860   24.4760 C.3       3 GLL5        0.0000 
     40 CA         15.7540   21.0300   22.8195 C.3       1 GLC5        0.0000 
     41 CA         15.5920   19.9740   21.1630 C.3       2 GLP5        0.0000 
     42 CA         17.7690   22.7245   23.6265 C.3       1 GLC5        0.0000 
     43 CA         19.6220   23.3630   22.7770 C.3       2 GLP5        0.0000 
     44 CA         17.5505   23.9285   27.4095 C.3       1 GLC5        0.0000 
     45 CA         19.1680   22.9300   26.8720 C.3       3 GLL5        0.0000 
     46 CA         20.3875   21.6975   27.0940 C.3       1 GLC5        0.0000 
     47 CA         21.6070   20.4650   27.3160 C.3       2 GLP5        0.0000 
     48 CA         20.0615   23.2640   25.1840 C.3       1 GLC5        0.0000 
     49 CA         20.9550   23.5980   23.4960 C.3       2 GLP5        0.0000 
     50 CA         21.6095   23.6440   28.9835 C.3       1 GLC5        0.0000 
     51 CA         20.4660   25.2140   28.0820 C.3       3 GLL5        0.0000 
     52 CA         22.7530   22.0740   29.8850 C.3       2 GLP5        0.0000 
     53 CA         19.3300   25.7785   30.8595 C.3       1 GLC5        0.0000 
     54 CA         20.4910   25.9680   29.4310 C.3       3 GLL5        0.0000 
     55 CA         18.1690   25.5890   32.2880 C.3       2 GLP5        0.0000 
     56 CA         21.1885   27.9095   28.8375 C.3       1 GLC5        0.0000 
     57 CA         21.8860   29.8510   28.2440 C.3       2 GLP5        0.0000 
     58 CA         22.3040   26.0145   30.1730 C.3       1 GLC5        0.0000 
     59 CA         24.1170   26.0610   30.9150 C.3       2 GLP5        0.0000 
     60 CA         17.9125   25.4985   27.4440 C.3       1 GLC5        0.0000 
     61 CA         19.8920   26.0700   26.9410 C.3       3 GLL5        0.0000 
     62 CA         19.6950   27.5020   25.8955 C.3       1 GLC5        0.0000 
     63 CA         19.4980   28.9340   24.8500 C.3       2 GLP5        0.0000 
     64 CA         20.8890   27.9605   27.5925 C.3       1 GLC5        0.0000 
     65 CA         20.4235   24.8340   25.2185 C.3       1 GLC5        0.0000 
     66 CA         12.9765   28.3976   24.6021 C.3       1 GLC5        0.0000 
     67 CA         15.1570   27.2890   25.4710 C.3       3 GLL5        0.0000 
     68 CA         11.8390   28.6420   23.0250 C.3       2 GLP5        0.0000 
     69 CA         15.6475   26.3821   26.7966 C.3       1 GLC5        0.0000 
     70 CA         17.7990   28.8858   25.3505 C.3       1 GLC5        0.0000 
     71 CA         16.7385   28.9234   27.5805 C.3       1 GLC5        0.0000 
     72 CA         16.0000   29.4530   26.1510 C.3       3 GLL5        0.0000 
     73 CA         18.0500   28.5540   28.8950 C.3       2 GLP5        0.0000 
     74 CA         14.8532   30.4160   24.8855 C.3       1 GLC5        0.0000 
     75 CA         13.7288   22.1878   22.7014 C.3       1 GLC5        0.0000 
     76 CA         13.6150   21.5130   20.9700 C.3       2 GLP5        0.0000 
     77 CA         15.2576   22.5233   27.5233 C.3       1 GLC5        0.0000 
     78 CA         15.4350   23.6660   29.1310 C.3       2 GLP5        0.0000 
     79 CA         19.1176   27.1922   28.3719 C.3       1 GLC5        0.0000 
@<TRIPOS>BOND
@<TRIPOS>SUBSTRUCTURE
     1 GLC5        1 GROUP        1 X    GLC  0     ROOT GLC X 6
     2 GLP5        3 GROUP        1 Y    GLP  0     ROOT GLP Y 13
     3 GLL5        2 GROUP        1 Z    GLL  0     ROOT GLL Z 20
@<TRIPOS>SET

