#    Name: 2xyj_WLM_3_ligand
#    Modification time : Tue Mar 25 07:07:14 2014

@<TRIPOS>MOLECULE
2xyj_WLM_3_ligand
   55    57     1     0     0
SMALL
NO_CHARGES


@<TRIPOS>ATOM
      1 C1         13.8910   27.6160   26.0120 C.ar      1 WLM1441     0.0000 
      2 C2         15.1570   27.2890   25.4710 C.ar      1 WLM1441     0.0000 
      3 C3         13.7040   28.8540   26.6170 C.ar      1 WLM1441     0.0000 
      4 C4         12.7160   26.7150   25.9770 C.2       1 WLM1441     0.0000 
      5 C5         16.2000   28.2220   25.5510 C.ar      1 WLM1441     0.0000 
      6 O6         15.3340   26.0390   24.8710 O.3       1 WLM1441     0.0000 
      7 C7         14.7540   29.7480   26.6810 C.ar      1 WLM1441     0.0000 
      8 N8         12.8380   25.5600   25.3120 N.am      1 WLM1441     0.0000 
      9 O9         11.6640   27.0290   26.5370 O.2       1 WLM1441     0.0000 
     10 C10        16.0000   29.4530   26.1510 C.ar      1 WLM1441     0.0000 
     11 C11        16.6230   25.7380   24.3660 C.3       1 WLM1441     0.0000 
     12 CL         14.4840   31.2720   27.4310 Cl        1 WLM1441     0.0000 
     13 C13        11.9630   24.4190   25.5640 C.3       1 WLM1441     0.0000 
     14 C14        12.3010   23.3190   24.5500 C.3       1 WLM1441     0.0000 
     15 C15        13.5890   22.6190   24.9150 C.ar      1 WLM1441     0.0000 
     16 C16        14.7400   22.7560   24.1330 C.ar      1 WLM1441     0.0000 
     17 C17        13.6430   21.8240   26.0610 C.ar      1 WLM1441     0.0000 
     18 C18        15.9160   22.0860   24.4760 C.ar      1 WLM1441     0.0000 
     19 C19        14.8060   21.1500   26.3970 C.ar      1 WLM1441     0.0000 
     20 C20        15.9360   21.2740   25.6020 C.ar      1 WLM1441     0.0000 
     21 S21        17.4040   20.3750   26.0480 S.o2      1 WLM1441     0.0000 
     22 N22        17.7680   20.6200   27.7350 N.pl3     1 WLM1441     0.0000 
     23 O23        18.5340   20.8610   25.3150 O.2       1 WLM1441     0.0000 
     24 O24        17.1060   18.9770   25.9870 O.2       1 WLM1441     0.0000 
     25 C25        18.4690   21.8320   28.0370 C.2       1 WLM1441     0.0000 
     26 S26        19.1680   22.9300   26.8720 S.3       1 WLM1441     0.0000 
     27 N27        18.6470   22.2270   29.2770 N.2       1 WLM1441     0.0000 
     28 C28        19.6730   23.9060   28.2330 C.2       1 WLM1441     0.0000 
     29 N29        19.3330   23.4220   29.3750 N.2       1 WLM1441     0.0000 
     30 C30        20.4660   25.2140   28.0820 C.3       1 WLM1441     0.0000 
     31 C31        20.4910   25.9680   29.4310 C.3       1 WLM1441     0.0000 
     32 C32        19.8920   26.0700   26.9410 C.3       1 WLM1441     0.0000 
     33 H          12.7878   29.0977   27.0128 H         1 WLM1441     0.0000 
     34 H          17.1226   27.9814   25.1565 H         1 WLM1441     0.0000 
     35 H          13.5667   25.4191   24.5792 H         1 WLM1441     0.0000 
     36 H          16.7604   30.1359   26.2029 H         1 WLM1441     0.0000 
     37 H          10.9188   24.6884   25.4382 H         1 WLM1441     0.0000 
     38 H          12.1145   24.0197   26.5622 H         1 WLM1441     0.0000 
     39 H          12.3939   23.7692   23.5602 H         1 WLM1441     0.0000 
     40 H          11.4828   22.5972   24.5279 H         1 WLM1441     0.0000 
     41 H          14.7193   23.3569   23.2964 H         1 WLM1441     0.0000 
     42 H          12.8068   21.7404   26.6605 H         1 WLM1441     0.0000 
     43 H          16.7552   22.1950   23.8994 H         1 WLM1441     0.0000 
     44 H          14.8323   20.5558   27.2382 H         1 WLM1441     0.0000 
     45 H          17.4664   19.9277   28.2856 H         1 WLM1441     0.0000 
     46 H          21.4938   24.9491   27.8287 H         1 WLM1441     0.0000 
     47 H          17.3188   25.7656   25.0837 H         1 WLM1441     0.0000 
     48 H          16.6584   24.8255   23.9584 H         1 WLM1441     0.0000 
     49 H          16.9055   26.3861   23.6588 H         1 WLM1441     0.0000 
     50 H          20.9174   25.4233   30.1531 H         1 WLM1441     0.0000 
     51 H          21.0036   26.8243   29.3684 H         1 WLM1441     0.0000 
     52 H          19.5700   26.1999   29.7440 H         1 WLM1441     0.0000 
     53 H          20.3948   26.9274   26.8308 H         1 WLM1441     0.0000 
     54 H          19.9305   25.5927   26.0631 H         1 WLM1441     0.0000 
     55 H          18.9348   26.3102   27.1023 H         1 WLM1441     0.0000 
@<TRIPOS>BOND
     1    2    1 ar   
     2    3    1 ar   
     3    4    1 1    
     4    5    2 ar   
     5    6    2 1    
     6    7    3 ar   
     7   33    3 1    
     8    8    4 am   
     9    9    4 2    
    10   10    5 ar   
    11   34    5 1    
    12   11    6 1    
    13   10    7 ar   
    14   12    7 1    
    15   13    8 1    
    16   35    8 1    
    17   36   10 1    
    18   47   11 1    
    19   48   11 1    
    20   49   11 1    
    21   14   13 1    
    22   37   13 1    
    23   38   13 1    
    24   15   14 1    
    25   39   14 1    
    26   40   14 1    
    27   16   15 ar   
    28   17   15 ar   
    29   18   16 ar   
    30   41   16 1    
    31   19   17 ar   
    32   42   17 1    
    33   20   18 ar   
    34   43   18 1    
    35   20   19 ar   
    36   44   19 1    
    37   21   20 1    
    38   22   21 1    
    39   23   21 2    
    40   24   21 2    
    41   25   22 1    
    42   45   22 1    
    43   26   25 1    
    44   27   25 2    
    45   28   26 1    
    46   29   27 1    
    47   29   28 2    
    48   30   28 1    
    49   31   30 1    
    50   32   30 1    
    51   46   30 1    
    52   50   31 1    
    53   51   31 1    
    54   52   31 1    
    55   53   32 1    
    56   54   32 1    
    57   55   32 1    
@<TRIPOS>SUBSTRUCTURE
     1 WLM1441     1 GROUP   
@<TRIPOS>SET

