#    Name: 3meq_NAI_1_INTS_M
#    Modification time : Mon Mar 24 23:09:39 2014

@<TRIPOS>MOLECULE
3meq_NAI_1_INTS_M
  122     0    12     0     0
SMALL
NO_CHARGES


@<TRIPOS>ATOM
      1 N          25.7410   -4.1725  -24.0120 N.am      2 SEC2        0.0000 
      2 N          24.5630   -3.4110  -23.9690 N.am     10 SEL2        0.0000 
      3 N          26.9190   -4.9340  -24.0550 N.am      6 SEP2        0.0000 
      4 N          21.1135   -3.6990  -21.9905 N.am      2 SEC2        0.0000 
      5 N          22.1530   -3.9270  -22.8940 N.am     10 SEL2        0.0000 
      6 N          20.0740   -3.4710  -21.0870 N.am      6 SEP2        0.0000 
      7 CA         23.9550    1.4790  -19.8965 C.3       4 GLC5        0.0000 
      8 CA         24.3170    0.1490  -21.5840 C.3      12 GLL5        0.0000 
      9 CA         23.5930    2.8090  -18.2090 C.3       8 GLP5        0.0000 
     10 CA         22.4960    1.7015  -24.1950 C.3       4 GLC5        0.0000 
     11 CA         23.7890    0.8520  -22.8480 C.3      12 GLL5        0.0000 
     12 CA         21.2030    2.5510  -25.5420 C.3       8 GLP5        0.0000 
     13 O          22.3440    2.7975  -21.9080 O.2       1 ALC1        0.0000 
     14 O          22.5260    1.4810  -22.5820 O.2       9 ALL1        0.0000 
     15 O          22.1620    4.1140  -21.2340 O.2       5 ALP1        0.0000 
     16 CA         22.8465    2.6245  -23.7155 C.3       4 GLC5        0.0000 
     17 CA         24.8450    1.8990  -23.1480 C.3      12 GLL5        0.0000 
     18 CA         20.8480    3.3500  -24.2830 C.3       8 GLP5        0.0000 
     19 O          23.9180    4.1915  -23.1090 O.2       1 ALC1        0.0000 
     20 O          24.3290    3.0680  -23.7590 O.2       9 ALL1        0.0000 
     21 O          23.5070    5.3150  -22.4590 O.2       5 ALP1        0.0000 
     22 O          23.2455    3.5910  -22.4965 O.2       1 ALC1        0.0000 
     23 CA         24.4515    2.5055  -19.9705 C.3       4 GLC5        0.0000 
     24 CA         25.3100    2.2020  -21.7320 C.3      12 GLL5        0.0000 
     25 CA         26.3580    1.3940  -19.9135 C.3       4 GLC5        0.0000 
     26 CA         27.4060    0.5860  -18.0950 C.3       8 GLP5        0.0000 
     27 CA         29.2015    5.1220  -18.7290 C.3       4 GLC5        0.0000 
     28 CA         28.5260    5.6120  -20.4720 C.3      12 GLL5        0.0000 
     29 CA         29.8770    4.6320  -16.9860 C.3       8 GLP5        0.0000 
     30 O          31.1140    5.2335  -20.6895 O.2       1 ALC1        0.0000 
     31 O          29.7670    6.1120  -20.7610 O.2       9 ALL1        0.0000 
     32 O          32.4610    4.3550  -20.6180 O.2       5 ALP1        0.0000 
     33 CA         25.0515    4.2275  -18.7250 C.3       4 GLC5        0.0000 
     34 CA         26.5100    5.6460  -19.2410 C.3      12 GLL5        0.0000 
     35 CA         24.9270    6.4510  -19.7025 C.3       4 GLC5        0.0000 
     36 CA         23.3440    7.2560  -20.1640 C.3       8 GLP5        0.0000 
     37 CA         26.9090    6.9105  -20.9700 C.3       4 GLC5        0.0000 
     38 CA         27.3080    8.1750  -22.6990 C.3       8 GLP5        0.0000 
     39 CA         27.1990    3.8445  -18.6050 C.3       4 GLC5        0.0000 
     40 CA         27.8880    2.0430  -17.9690 C.3       8 GLP5        0.0000 
     41 CA         28.1935    5.1390  -18.1135 C.3       4 GLC5        0.0000 
     42 CA         25.1835    3.4190  -19.5520 C.3       4 GLC5        0.0000 
     43 CA         26.7740    4.0290  -20.8950 C.3      12 GLL5        0.0000 
     44 CA         26.4610    5.2970  -22.6070 C.3       4 GLC5        0.0000 
     45 CA         26.1480    6.5650  -24.3190 C.3       8 GLP5        0.0000 
     46 N          21.6195   -4.5060  -19.1265 N.am      2 SEC2        0.0000 
     47 N          22.8140   -4.4520  -19.7980 N.am     10 SEL2        0.0000 
     48 N          20.4250   -4.5600  -18.4550 N.am      6 SEP2        0.0000 
     49 NZ         22.2105   -7.2680  -21.2825 N.4       3 LYC4        0.0000 
     50 NZ         23.4140   -6.6530  -21.0840 N.4      11 LYL4        0.0000 
     51 NZ         20.4120   -8.9410  -20.9700 N.4       7 LYP4        0.0000 
     52 N          24.2305   -7.8060  -21.7650 N.am      2 SEC2        0.0000 
     53 N          23.4140   -6.6530  -21.0840 N.am     10 SEL2        0.0000 
     54 N          25.0470   -8.9590  -22.4460 N.am      6 SEP2        0.0000 
     55 N          22.2105   -7.2680  -21.2825 N.am      2 SEC2        0.0000 
     56 N          21.0070   -7.8830  -21.4810 N.am      6 SEP2        0.0000 
     57 CA         26.1125   -5.6465  -20.8180 C.3       4 GLC5        0.0000 
     58 CA         25.8870   -4.4050  -19.0490 C.3      12 GLL5        0.0000 
     59 CA         26.3380   -6.8880  -22.5870 C.3       8 GLP5        0.0000 
     60 CA         24.1850   -5.6260  -18.2605 C.3       4 GLC5        0.0000 
     61 CA         22.4830   -6.8470  -17.4720 C.3       8 GLP5        0.0000 
     62 N          30.3275   -5.9380  -20.1630 N.am      2 SEC2        0.0000 
     63 N          29.4730   -5.4060  -19.0310 N.am     10 SEL2        0.0000 
     64 N          31.1820   -6.4700  -21.2950 N.am      6 SEP2        0.0000 
     65 N          30.2045   -5.1790  -17.8425 N.am      2 SEC2        0.0000 
     66 N          30.9360   -4.9520  -16.6540 N.am      6 SEP2        0.0000 
     67 CA         28.0590   -9.1105  -19.9710 C.3       4 GLC5        0.0000 
     68 CA         27.7890   -7.2180  -18.8020 C.3      12 GLL5        0.0000 
     69 CA         28.3290  -11.0030  -21.1400 C.3       8 GLP5        0.0000 
     70 N          28.5120   -9.5285  -18.8805 N.am      2 SEC2        0.0000 
     71 N          28.8440   -8.1980  -19.0110 N.am     10 SEL2        0.0000 
     72 N          28.1800  -10.8590  -18.7500 N.am      6 SEP2        0.0000 
     73 CA         25.6635   -6.4705  -16.3740 C.3       4 GLC5        0.0000 
     74 CA         27.5810   -6.9450  -17.3090 C.3      12 GLL5        0.0000 
     75 CA         23.7460   -5.9960  -15.4390 C.3       8 GLP5        0.0000 
     76 CA         28.3710   -5.3595  -16.4130 C.3       4 GLC5        0.0000 
     77 CA         29.1610   -3.7740  -15.5170 C.3       8 GLP5        0.0000 
     78 CA         29.1855   -8.0670  -16.4945 C.3       4 GLC5        0.0000 
     79 CA         30.7900   -9.1890  -15.6800 C.3       8 GLP5        0.0000 
     80 N          26.1770  -10.7015  -11.2615 N.am      2 SEC2        0.0000 
     81 N          26.4440  -10.0850  -12.3590 N.am     10 SEL2        0.0000 
     82 N          25.9100  -11.3180  -10.1640 N.am      6 SEP2        0.0000 
     83 O          28.3190   -7.1160  -13.1895 O.2       1 ALC1        0.0000 
     84 O          27.8740   -8.3210  -12.4690 O.2       9 ALL1        0.0000 
     85 O          28.7640   -5.9110  -13.9100 O.2       5 ALP1        0.0000 
     86 O          27.9380   -8.0680  -10.9865 O.2       1 ALC1        0.0000 
     87 O          28.0020   -7.8150   -9.5040 O.2       5 ALP1        0.0000 
     88 CA         25.2520  -11.4090  -13.7135 C.3       4 GLC5        0.0000 
     89 CA         25.4140   -9.6810  -14.9410 C.3      12 GLL5        0.0000 
     90 CA         25.0900  -13.1370  -12.4860 C.3       8 GLP5        0.0000 
     91 CA         26.5555   -0.6557  -22.2107 C.3       4 GLC5        0.0000 
     92 CA         28.5790   -0.7390  -22.7030 C.3       8 GLP5        0.0000 
     93 CA         22.2933   -0.4711  -21.7841 C.3       4 GLC5        0.0000 
     94 CA         24.7470   -1.2940  -21.8530 C.3      12 GLL5        0.0000 
     95 CA         20.4260   -1.0820  -21.2850 C.3       8 GLP5        0.0000 
     96 CA         27.7985    6.6218  -21.7650 C.3       4 GLC5        0.0000 
     97 CA         28.0520    4.5250  -21.1900 C.3      12 GLL5        0.0000 
     98 CA         30.1395    4.1208  -21.0415 C.3       4 GLC5        0.0000 
     99 CA         31.9900    3.1730  -21.2520 C.3       8 GLP5        0.0000 
    100 CA         27.7097    3.2959  -19.4160 C.3       4 GLC5        0.0000 
    101 CA         28.3998   -4.5522  -17.1647 C.3       4 GLC5        0.0000 
    102 CA         27.1900   -4.8880  -18.3780 C.3      12 GLL5        0.0000 
    103 CA         27.1380   -6.6917  -20.8057 C.3       4 GLC5        0.0000 
    104 CA         28.0870   -5.7730  -19.2470 C.3      12 GLL5        0.0000 
    105 CA         29.4750   -7.1643  -20.1408 C.3       4 GLC5        0.0000 
    106 CA         31.0120   -7.8330  -21.2570 C.3       8 GLP5        0.0000 
    107 CA         27.8344   -4.0224  -20.0906 C.3       4 GLC5        0.0000 
    108 CA         28.3560   -2.8350  -21.2010 C.3       8 GLP5        0.0000 
    109 CA         25.3697   -8.2863  -13.6342 C.3       4 GLC5        0.0000 
    110 CA         27.2060   -8.1190  -15.2610 C.3      12 GLL5        0.0000 
    111 CA         23.8710   -8.0150  -12.4230 C.3       8 GLP5        0.0000 
    112 CA         25.3072   -7.2767  -15.1423 C.3       4 GLC5        0.0000 
    113 CA         26.5310   -8.9960  -14.4300 C.3      12 GLL5        0.0000 
    114 CA         28.8292   -8.8733  -15.2628 C.3       4 GLC5        0.0000 
    115 CA         24.2157  -10.9425  -15.8375 C.3       4 GLC5        0.0000 
    116 CA         23.2260  -12.3280  -16.0780 C.3       8 GLP5        0.0000 
    117 CA         24.5382   -8.7860  -14.0100 C.3       4 GLC5        0.0000 
    118 CA         24.9970   -9.4330  -16.2530 C.3      12 GLL5        0.0000 
    119 CA         24.8410   -9.7112  -18.1852 C.3       4 GLC5        0.0000 
    120 CA         24.3220  -10.4350  -19.7240 C.3       8 GLP5        0.0000 
    121 CA         24.6051   -7.5228  -15.8788 C.3       4 GLC5        0.0000 
    122 CA         25.7230   -8.5420  -17.0400 C.3      12 GLL5        0.0000 
@<TRIPOS>BOND
@<TRIPOS>SUBSTRUCTURE
     1 ALC1       13 GROUP        1 X    ALC  0     ROOT ALC X 1
     2 SEC2        1 GROUP        1 X    SEC  0     **** SEC X 2
     3 LYC4       49 GROUP        1 X    LYC  0     **** LYC X 4
     4 GLC5        7 GROUP        1 X    GLC  0     **** GLC X 6
     5 ALP1       15 GROUP        1 Y    ALP  0     ROOT ALP Y 8
     6 SEP2        3 GROUP        1 Y    SEP  0     **** SEP Y 9
     7 LYP4       51 GROUP        1 Y    LYP  0     **** LYP Y 11
     8 GLP5        9 GROUP        1 Y    GLP  0     **** GLP Y 13
     9 ALL1       14 GROUP        1 Z    ALL  0     ROOT ALL Z 15
    10 SEL2        2 GROUP        1 Z    SEL  0     **** SEL Z 16
    11 LYL4       50 GROUP        1 Z    LYL  0     **** LYL Z 18
    12 GLL5        8 GROUP        1 Z    GLL  0     **** GLL Z 20
@<TRIPOS>SET

