#    Name: 3meq_NAI_1_ligand
#    Modification time : Mon Mar 24 23:09:39 2014

@<TRIPOS>MOLECULE
3meq_NAI_1_ligand
   71    75     1     0     0
SMALL
NO_CHARGES


@<TRIPOS>ATOM
      1 PA         23.5810   -3.4650  -22.8160 P.3       1 NAI601      0.0000 
      2 O1A        24.5630   -3.4110  -23.9690 O.co2     1 NAI601      0.0000 
      3 O2A        22.1530   -3.9270  -22.8940 O.co2     1 NAI601      0.0000 
      4 O5B        23.5440   -2.0470  -22.0480 O.3       1 NAI601      0.0000 
      5 C5B        24.7470   -1.2940  -21.8530 C.3       1 NAI601      0.0000 
      6 C4B        24.3170    0.1490  -21.5840 C.3       1 NAI601      0.0000 
      7 O4B        25.4380    0.9090  -21.1080 O.3       1 NAI601      0.0000 
      8 C3B        23.7890    0.8520  -22.8480 C.3       1 NAI601      0.0000 
      9 O3B        22.5260    1.4810  -22.5820 O.3       1 NAI601      0.0000 
     10 C2B        24.8450    1.8990  -23.1480 C.3       1 NAI601      0.0000 
     11 O2B        24.3290    3.0680  -23.7590 O.3       1 NAI601      0.0000 
     12 C1B        25.3100    2.2020  -21.7320 C.3       1 NAI601      0.0000 
     13 N9A        26.5520    3.0000  -21.7270 N.pl3     1 NAI601      0.0000 
     14 C8A        27.6560    2.8340  -22.5120 C.2       1 NAI601      0.0000 
     15 N7A        28.5800    3.7910  -22.1950 N.2       1 NAI601      0.0000 
     16 C5A        28.0520    4.5250  -21.1900 C.ar      1 NAI601      0.0000 
     17 C6A        28.5260    5.6120  -20.4720 C.ar      1 NAI601      0.0000 
     18 N6A        29.7670    6.1120  -20.7610 N.pl3     1 NAI601      0.0000 
     19 N1A        27.7300    6.1510  -19.5030 N.ar      1 NAI601      0.0000 
     20 C2A        26.5100    5.6460  -19.2410 C.ar      1 NAI601      0.0000 
     21 N3A        26.0220    4.6030  -19.9180 N.ar      1 NAI601      0.0000 
     22 C4A        26.7740    4.0290  -20.8950 C.ar      1 NAI601      0.0000 
     23 O3         24.4350   -4.4020  -21.7680 O.3       1 NAI601      0.0000 
     24 PN         23.8400   -5.2990  -20.5200 P.3       1 NAI601      0.0000 
     25 O1N        22.8140   -4.4520  -19.7980 O.co2     1 NAI601      0.0000 
     26 O2N        23.4140   -6.6530  -21.0840 O.co2     1 NAI601      0.0000 
     27 O5D        25.1890   -5.5160  -19.6350 O.3       1 NAI601      0.0000 
     28 C5D        25.8870   -4.4050  -19.0490 C.3       1 NAI601      0.0000 
     29 C4D        27.1900   -4.8880  -18.3780 C.3       1 NAI601      0.0000 
     30 O4D        26.8660   -5.7020  -17.2260 O.3       1 NAI601      0.0000 
     31 C3D        28.0870   -5.7730  -19.2470 C.3       1 NAI601      0.0000 
     32 O3D        29.4730   -5.4060  -19.0310 O.3       1 NAI601      0.0000 
     33 C2D        27.7890   -7.2180  -18.8020 C.3       1 NAI601      0.0000 
     34 O2D        28.8440   -8.1980  -19.0110 O.3       1 NAI601      0.0000 
     35 C1D        27.5810   -6.9450  -17.3090 C.3       1 NAI601      0.0000 
     36 N1N        26.8200   -7.9300  -16.5350 N.pl3     1 NAI601      0.0000 
     37 C2N        27.2060   -8.1190  -15.2610 C.2       1 NAI601      0.0000 
     38 C3N        26.5310   -8.9960  -14.4300 C.2       1 NAI601      0.0000 
     39 C7N        26.9840   -9.1920  -13.0070 C.2       1 NAI601      0.0000 
     40 O7N        26.4440  -10.0850  -12.3590 O.2       1 NAI601      0.0000 
     41 N7N        27.8740   -8.3210  -12.4690 N.am      1 NAI601      0.0000 
     42 C4N        25.4140   -9.6810  -14.9410 C.3       1 NAI601      0.0000 
     43 C5N        24.9970   -9.4330  -16.2530 C.2       1 NAI601      0.0000 
     44 C6N        25.7230   -8.5420  -17.0400 C.2       1 NAI601      0.0000 
     45 H          25.3761   -1.2984  -22.7336 H         1 NAI601      0.0000 
     46 H          25.3096   -1.6420  -20.9965 H         1 NAI601      0.0000 
     47 H          23.5253    0.1462  -20.8508 H         1 NAI601      0.0000 
     48 H          23.7625    0.1529  -23.6326 H         1 NAI601      0.0000 
     49 H          25.6431    1.4364  -23.6548 H         1 NAI601      0.0000 
     50 H          24.5023    2.7568  -21.2549 H         1 NAI601      0.0000 
     51 H          27.7681    2.1515  -23.1833 H         1 NAI601      0.0000 
     52 H          30.5340    5.4811  -20.6433 H         1 NAI601      0.0000 
     53 H          29.7980    7.0644  -21.0645 H         1 NAI601      0.0000 
     54 H          25.9270    6.0890  -18.4796 H         1 NAI601      0.0000 
     55 H          25.2857   -3.9076  -18.2802 H         1 NAI601      0.0000 
     56 H          26.1615   -3.6562  -19.8000 H         1 NAI601      0.0000 
     57 H          27.7638   -4.0312  -18.0596 H         1 NAI601      0.0000 
     58 H          27.7831   -5.6600  -20.2582 H         1 NAI601      0.0000 
     59 H          26.8432   -7.4911  -19.1962 H         1 NAI601      0.0000 
     60 H          28.5666   -6.7950  -16.8585 H         1 NAI601      0.0000 
     61 H          28.0288   -7.6023  -14.8749 H         1 NAI601      0.0000 
     62 H          28.1402   -8.4935  -11.5206 H         1 NAI601      0.0000 
     63 H          28.1852   -7.5835  -13.0683 H         1 NAI601      0.0000 
     64 H          24.5223   -9.5198  -14.2266 H         1 NAI601      0.0000 
     65 H          25.5826  -10.8148  -14.8084 H         1 NAI601      0.0000 
     66 H          24.1701   -9.9008  -16.6268 H         1 NAI601      0.0000 
     67 H          25.4095   -8.3596  -18.0088 H         1 NAI601      0.0000 
     68 H          22.7568    2.3483  -22.1410 H         1 NAI601      0.0000 
     69 H          24.1600    3.7015  -23.0039 H         1 NAI601      0.0000 
     70 H          29.9190   -6.2477  -18.7267 H         1 NAI601      0.0000 
     71 H          28.8271   -8.3910  -19.9921 H         1 NAI601      0.0000 
@<TRIPOS>BOND
     1    2    1 ar   
     2    3    1 ar   
     3    4    1 1    
     4   23    1 1    
     5    5    4 1    
     6    6    5 1    
     7   45    5 1    
     8   46    5 1    
     9    7    6 1    
    10    8    6 1    
    11   47    6 1    
    12   12    7 1    
    13    9    8 1    
    14   10    8 1    
    15   48    8 1    
    16   68    9 1    
    17   11   10 1    
    18   12   10 1    
    19   49   10 1    
    20   69   11 1    
    21   13   12 1    
    22   50   12 1    
    23   14   13 1    
    24   22   13 1    
    25   15   14 2    
    26   51   14 1    
    27   16   15 1    
    28   17   16 ar   
    29   22   16 ar   
    30   18   17 1    
    31   19   17 ar   
    32   52   18 1    
    33   53   18 1    
    34   20   19 ar   
    35   21   20 ar   
    36   54   20 1    
    37   22   21 ar   
    38   24   23 1    
    39   25   24 ar   
    40   26   24 ar   
    41   27   24 1    
    42   28   27 1    
    43   29   28 1    
    44   55   28 1    
    45   56   28 1    
    46   30   29 1    
    47   31   29 1    
    48   57   29 1    
    49   35   30 1    
    50   32   31 1    
    51   33   31 1    
    52   58   31 1    
    53   70   32 1    
    54   34   33 1    
    55   35   33 1    
    56   59   33 1    
    57   71   34 1    
    58   36   35 1    
    59   60   35 1    
    60   37   36 1    
    61   44   36 1    
    62   38   37 2    
    63   61   37 1    
    64   39   38 1    
    65   42   38 1    
    66   40   39 2    
    67   41   39 am   
    68   62   41 1    
    69   63   41 1    
    70   43   42 1    
    71   64   42 1    
    72   65   42 1    
    73   44   43 2    
    74   66   43 1    
    75   67   44 1    
@<TRIPOS>SUBSTRUCTURE
     1 NAI601      1 GROUP   
@<TRIPOS>SET

