#    Name: 1thn_ADP_2_INTS_M
#    Modification time : Tue Mar 25 05:01:48 2014

@<TRIPOS>MOLECULE
1thn_ADP_2_INTS_M
   75     0    12     0     0
SMALL
NO_CHARGES


@<TRIPOS>ATOM
      1 N          11.8155   27.0560   88.5310 N.am      2 SEC2        0.0000 
      2 N          11.8740   28.5860   88.6290 N.am     10 SEL2        0.0000 
      3 N          11.7570   25.5260   88.4330 N.am      6 SEP2        0.0000 
      4 N          11.8830   26.4205   89.6365 N.am      2 SEC2        0.0000 
      5 N          12.0090   27.3150   90.8400 N.am     10 SEL2        0.0000 
      6 N          12.5495   26.7465   91.9750 N.am      2 SEC2        0.0000 
      7 N          13.0900   26.1780   93.1100 N.am      6 SEP2        0.0000 
      8 NZ         14.5840   29.2550   89.1105 N.4       3 LYC4        0.0000 
      9 NZ         13.4040   29.3750   90.4640 N.4      11 LYL4        0.0000 
     10 NZ         15.7640   29.1350   87.7570 N.4       7 LYP4        0.0000 
     11 N          13.5755   30.0850   91.8880 N.am      2 SEC2        0.0000 
     12 N          13.4040   29.3750   90.4640 N.am     10 SEL2        0.0000 
     13 N          13.7470   30.7950   93.3120 N.am      6 SEP2        0.0000 
     14 N           9.7550   29.4830   87.6880 N.am      2 SEC2        0.0000 
     15 N           9.5390   30.3120   88.8470 N.am     10 SEL2        0.0000 
     16 N           9.9710   28.6540   86.5290 N.am      6 SEP2        0.0000 
     17 N           8.4475   32.0230   90.4255 N.am      2 SEC2        0.0000 
     18 N           8.7910   30.8060   91.2250 N.am     10 SEL2        0.0000 
     19 N           8.1040   33.2400   89.6260 N.am      6 SEP2        0.0000 
     20 CA          7.0710   28.9940   90.8135 C.3       4 GLC5        0.0000 
     21 CA          8.7440   27.7490   91.6090 C.3      12 GLL5        0.0000 
     22 CA          5.3980   30.2390   90.0180 C.3       8 GLP5        0.0000 
     23 N          10.8215   24.3690   92.6980 N.am      2 SEC2        0.0000 
     24 N          10.3940   24.9860   91.2800 N.am     10 SEL2        0.0000 
     25 N          11.2490   23.7520   94.1160 N.am      6 SEP2        0.0000 
     26 N          10.4570   23.4645   91.6205 N.am      2 SEC2        0.0000 
     27 N          10.5200   21.9430   91.9610 N.am      6 SEP2        0.0000 
     28 O          11.7420   25.5820   92.1950 O.2       1 ALC1        0.0000 
     29 O          10.3940   24.9860   91.2800 O.2       9 ALL1        0.0000 
     30 O          13.0900   26.1780   93.1100 O.2       5 ALP1        0.0000 
     31 CA          8.6140   23.0880   92.0110 C.3       4 GLC5        0.0000 
     32 CA          8.2500   24.2670   90.2180 C.3      12 GLL5        0.0000 
     33 CA          8.9780   21.9090   93.8040 C.3       8 GLP5        0.0000 
     34 O           9.3315   22.6350   91.6520 O.2       1 ALC1        0.0000 
     35 O           8.1430   23.3270   91.3430 O.2       9 ALL1        0.0000 
     36 O          10.5200   21.9430   91.9610 O.2       5 ALP1        0.0000 
     37 CA          5.0500   24.5485   89.1480 C.3       4 GLC5        0.0000 
     38 CA          6.9280   25.0610   89.9730 C.3      12 GLL5        0.0000 
     39 CA          3.1720   24.0360   88.3230 C.3       8 GLP5        0.0000 
     40 CA          4.6675   25.3915   87.2710 C.3       4 GLC5        0.0000 
     41 CA          6.4040   25.2460   86.3320 C.3      12 GLL5        0.0000 
     42 CA          2.9310   25.5370   88.2100 C.3       8 GLP5        0.0000 
     43 CA          7.1400   22.8895   84.1565 C.3       4 GLC5        0.0000 
     44 CA          6.1410   24.4930   85.1130 C.3      12 GLL5        0.0000 
     45 CA          8.1390   21.2860   83.2000 C.3       8 GLP5        0.0000 
     46 CA          4.6565   24.2645   86.7180 C.3       4 GLC5        0.0000 
     47 CA          4.3125   24.3710   84.4810 C.3       4 GLC5        0.0000 
     48 CA          2.4840   24.2490   83.8490 C.3       8 GLP5        0.0000 
     49 O           5.2165   24.7500   82.4395 O.2       1 ALC1        0.0000 
     50 O           6.0200   25.0780   83.8820 O.2       9 ALL1        0.0000 
     51 O           4.4130   24.4220   80.9970 O.2       5 ALP1        0.0000 
     52 O           4.8870   24.4470   83.6170 O.2       1 ALC1        0.0000 
     53 O           3.7540   23.8160   83.3520 O.2       5 ALP1        0.0000 
     54 CA          8.1735   22.8430   86.2625 C.3       4 GLC5        0.0000 
     55 CA          6.1210   22.5510   86.3990 C.3      12 GLL5        0.0000 
     56 CA         10.2260   23.1350   86.1260 C.3       8 GLP5        0.0000 
     57 CA          7.1300   21.9185   84.7995 C.3       4 GLC5        0.0000 
     58 CA          4.3730   21.4360   85.8900 C.3       4 GLC5        0.0000 
     59 CA          2.6250   20.3210   85.3810 C.3       8 GLP5        0.0000 
     60 CA          4.6465   23.2935   87.3610 C.3       4 GLC5        0.0000 
     61 CA          4.1795   23.0135   85.7540 C.3       4 GLC5        0.0000 
     62 CA          2.2380   23.4760   85.1090 C.3       8 GLP5        0.0000 
     63 CA          4.8360   24.2735   87.8975 C.3       4 GLC5        0.0000 
     64 CA          6.5000   24.5110   87.4720 C.3      12 GLL5        0.0000 
     65 CA          7.5260   26.3972   93.0655 C.3       4 GLC5        0.0000 
     66 CA          8.3580   26.3060   91.4630 C.3      12 GLL5        0.0000 
     67 CA          6.5010   25.7670   94.5950 C.3       8 GLP5        0.0000 
     68 CA          9.9360   26.5567   93.1620 C.3       4 GLC5        0.0000 
     69 CA         11.3210   26.0860   94.7880 C.3       8 GLP5        0.0000 
     70 CA          9.7843   25.0607   88.9267 C.3       4 GLC5        0.0000 
     71 CA          9.2230   25.4360   90.5810 C.3      12 GLL5        0.0000 
     72 CA         10.8320   25.2700   87.4540 C.3       8 GLP5        0.0000 
     73 CA          7.5872   26.2973   85.1628 C.3       4 GLC5        0.0000 
     74 CA          8.9020   27.7250   84.6030 C.3       8 GLP5        0.0000 
     75 CA          8.3061   23.9126   86.3616 C.3       4 GLC5        0.0000 
@<TRIPOS>BOND
@<TRIPOS>SUBSTRUCTURE
     1 ALC1       28 GROUP        1 X    ALC  0     ROOT ALC X 1
     2 SEC2        1 GROUP        1 X    SEC  0     **** SEC X 2
     3 LYC4        8 GROUP        1 X    LYC  0     **** LYC X 4
     4 GLC5       20 GROUP        1 X    GLC  0     **** GLC X 6
     5 ALP1       30 GROUP        1 Y    ALP  0     ROOT ALP Y 8
     6 SEP2        3 GROUP        1 Y    SEP  0     **** SEP Y 9
     7 LYP4       10 GROUP        1 Y    LYP  0     **** LYP Y 11
     8 GLP5       22 GROUP        1 Y    GLP  0     **** GLP Y 13
     9 ALL1       29 GROUP        1 Z    ALL  0     ROOT ALL Z 15
    10 SEL2        2 GROUP        1 Z    SEL  0     **** SEL Z 16
    11 LYL4        9 GROUP        1 Z    LYL  0     **** LYL Z 18
    12 GLL5       21 GROUP        1 Z    GLL  0     **** GLL Z 20
@<TRIPOS>SET

