#    Name: 1thn_ADP_2_ligand
#    Modification time : Tue Mar 25 05:01:48 2014

@<TRIPOS>MOLECULE
1thn_ADP_2_ligand
   39    41     1     0     0
SMALL
NO_CHARGES


@<TRIPOS>ATOM
      1 PB         12.0910   28.6220   90.1400 P.3       1 ADP201      0.0000 
      2 O1B        11.8740   28.5860   88.6290 O.co2     1 ADP201      0.0000 
      3 O2B        12.0090   27.3150   90.8400 O.co2     1 ADP201      0.0000 
      4 O3B        13.4040   29.3750   90.4640 O.co2     1 ADP201      0.0000 
      5 PA          9.4700   29.8910   90.2910 P.3       1 ADP201      0.0000 
      6 O1A         9.5390   30.3120   88.8470 O.co2     1 ADP201      0.0000 
      7 O2A         8.7910   30.8060   91.2250 O.co2     1 ADP201      0.0000 
      8 O3A        10.9920   29.5580   90.7820 O.3       1 ADP201      0.0000 
      9 O5'         8.8860   28.4100   90.3330 O.3       1 ADP201      0.0000 
     10 C5'         8.7440   27.7490   91.6090 C.3       1 ADP201      0.0000 
     11 C4'         8.3580   26.3060   91.4630 C.3       1 ADP201      0.0000 
     12 O4'         7.0620   26.2790   90.7360 O.3       1 ADP201      0.0000 
     13 C3'         9.2230   25.4360   90.5810 C.3       1 ADP201      0.0000 
     14 O3'        10.3940   24.9860   91.2800 O.3       1 ADP201      0.0000 
     15 C2'         8.2500   24.2670   90.2180 C.3       1 ADP201      0.0000 
     16 O2'         8.1430   23.3270   91.3430 O.3       1 ADP201      0.0000 
     17 C1'         6.9280   25.0610   89.9730 C.3       1 ADP201      0.0000 
     18 N9          6.7330   25.4200   88.4660 N.pl3     1 ADP201      0.0000 
     19 C8          6.7850   26.6280   87.8980 C.2       1 ADP201      0.0000 
     20 N7          6.5950   26.5950   86.6300 N.2       1 ADP201      0.0000 
     21 C5          6.4040   25.2460   86.3320 C.ar      1 ADP201      0.0000 
     22 C6          6.1410   24.4930   85.1130 C.ar      1 ADP201      0.0000 
     23 N6          6.0200   25.0780   83.8820 N.pl3     1 ADP201      0.0000 
     24 N1          6.0060   23.1410   85.2110 N.ar      1 ADP201      0.0000 
     25 C2          6.1210   22.5510   86.3990 C.ar      1 ADP201      0.0000 
     26 N3          6.3640   23.1640   87.5750 N.ar      1 ADP201      0.0000 
     27 C4          6.5000   24.5110   87.4720 C.ar      1 ADP201      0.0000 
     28 H           7.9772   28.2548   92.2277 H         1 ADP201      0.0000 
     29 H           9.6896   27.8012   92.1833 H         1 ADP201      0.0000 
     30 H           8.2135   25.8383   92.4046 H         1 ADP201      0.0000 
     31 H           9.4269   25.9644   89.6844 H         1 ADP201      0.0000 
     32 H           8.5635   23.8508   89.3214 H         1 ADP201      0.0000 
     33 H           6.1152   24.4770   90.3080 H         1 ADP201      0.0000 
     34 H           6.9581   27.4651   88.4372 H         1 ADP201      0.0000 
     35 H           5.1626   24.9078   83.3963 H         1 ADP201      0.0000 
     36 H           6.7996   25.6244   83.5759 H         1 ADP201      0.0000 
     37 H           6.0090   21.4687   86.4308 H         1 ADP201      0.0000 
     38 H          11.0570   25.7276   91.1782 H         1 ADP201      0.0000 
     39 H           9.0525   22.9198   91.4273 H         1 ADP201      0.0000 
@<TRIPOS>BOND
     1    2    1 ar   
     2    3    1 ar   
     3    4    1 ar   
     4    8    1 1    
     5    6    5 ar   
     6    7    5 ar   
     7    8    5 1    
     8    9    5 1    
     9   10    9 1    
    10   11   10 1    
    11   28   10 1    
    12   29   10 1    
    13   12   11 1    
    14   13   11 1    
    15   30   11 1    
    16   17   12 1    
    17   14   13 1    
    18   15   13 1    
    19   31   13 1    
    20   38   14 1    
    21   16   15 1    
    22   17   15 1    
    23   32   15 1    
    24   39   16 1    
    25   18   17 1    
    26   33   17 1    
    27   19   18 1    
    28   27   18 1    
    29   20   19 2    
    30   34   19 1    
    31   21   20 1    
    32   22   21 ar   
    33   27   21 ar   
    34   23   22 1    
    35   24   22 ar   
    36   35   23 1    
    37   36   23 1    
    38   25   24 ar   
    39   26   25 ar   
    40   37   25 1    
    41   27   26 ar   
@<TRIPOS>SUBSTRUCTURE
     1 ADP201      1 GROUP   
@<TRIPOS>SET

