#    Name: 2hch_N5A_1_INTS_M
#    Modification time : Tue Mar 25 15:52:04 2014

@<TRIPOS>MOLECULE
2hch_N5A_1_INTS_M
   42     0     6     0     0
SMALL
NO_CHARGES


@<TRIPOS>ATOM
      1 O        -143.5395  -38.3315   78.0510 O.2       1 ALC1        0.0000 
      2 O        -144.5680  -38.0510   78.8690 O.2       5 ALL1        0.0000 
      3 O        -142.5110  -38.6120   77.2330 O.2       3 ALP1        0.0000 
      4 CA       -144.3860  -35.2440   79.5345 C.3       2 GLC5        0.0000 
      5 CA       -143.9030  -36.9790   79.6250 C.3       6 GLL5        0.0000 
      6 CA       -144.8690  -33.5090   79.4440 C.3       4 GLP5        0.0000 
      7 CA       -142.3565  -36.2565   78.6345 C.3       2 GLC5        0.0000 
      8 CA       -140.8100  -35.5340   77.6440 C.3       4 GLP5        0.0000 
      9 CA       -141.2345  -38.3415   81.7780 C.3       2 GLC5        0.0000 
     10 CA       -142.7550  -37.5760   80.4400 C.3       6 GLL5        0.0000 
     11 CA       -139.7140  -39.1070   83.1160 C.3       4 GLP5        0.0000 
     12 CA       -141.8115  -36.0425   81.6450 C.3       2 GLC5        0.0000 
     13 CA       -140.8680  -34.5090   82.8500 C.3       4 GLP5        0.0000 
     14 CA       -141.2935  -37.0080   79.2370 C.3       2 GLC5        0.0000 
     15 CA       -139.8320  -36.4400   78.0340 C.3       4 GLP5        0.0000 
     16 O        -142.5890  -39.7055   80.7635 O.2       1 ALC1        0.0000 
     17 O        -143.2910  -38.6190   81.3270 O.2       5 ALL1        0.0000 
     18 O        -141.8870  -40.7920   80.2000 O.2       3 ALP1        0.0000 
     19 CA       -143.3070  -41.2550   82.9425 C.3       2 GLC5        0.0000 
     20 CA       -144.1430  -39.5270   83.4490 C.3       6 GLL5        0.0000 
     21 CA       -142.4710  -42.9830   82.4360 C.3       4 GLP5        0.0000 
     22 CA       -141.9285  -39.3170   83.2825 C.3       2 GLC5        0.0000 
     23 CA       -142.3205  -41.3750   86.1485 C.3       2 GLC5        0.0000 
     24 CA       -143.7280  -40.3790   85.5730 C.3       6 GLL5        0.0000 
     25 CA       -140.9130  -42.3710   86.7240 C.3       4 GLP5        0.0000 
     26 CA       -143.0995  -41.6810   84.0045 C.3       2 GLC5        0.0000 
     27 CA       -143.5175  -36.3920   88.1925 C.3       2 GLC5        0.0000 
     28 CA       -142.6690  -38.3460   88.3840 C.3       6 GLL5        0.0000 
     29 CA       -144.3660  -34.4380   88.0010 C.3       4 GLP5        0.0000 
     30 CA       -144.5130  -39.8350   91.1360 C.3       2 GLC5        0.0000 
     31 CA       -143.3450  -40.4160   89.9780 C.3       6 GLL5        0.0000 
     32 CA       -145.6810  -39.2540   92.2940 C.3       4 GLP5        0.0000 
     33 CA       -141.8015  -40.7285   88.8195 C.3       2 GLC5        0.0000 
     34 CA       -140.2580  -41.0410   87.6610 C.3       4 GLP5        0.0000 
     35 CA       -144.0850  -38.7615   91.0255 C.3       2 GLC5        0.0000 
     36 CA       -142.4890  -38.2690   89.7570 C.3       6 GLL5        0.0000 
     37 CA       -140.8700  -38.9055   91.0595 C.3       2 GLC5        0.0000 
     38 CA       -139.2510  -39.5420   92.3620 C.3       4 GLP5        0.0000 
     39 O        -141.9400  -37.0765   91.9215 O.2       1 ALC1        0.0000 
     40 O        -141.9930  -37.1700   90.3210 O.2       5 ALL1        0.0000 
     41 O        -141.8870  -36.9830   93.5220 O.2       3 ALP1        0.0000 
     42 CA       -141.4861  -39.8200   88.2998 C.3       2 GLC5        0.0000 
@<TRIPOS>BOND
@<TRIPOS>SUBSTRUCTURE
     1 ALC1        1 GROUP        1 X    ALC  0     ROOT ALC X 1
     2 GLC5        4 GROUP        1 X    GLC  0     **** GLC X 6
     3 ALP1        3 GROUP        1 Y    ALP  0     ROOT ALP Y 8
     4 GLP5        6 GROUP        1 Y    GLP  0     **** GLP Y 13
     5 ALL1        2 GROUP        1 Z    ALL  0     ROOT ALL Z 15
     6 GLL5        5 GROUP        1 Z    GLL  0     **** GLL Z 20
@<TRIPOS>SET

