#    Name: 2hch_N5A_1_ligand
#    Modification time : Tue Mar 25 15:52:04 2014

@<TRIPOS>MOLECULE
2hch_N5A_1_ligand
   41    43     1     0     0
SMALL
NO_CHARGES


@<TRIPOS>ATOM
      1 N53      -144.5680  -38.0510   78.8690 N.4       1 N5A401      0.0000 
      2 C52      -143.9030  -36.9790   79.6250 C.3       1 N5A401      0.0000 
      3 C51      -142.7550  -37.5760   80.4400 C.3       1 N5A401      0.0000 
      4 N5'      -143.2910  -38.6190   81.3270 N.am      1 N5A401      0.0000 
      5 C5'      -143.5900  -38.3760   82.6010 C.2       1 N5A401      0.0000 
      6 O5'      -143.4330  -37.2820   83.1300 O.2       1 N5A401      0.0000 
      7 C4'      -144.1430  -39.5270   83.4490 C.3       1 N5A401      0.0000 
      8 O4'      -143.1260  -40.0840   84.2990 O.3       1 N5A401      0.0000 
      9 C3'      -145.2480  -39.0580   84.3940 C.3       1 N5A401      0.0000 
     10 O3'      -146.4950  -39.0430   83.6930 O.3       1 N5A401      0.0000 
     11 C2'      -145.2360  -40.2490   85.3480 C.3       1 N5A401      0.0000 
     12 O2'      -145.7320  -41.4080   84.6710 O.3       1 N5A401      0.0000 
     13 C1'      -143.7280  -40.3790   85.5730 C.3       1 N5A401      0.0000 
     14 N9       -143.2600  -39.3560   86.5360 N.pl3     1 N5A401      0.0000 
     15 C8       -142.7780  -38.1510   86.2410 C.2       1 N5A401      0.0000 
     16 N7       -142.4150  -37.5320   87.3630 N.2       1 N5A401      0.0000 
     17 C5       -142.6690  -38.3460   88.3840 C.ar      1 N5A401      0.0000 
     18 C4       -143.2100  -39.5120   87.8560 C.ar      1 N5A401      0.0000 
     19 N3       -143.5360  -40.5210   88.6750 N.ar      1 N5A401      0.0000 
     20 C2       -143.3450  -40.4160   89.9780 C.ar      1 N5A401      0.0000 
     21 N1       -142.8360  -39.3210   90.5150 N.ar      1 N5A401      0.0000 
     22 C6       -142.4890  -38.2690   89.7570 C.ar      1 N5A401      0.0000 
     23 N6       -141.9930  -37.1700   90.3210 N.pl3     1 N5A401      0.0000 
     24 H        -144.5993  -36.4994   80.3103 H         1 N5A401      0.0000 
     25 H        -143.4939  -36.2275   78.9524 H         1 N5A401      0.0000 
     26 H        -142.2902  -36.7792   81.0159 H         1 N5A401      0.0000 
     27 H        -142.0231  -37.9917   79.7515 H         1 N5A401      0.0000 
     28 H        -143.4190  -39.5550   80.8900 H         1 N5A401      0.0000 
     29 H        -144.5541  -40.2802   82.8049 H         1 N5A401      0.0000 
     30 H        -144.9692  -38.2176   84.8756 H         1 N5A401      0.0000 
     31 H        -145.6974  -39.9961   86.2249 H         1 N5A401      0.0000 
     32 H        -143.5040  -41.3488   85.8943 H         1 N5A401      0.0000 
     33 H        -142.7019  -37.7771   85.3393 H         1 N5A401      0.0000 
     34 H        -143.6062  -41.2293   90.6079 H         1 N5A401      0.0000 
     35 H        -141.8567  -37.2066   91.3110 H         1 N5A401      0.0000 
     36 H        -141.8014  -36.4068   89.7039 H         1 N5A401      0.0000 
     37 H        -143.9380  -38.5092   78.2420 H         1 N5A401      0.0000 
     38 H        -144.9431  -38.7540   79.4733 H         1 N5A401      0.0000 
     39 H        -145.3268  -37.7020   78.3190 H         1 N5A401      0.0000 
     40 H        -146.8036  -39.9943   83.6936 H         1 N5A401      0.0000 
     41 H        -144.9486  -41.7658   84.1628 H         1 N5A401      0.0000 
@<TRIPOS>BOND
     1    2    1 1    
     2   37    1 1    
     3   38    1 1    
     4   39    1 1    
     5    3    2 1    
     6   24    2 1    
     7   25    2 1    
     8    4    3 1    
     9   26    3 1    
    10   27    3 1    
    11    5    4 am   
    12   28    4 1    
    13    6    5 2    
    14    7    5 1    
    15    8    7 1    
    16    9    7 1    
    17   29    7 1    
    18   13    8 1    
    19   10    9 1    
    20   11    9 1    
    21   30    9 1    
    22   40   10 1    
    23   12   11 1    
    24   13   11 1    
    25   31   11 1    
    26   41   12 1    
    27   14   13 1    
    28   32   13 1    
    29   15   14 1    
    30   18   14 1    
    31   16   15 2    
    32   33   15 1    
    33   17   16 1    
    34   18   17 ar   
    35   22   17 ar   
    36   19   18 ar   
    37   20   19 ar   
    38   21   20 ar   
    39   34   20 1    
    40   22   21 ar   
    41   23   22 1    
    42   35   23 1    
    43   36   23 1    
@<TRIPOS>SUBSTRUCTURE
     1 N5A401      1 GROUP   
@<TRIPOS>SET

