#    Name: 1BNU_1_CAVITY_N1_ALL.mol2
#    Modification time : Mon Mar 10 15:05:11 2014

@<TRIPOS>MOLECULE
1BNU_1_CAVITY_N1_ALL.mol2
   69     0     6     0     0
SMALL
NO_CHARGES


@<TRIPOS>ATOM
      1 CA         -2.4269    7.5082   15.6710 C.3       5 GLY6        0.0000 
      2 CA         -1.1149    6.1711   14.6757 C.3       5 GLY6        0.0000 
      3 DU         -2.2455    7.0607   14.2509 H         6 CUB7        0.0000 
      4 N          -0.9335    5.7235   13.2555 N.2       2 ALA2        0.0000 
      5 DU         -2.0640    6.6132   12.8307 H         6 CUB7        0.0000 
      6 N           0.3785    4.3864   12.2602 N.2       2 ALA2        0.0000 
      7 CZ          0.5599    3.9389   10.8400 C.ar      4 PHE5        0.0000 
      8 CA         -3.3959    6.3865   15.9007 C.3       5 GLY6        0.0000 
      9 CZ         -4.5265    7.2762   15.4759 C.ar      4 PHE5        0.0000 
     10 CA         -2.0840    5.0494   14.9053 C.3       5 GLY6        0.0000 
     11 CA         -3.2145    5.9390   14.4806 C.3       5 GLY6        0.0000 
     12 CZ         -4.3450    6.8286   14.0558 C.ar      4 PHE5        0.0000 
     13 N          -1.9025    4.6018   13.4852 N.2       2 ALA2        0.0000 
     14 DU         -3.0330    5.4915   13.0604 H         6 CUB7        0.0000 
     15 DU         -4.1636    6.3811   12.6356 H         6 CUB7        0.0000 
     16 CZ         -5.2941    7.2708   12.2108 C.ar      4 PHE5        0.0000 
     17 CZ         -6.4246    8.1604   11.7860 C.ar      4 PHE5        0.0000 
     18 OG         -0.5905    3.2647   12.4899 O.2       1 SER1        0.0000 
     19 OG         -1.7211    4.1543   12.0651 O.2       1 SER1        0.0000 
     20 DU         -2.8516    5.0439   11.6403 H         6 CUB7        0.0000 
     21 DU         -3.9821    5.9336   11.2155 H         6 CUB7        0.0000 
     22 N          -1.5396    3.7068   10.6449 N.2       2 ALA2        0.0000 
     23 N          -2.6701    4.5964   10.2201 N.2       2 ALA2        0.0000 
     24 CA         -5.4955    6.1544   15.7056 C.3       5 GLY6        0.0000 
     25 CZ         -6.6260    7.0441   15.2808 C.ar      4 PHE5        0.0000 
     26 OG         -3.0530    3.9276   15.1350 O.2       1 SER1        0.0000 
     27 CA         -4.1835    4.8173   14.7102 C.3       5 GLY6        0.0000 
     28 DU         -5.3140    5.7069   14.2854 H         6 CUB7        0.0000 
     29 CZ         -6.4445    6.5966   13.8606 C.ar      4 PHE5        0.0000 
     30 CZ         -7.5751    7.4862   13.4358 C.ar      4 PHE5        0.0000 
     31 OG         -2.8715    3.4801   13.7149 O.2       1 SER1        0.0000 
     32 DU         -4.0021    4.3697   13.2901 H         6 CUB7        0.0000 
     33 O          -5.1326    5.2594   12.8653 O.2       2 ALA2        0.0000 
     34 O          -6.2631    6.1490   12.4405 O.2       2 ALA2        0.0000 
     35 CA         -7.3936    7.0387   12.0157 C.3       5 GLY6        0.0000 
     36 N          -2.6901    3.0326   12.2947 N.2       2 ALA2        0.0000 
     37 N          -3.8206    3.9222   11.8699 N.2       2 ALA2        0.0000 
     38 O          -4.9511    4.8119   11.4452 O.2       2 ALA2        0.0000 
     39 N          -3.6392    3.4747   10.4498 N.2       2 ALA2        0.0000 
     40 N          -4.7697    4.3643   10.0250 N.2       2 ALA2        0.0000 
     41 O          -5.9002    5.2540    9.6002 O.2       2 ALA2        0.0000 
     42 CA         -6.6459    5.4802   17.3554 C.3       5 GLY6        0.0000 
     43 CA         -5.3340    4.1431   16.3600 C.3       5 GLY6        0.0000 
     44 CA         -6.4645    5.0327   15.9352 C.3       5 GLY6        0.0000 
     45 OG         -4.0220    2.8059   15.3647 O.2       1 SER1        0.0000 
     46 CA         -5.1525    3.6956   14.9399 C.3       5 GLY6        0.0000 
     47 CA         -6.2830    4.5852   14.5151 C.3       5 GLY6        0.0000 
     48 CA         -7.4136    5.4748   14.0903 C.3       5 GLY6        0.0000 
     49 OG         -3.8405    2.3584   13.9446 O.2       1 SER1        0.0000 
     50 O          -4.9711    3.2480   13.5198 O.2       2 ALA2        0.0000 
     51 O          -6.1016    4.1377   13.0950 O.2       2 ALA2        0.0000 
     52 N          -3.6591    1.9109   12.5244 N.2       2 ALA2        0.0000 
     53 O          -4.7896    2.8005   12.0996 O.2       2 ALA2        0.0000 
     54 N          -4.6082    2.3530   10.6795 N.2       2 ALA2        0.0000 
     55 CA         -5.3539    2.5792   18.4347 C.3       5 GLY6        0.0000 
     56 CA         -6.4844    3.4689   18.0099 C.3       5 GLY6        0.0000 
     57 CA         -5.1725    2.1317   17.0145 C.3       5 GLY6        0.0000 
     58 CA         -6.3030    3.0214   16.5897 C.3       5 GLY6        0.0000 
     59 CA         -7.4335    3.9110   16.1649 C.3       5 GLY6        0.0000 
     60 OD1        -4.9910    1.6842   15.5944 O.3       3 ASP3        0.0000 
     61 N          -6.1215    2.5738   15.1696 N.2       2 ALA2        0.0000 
     62 CA         -7.2521    3.4635   14.7448 C.3       5 GLY6        0.0000 
     63 N          -5.9401    2.1263   13.7494 N.2       2 ALA2        0.0000 
     64 O          -7.0706    3.0159   13.3246 O.2       2 ALA2        0.0000 
     65 O          -5.7586    1.6788   12.3293 O.2       2 ALA2        0.0000 
     66 CZ         -6.3229    1.4575   18.6643 C.ar      4 PHE5        0.0000 
     67 CA         -7.4534    2.3472   18.2395 C.3       5 GLY6        0.0000 
     68 OD1        -6.1415    1.0100   17.2442 O.3       3 ASP3        0.0000 
     69 CA         -7.2720    1.8996   16.8194 C.3       5 GLY6        0.0000 
@<TRIPOS>BOND
@<TRIPOS>SUBSTRUCTURE
     1 SER1       18 GROUP   
     2 ALA2        4 GROUP   
     3 ASP3       60 GROUP   
     4 PHE5        7 GROUP   
     5 GLY6        1 GROUP   
     6 CUB7        3 GROUP   
@<TRIPOS>SET

