#    Name: 1bnu_AL3_1_INTS_M
#    Modification time : Mon Mar 24 19:40:08 2014

@<TRIPOS>MOLECULE
1bnu_AL3_1_INTS_M
   34     0    12     0     0
SMALL
NO_CHARGES


@<TRIPOS>ATOM
      1 O          -1.6945    2.1600   13.7760 O.2       1 ALC1        0.0000 
      2 O          -2.3100    3.0260   12.8700 O.2       9 ALL1        0.0000 
      3 O          -1.0790    1.2940   14.6820 O.2       5 ALP1        0.0000 
      4 CA         -2.4815    6.1450   16.3570 C.3       4 GLC5        0.0000 
      5 CA         -3.0250    6.6200   14.5750 C.3      12 GLL5        0.0000 
      6 CA         -1.9380    5.6700   18.1390 C.3       8 GLP5        0.0000 
      7 CA         -2.0045   11.3025   15.9820 C.3       4 GLC5        0.0000 
      8 CA         -1.2980   10.0360   14.3240 C.3      12 GLL5        0.0000 
      9 CA         -2.7110   12.5690   17.6400 C.3       8 GLP5        0.0000 
     10 N          -4.1495    0.6170   18.6930 N.am      2 SEC2        0.0000 
     11 N          -5.4610    0.9870   18.1890 N.am     10 SEL2        0.0000 
     12 N          -2.8380    0.2470   19.1970 N.am      6 SEP2        0.0000 
     13 O          -4.5435   -1.2010   17.0440 O.2       1 ALC1        0.0000 
     14 O          -5.3540   -0.3940   16.2360 O.2       9 ALL1        0.0000 
     15 O          -3.7330   -2.0080   17.8520 O.2       5 ALP1        0.0000 
     16 Zn         -6.1165   -0.9815   15.8420 Zn        3 ZIC7        0.0000 
     17 Zn         -5.3540   -0.3940   16.2360 Zn       11 ZIL7        0.0000 
     18 Zn         -6.8790   -1.5690   15.4480 Zn        7 ZIP7        0.0000 
     19 CA         -2.9270    0.5785   14.8375 C.3       4 GLC5        0.0000 
     20 CA         -4.2640    2.2050   15.1130 C.3      12 GLL5        0.0000 
     21 CA         -1.5900   -1.0480   14.5620 C.3       8 GLP5        0.0000 
     22 CA         -8.1685    3.4475   15.5010 C.3       4 GLC5        0.0000 
     23 CA         -6.3430    3.5400   15.7230 C.3      12 GLL5        0.0000 
     24 CA         -9.9940    3.3550   15.2790 C.3       8 GLP5        0.0000 
     25 CA         -2.9990    9.7715   16.7015 C.3       4 GLC5        0.0000 
     26 CA         -1.6320    8.7810   15.4670 C.3      12 GLL5        0.0000 
     27 CA         -4.3660   10.7620   17.9360 C.3       8 GLP5        0.0000 
     28 CA         -1.7850    7.2255   16.8030 C.3       4 GLC5        0.0000 
     29 CA          0.0785    8.0160   16.1100 C.3       4 GLC5        0.0000 
     30 CA          1.7890    7.2510   16.7530 C.3       8 GLP5        0.0000 
     31 CA         -0.7770    9.1110   17.4015 C.3       4 GLC5        0.0000 
     32 CA          0.0780    9.4410   19.3360 C.3       8 GLP5        0.0000 
     33 CA         -4.9424    4.0922   16.9521 C.3       4 GLC5        0.0000 
     34 CA         -4.3400    4.9280   18.5400 C.3       8 GLP5        0.0000 
@<TRIPOS>BOND
@<TRIPOS>SUBSTRUCTURE
     1 ALC1        1 GROUP        1 X    ALC  0     ROOT ALC X 1
     2 SEC2       10 GROUP        1 X    SEC  0     **** SEC X 2
     3 ZIC7       16 GROUP        1 X    ZIC  0     **** ZIC X 5
     4 GLC5        4 GROUP        1 X    GLC  0     **** GLC X 6
     5 ALP1        3 GROUP        1 Y    ALP  0     ROOT ALP Y 8
     6 SEP2       12 GROUP        1 Y    SEP  0     **** SEP Y 9
     7 ZIP7       18 GROUP        1 Y    ZIP  0     **** ZIP Y 12
     8 GLP5        6 GROUP        1 Y    GLP  0     **** GLP Y 13
     9 ALL1        2 GROUP        1 Z    ALL  0     ROOT ALL Z 15
    10 SEL2       11 GROUP        1 Z    SEL  0     **** SEL Z 16
    11 ZIL7       17 GROUP        1 Z    ZIL  0     **** ZIL Z 19
    12 GLL5        5 GROUP        1 Z    GLL  0     **** GLL Z 20
@<TRIPOS>SET

