#    Name: 1bnu_AL3_1_ligand
#    Modification time : Mon Mar 24 19:40:08 2014

@<TRIPOS>MOLECULE
1bnu_AL3_1_ligand
   33    35     1     0     0
SMALL
NO_CHARGES


@<TRIPOS>ATOM
      1 C3         -5.3870    2.1330   15.8720 C.2       1 AL3555      0.0000 
      2 O5         -2.3100    3.0260   12.8700 O.3       1 AL3555      0.0000 
      3 C9         -3.3960    5.1670   12.7360 C.3       1 AL3555      0.0000 
      4 C10        -2.9520    4.0030   13.6750 C.3       1 AL3555      0.0000 
      5 C11        -3.0250    6.6200   14.5750 C.3       1 AL3555      0.0000 
      6 C12        -2.4260    7.8850   14.2360 C.2       1 AL3555      0.0000 
      7 C13        -2.4300    8.5120   13.0050 C.2       1 AL3555      0.0000 
      8 C14        -1.7940    9.7230   13.0680 C.2       1 AL3555      0.0000 
      9 C15        -1.2980   10.0360   14.3240 C.2       1 AL3555      0.0000 
     10 O1A        -5.4610    0.9870   18.1890 O.2       1 AL3555      0.0000 
     11 O2A        -7.3040    0.8500   16.8940 O.2       1 AL3555      0.0000 
     12 N21        -5.3540   -0.3940   16.2360 N.pl3     1 AL3555      0.0000 
     13 S1         -5.8810    0.8350   16.8560 S.o2      1 AL3555      0.0000 
     14 C4         -4.2640    2.2050   15.1130 C.2       1 AL3555      0.0000 
     15 C5         -4.1360    3.3590   14.4010 C.2       1 AL3555      0.0000 
     16 C6         -5.2000    4.1940   14.6360 C.2       1 AL3555      0.0000 
     17 S2         -6.3430    3.5400   15.7230 S.3       1 AL3555      0.0000 
     18 S7         -5.3150    5.8180   14.0610 S.o2      1 AL3555      0.0000 
     19 O3B        -6.2970    5.8260   13.0500 O.2       1 AL3555      0.0000 
     20 O4B        -5.8480    6.6350   15.1020 O.2       1 AL3555      0.0000 
     21 N8         -3.9840    6.2390   13.5360 N.pl3     1 AL3555      0.0000 
     22 S16        -1.6320    8.7810   15.4670 S.3       1 AL3555      0.0000 
     23 H          -4.1121    4.7603   12.0259 H         1 AL3555      0.0000 
     24 H          -2.5149    5.5082   12.1977 H         1 AL3555      0.0000 
     25 H          -2.2759    4.4127   14.4036 H         1 AL3555      0.0000 
     26 H          -3.5405    6.6854   15.5448 H         1 AL3555      0.0000 
     27 H          -2.2537    5.8408   14.6668 H         1 AL3555      0.0000 
     28 H          -2.8333    8.1371   12.2031 H         1 AL3555      0.0000 
     29 H          -1.6927   10.3287   12.2891 H         1 AL3555      0.0000 
     30 H          -0.8388   10.7503   14.6784 H         1 AL3555      0.0000 
     31 H          -4.4607   -0.7032   16.5622 H         1 AL3555      0.0000 
     32 H          -3.5836    1.4708   15.0778 H         1 AL3555      0.0000 
     33 H          -1.9044    2.3821   13.5188 H         1 AL3555      0.0000 
@<TRIPOS>BOND
     1   13    1 1    
     2   14    1 2    
     3   17    1 1    
     4    4    2 1    
     5   33    2 1    
     6    4    3 1    
     7   21    3 1    
     8   23    3 1    
     9   24    3 1    
    10   15    4 1    
    11   25    4 1    
    12    6    5 1    
    13   21    5 1    
    14   26    5 1    
    15   27    5 1    
    16    7    6 2    
    17   22    6 1    
    18    8    7 1    
    19   28    7 1    
    20    9    8 2    
    21   29    8 1    
    22   22    9 1    
    23   30    9 1    
    24   13   10 2    
    25   13   11 2    
    26   13   12 1    
    27   31   12 1    
    28   15   14 1    
    29   32   14 1    
    30   16   15 2    
    31   17   16 1    
    32   18   16 1    
    33   19   18 2    
    34   20   18 2    
    35   21   18 1    
@<TRIPOS>SUBSTRUCTURE
     1 AL3555      1 GROUP   
@<TRIPOS>SET

