#    Name: 2vwy_7X5_1_INTS_M
#    Modification time : Tue Mar 25 03:12:47 2014

@<TRIPOS>MOLECULE
2vwy_7X5_1_INTS_M
   72     0     9     0     0
SMALL
NO_CHARGES


@<TRIPOS>ATOM
      1 O          15.1725    7.5730   11.1105 O.2       1 ALC1        0.0000 
      2 O          13.7700    7.5110   11.5220 O.2       7 ALL1        0.0000 
      3 O          16.5750    7.6350   10.6990 O.2       4 ALP1        0.0000 
      4 CA         12.8485    5.6775   13.7185 C.3       3 GLC5        0.0000 
      5 CA         13.1190    6.3010   11.8330 C.3       9 GLL5        0.0000 
      6 CA         12.5780    5.0540   15.6040 C.3       6 GLP5        0.0000 
      7 CA         14.8510    5.5605   10.9300 C.3       3 GLC5        0.0000 
      8 CA         16.5830    4.8200   10.0270 C.3       6 GLP5        0.0000 
      9 CA         12.7730    4.7785   10.3805 C.3       3 GLC5        0.0000 
     10 CA         12.4270    3.2560    8.9280 C.3       6 GLP5        0.0000 
     11 N          15.4880    5.2965   12.3130 N.am      2 SEC2        0.0000 
     12 N          13.9870    5.3590   12.2370 N.am      8 SEL2        0.0000 
     13 N          16.9890    5.2340   12.3890 N.am      5 SEP2        0.0000 
     14 CA         15.2185    4.3365   13.6180 C.3       3 GLC5        0.0000 
     15 CA         13.4830    4.1580   12.5420 C.3       9 GLL5        0.0000 
     16 CA         16.9540    4.5150   14.6940 C.3       6 GLP5        0.0000 
     17 CA         14.9540    3.7330   11.3930 C.3       3 GLC5        0.0000 
     18 CA         16.4250    3.3080   10.2440 C.3       6 GLP5        0.0000 
     19 CA         10.1670    6.3545   13.1745 C.3       3 GLC5        0.0000 
     20 CA         11.3220    4.9190   12.0260 C.3       9 GLL5        0.0000 
     21 CA          9.0120    7.7900   14.3230 C.3       6 GLP5        0.0000 
     22 CA         10.8855    4.0860   14.5990 C.3       3 GLC5        0.0000 
     23 CA          9.1930    3.1180   13.5940 C.3       9 GLL5        0.0000 
     24 CA          7.4995    3.6560   14.4300 C.3       3 GLC5        0.0000 
     25 CA          5.8060    4.1940   15.2660 C.3       6 GLP5        0.0000 
     26 CA         11.0680    3.9245   15.6500 C.3       3 GLC5        0.0000 
     27 CA          9.5580    2.7950   15.6960 C.3       9 GLL5        0.0000 
     28 CA          9.6295    3.9165   17.3965 C.3       3 GLC5        0.0000 
     29 CA          9.7010    5.0380   19.0970 C.3       6 GLP5        0.0000 
     30 CA          7.6820    3.4945   15.4810 C.3       3 GLC5        0.0000 
     31 CA         10.3625    1.1485   15.4255 C.3       3 GLC5        0.0000 
     32 CA         11.1670   -0.4980   15.1550 C.3       6 GLP5        0.0000 
     33 CA          8.1420   -0.8370   13.5455 C.3       3 GLC5        0.0000 
     34 CA          7.9340    1.1670   13.0460 C.3       9 GLL5        0.0000 
     35 CA          8.3500   -2.8410   14.0450 C.3       6 GLP5        0.0000 
     36 CA         10.5725    3.2190    9.3020 C.3       3 GLC5        0.0000 
     37 CA          8.7180    3.1820    9.6760 C.3       9 GLL5        0.0000 
     38 CA          9.4685    1.8280    8.5680 C.3       3 GLC5        0.0000 
     39 CA         10.2190    0.4740    7.4600 C.3       6 GLP5        0.0000 
     40 CA         16.8375   11.1930    8.5270 C.3       3 GLC5        0.0000 
     41 CA         15.5680   12.4060    9.4360 C.3       9 GLL5        0.0000 
     42 CA         18.1070    9.9800    7.6180 C.3       6 GLP5        0.0000 
     43 CA         15.0015   10.6815    8.5585 C.3       3 GLC5        0.0000 
     44 CA         14.4350    8.9570    7.6810 C.3       6 GLP5        0.0000 
     45 CA         12.5053    2.2050   12.0740 C.3       3 GLC5        0.0000 
     46 CA         12.1950    0.3880   11.6500 C.3       6 GLP5        0.0000 
     47 CA         12.3234    4.7622   13.9330 C.3       3 GLC5        0.0000 
     48 CA         12.2479    3.8632   10.5950 C.3       3 GLC5        0.0000 
     49 CA         12.1480    3.8860   12.4540 C.3       9 GLL5        0.0000 
     50 CA         10.7137    1.8565   12.2930 C.3       3 GLC5        0.0000 
     51 CA          9.2720    3.5320   12.2780 C.3       9 GLL5        0.0000 
     52 CA          6.7110    2.3613   13.9217 C.3       3 GLC5        0.0000 
     53 CA          8.5420    1.9860   13.9670 C.3       9 GLL5        0.0000 
     54 CA          5.1840    3.1460   14.3370 C.3       6 GLP5        0.0000 
     55 CA          9.7839    0.6808   14.2841 C.3       3 GLC5        0.0000 
     56 CA          6.8414    2.9684   12.3280 C.3       3 GLC5        0.0000 
     57 CA          8.0080    1.5550   11.7220 C.3       9 GLL5        0.0000 
     58 CA          5.1970    3.5960   12.8900 C.3       6 GLP5        0.0000 
     59 CA         10.2632    1.2630   11.5910 C.3       3 GLC5        0.0000 
     60 CA         12.8072   10.7387   12.5617 C.3       3 GLC5        0.0000 
     61 CA         12.3420   11.3270   10.6860 C.3       9 GLL5        0.0000 
     62 CA         12.6120   10.2700   14.2870 C.3       6 GLP5        0.0000 
     63 CA         13.7188   10.0823    9.2587 C.3       3 GLC5        0.0000 
     64 CA         13.6630   11.0880   10.9870 C.3       9 GLL5        0.0000 
     65 CA         12.1510    9.9497   12.5385 C.3       3 GLC5        0.0000 
     66 CA         11.4640   10.2690   10.6510 C.3       9 GLL5        0.0000 
     67 CA         13.0625    9.2933    9.2355 C.3       3 GLC5        0.0000 
     68 CA         11.9160    8.9900   10.9290 C.3       9 GLL5        0.0000 
     69 CA         13.1487    9.7828   12.7630 C.3       3 GLC5        0.0000 
     70 CA         13.2440    8.7700   11.2260 C.3       9 GLL5        0.0000 
     71 CA         14.0602    9.1262    9.4600 C.3       3 GLC5        0.0000 
     72 CA         14.1270    9.8210   11.2520 C.3       9 GLL5        0.0000 
@<TRIPOS>BOND
@<TRIPOS>SUBSTRUCTURE
     1 ALC1        1 GROUP        1 X    ALC  0     ROOT ALC X 1
     2 SEC2       11 GROUP        1 X    SEC  0     **** SEC X 2
     3 GLC5        4 GROUP        1 X    GLC  0     **** GLC X 6
     4 ALP1        3 GROUP        1 Y    ALP  0     ROOT ALP Y 8
     5 SEP2       13 GROUP        1 Y    SEP  0     **** SEP Y 9
     6 GLP5        6 GROUP        1 Y    GLP  0     **** GLP Y 13
     7 ALL1        2 GROUP        1 Z    ALL  0     ROOT ALL Z 15
     8 SEL2       12 GROUP        1 Z    SEL  0     **** SEL Z 16
     9 GLL5        5 GROUP        1 Z    GLL  0     **** GLL Z 20
@<TRIPOS>SET

