#    Name: 2vwy_7X5_1_ligand
#    Modification time : Tue Mar 25 03:12:47 2014

@<TRIPOS>MOLECULE
2vwy_7X5_1_ligand
   43    46     1     0     0
SMALL
NO_CHARGES


@<TRIPOS>ATOM
      1 N1         13.7700    7.5110   11.5220 N.pl3     1 7X51889     0.0000 
      2 C7         13.1190    6.3010   11.8330 C.ar      1 7X51889     0.0000 
      3 N2         13.9870    5.3590   12.2370 N.ar      1 7X51889     0.0000 
      4 C8         13.4830    4.1580   12.5420 C.ar      1 7X51889     0.0000 
      5 C9         12.1480    3.8860   12.4540 C.ar      1 7X51889     0.0000 
      6 C10        11.3220    4.9190   12.0260 C.ar      1 7X51889     0.0000 
      7 N3          9.9220    4.7170   11.9110 N.pl3     1 7X51889     0.0000 
      8 C11         9.2720    3.5320   12.2780 C.ar      1 7X51889     0.0000 
      9 C12         9.1930    3.1180   13.5940 C.ar      1 7X51889     0.0000 
     10 O3          9.7500    3.7850   14.6630 O.3       1 7X51889     0.0000 
     11 C13         9.5580    2.7950   15.6960 C.3       1 7X51889     0.0000 
     12 O4          8.5970    1.7730   15.3270 O.3       1 7X51889     0.0000 
     13 C14         8.5420    1.9860   13.9670 C.ar      1 7X51889     0.0000 
     14 C15         7.9340    1.1670   13.0460 C.ar      1 7X51889     0.0000 
     15 C16         8.0080    1.5550   11.7220 C.ar      1 7X51889     0.0000 
     16 C17         8.6550    2.7210   11.3420 C.ar      1 7X51889     0.0000 
     17 CL1         8.7180    3.1820    9.6760 Cl        1 7X51889     0.0000 
     18 N4         11.7910    6.1280   11.7170 N.ar      1 7X51889     0.0000 
     19 C1         15.5680   12.4060    9.4360 C.3       1 7X51889     0.0000 
     20 S1         14.8210   12.4330   11.0430 S.o2      1 7X51889     0.0000 
     21 O1         14.0760   13.6790   11.1310 O.2       1 7X51889     0.0000 
     22 O2         15.8110   12.1390   12.0680 O.2       1 7X51889     0.0000 
     23 C2         13.6630   11.0880   10.9870 C.ar      1 7X51889     0.0000 
     24 C3         12.3420   11.3270   10.6860 C.ar      1 7X51889     0.0000 
     25 C4         11.4640   10.2690   10.6510 C.ar      1 7X51889     0.0000 
     26 C5         11.9160    8.9900   10.9290 C.ar      1 7X51889     0.0000 
     27 C6         13.2440    8.7700   11.2260 C.ar      1 7X51889     0.0000 
     28 C18        14.1270    9.8210   11.2520 C.ar      1 7X51889     0.0000 
     29 H          14.8674    7.4497   11.5118 H         1 7X51889     0.0000 
     30 H          14.1295    3.3867   12.8627 H         1 7X51889     0.0000 
     31 H          11.7659    2.9789   12.6867 H         1 7X51889     0.0000 
     32 H           9.3465    5.5065   11.5276 H         1 7X51889     0.0000 
     33 H           9.2285    3.2925   16.6385 H         1 7X51889     0.0000 
     34 H          10.5340    2.3154   15.9448 H         1 7X51889     0.0000 
     35 H           7.4548    0.3207   13.3204 H         1 7X51889     0.0000 
     36 H           7.5679    0.9588   10.9902 H         1 7X51889     0.0000 
     37 H          12.0168   12.2807   10.4905 H         1 7X51889     0.0000 
     38 H          10.4719   10.4232   10.4190 H         1 7X51889     0.0000 
     39 H          11.2520    8.1980   10.9130 H         1 7X51889     0.0000 
     40 H          15.1190    9.6643   11.4660 H         1 7X51889     0.0000 
     41 H          16.1860   13.1805    9.3006 H         1 7X51889     0.0000 
     42 H          16.1037   11.5744    9.2894 H         1 7X51889     0.0000 
     43 H          14.8839   12.4461    8.7077 H         1 7X51889     0.0000 
@<TRIPOS>BOND
     1    2    1 1    
     2   27    1 1    
     3   29    1 1    
     4    3    2 ar   
     5   18    2 ar   
     6    4    3 ar   
     7    5    4 ar   
     8   30    4 1    
     9    6    5 ar   
    10   31    5 1    
    11    7    6 1    
    12   18    6 ar   
    13    8    7 1    
    14   32    7 1    
    15    9    8 ar   
    16   16    8 ar   
    17   10    9 1    
    18   13    9 ar   
    19   11   10 1    
    20   12   11 1    
    21   33   11 1    
    22   34   11 1    
    23   13   12 1    
    24   14   13 ar   
    25   15   14 ar   
    26   35   14 1    
    27   16   15 ar   
    28   36   15 1    
    29   17   16 1    
    30   20   19 1    
    31   41   19 1    
    32   42   19 1    
    33   43   19 1    
    34   21   20 2    
    35   22   20 2    
    36   23   20 1    
    37   24   23 ar   
    38   28   23 ar   
    39   25   24 ar   
    40   37   24 1    
    41   26   25 ar   
    42   38   25 1    
    43   27   26 ar   
    44   39   26 1    
    45   28   27 ar   
    46   40   28 1    
@<TRIPOS>SUBSTRUCTURE
     1 7X51889     1 GROUP   
@<TRIPOS>SET

