#    Name: 2r0c_FAD_1_INTS_M
#    Modification time : Mon Mar 24 23:01:04 2014

@<TRIPOS>MOLECULE
2r0c_FAD_1_INTS_M
   97     0     9     0     0
SMALL
NO_CHARGES


@<TRIPOS>ATOM
      1 CA         20.4865   -8.3860   17.3185 C.3       3 GLC5        0.0000 
      2 CA         20.7650   -7.7980   15.4210 C.3       9 GLL5        0.0000 
      3 CA         20.2080   -8.9740   19.2160 C.3       6 GLP5        0.0000 
      4 CA         20.7120   -4.9540   14.3940 C.3       3 GLC5        0.0000 
      5 CA         21.2750   -6.7980   14.3900 C.3       9 GLL5        0.0000 
      6 CA         20.1490   -3.1100   14.3980 C.3       6 GLP5        0.0000 
      7 CA         19.5080   -7.1755   13.0940 C.3       3 GLC5        0.0000 
      8 CA         17.7410   -7.5530   11.7980 C.3       6 GLP5        0.0000 
      9 O          21.9275   -5.8650   11.6795 O.2       1 ALC1        0.0000 
     10 O          21.9170   -7.1470   12.0290 O.2       7 ALL1        0.0000 
     11 O          21.9380   -4.5830   11.3300 O.2       4 ALP1        0.0000 
     12 CA         25.4135   -5.5705   13.1220 C.3       3 GLC5        0.0000 
     13 CA         23.5930   -6.6630   13.7500 C.3       9 GLL5        0.0000 
     14 CA         27.2340   -4.4780   12.4940 C.3       6 GLP5        0.0000 
     15 N          25.9420   -6.1910   13.5835 N.am      2 SEC2        0.0000 
     16 N          24.5730   -6.4640   12.7270 N.am      8 SEL2        0.0000 
     17 N          27.3110   -5.9180   14.4400 N.am      5 SEP2        0.0000 
     18 O          24.1330   -6.0185   11.5825 O.2       1 ALC1        0.0000 
     19 O          24.5730   -6.4640   12.7270 O.2       7 ALL1        0.0000 
     20 O          23.6930   -5.5730   10.4380 O.2       4 ALP1        0.0000 
     21 CA         21.6205   -4.2610   14.3905 C.3       3 GLC5        0.0000 
     22 CA         23.0920   -5.4120   14.3830 C.3       9 GLL5        0.0000 
     23 CA         26.7315   -2.4820   14.1620 C.3       3 GLC5        0.0000 
     24 CA         26.0250   -1.9510   16.1550 C.3       9 GLL5        0.0000 
     25 CA         27.4380   -3.0130   12.1690 C.3       6 GLP5        0.0000 
     26 CA         27.8920   -1.0930   15.5110 C.3       3 GLC5        0.0000 
     27 CA         29.7590   -0.2350   14.8670 C.3       6 GLP5        0.0000 
     28 O          27.4055   -0.2310   17.5420 O.2       1 ALC1        0.0000 
     29 O          26.8760   -1.6040   17.1540 O.2       7 ALL1        0.0000 
     30 O          27.9350    1.1420   17.9300 O.2       4 ALP1        0.0000 
     31 N          26.3865    0.3750   15.2655 N.am      2 SEC2        0.0000 
     32 N          25.7870   -1.0500   15.1400 N.am      8 SEL2        0.0000 
     33 N          26.9860    1.8000   15.3910 N.am      5 SEP2        0.0000 
     34 CA         23.7235   -1.3950   15.6795 C.3       3 GLC5        0.0000 
     35 CA         24.9390   -1.3950   14.1420 C.3       9 GLL5        0.0000 
     36 CA         22.5080   -1.3950   17.2170 C.3       6 GLP5        0.0000 
     37 CA         23.9855   -1.5790   12.3400 C.3       3 GLC5        0.0000 
     38 CA         23.0320   -1.7630   10.5380 C.3       6 GLP5        0.0000 
     39 CA         26.1885   -2.2040   13.1555 C.3       3 GLC5        0.0000 
     40 CA         26.5355   -0.1545   13.7615 C.3       3 GLC5        0.0000 
     41 CA         28.1320    1.0860   13.3810 C.3       6 GLP5        0.0000 
     42 N          24.7775   -2.5170   12.5390 N.am      2 SEC2        0.0000 
     43 N          24.2490   -2.5840   13.9970 N.am      8 SEL2        0.0000 
     44 N          25.3060   -2.4500   11.0810 N.am      5 SEP2        0.0000 
     45 CA         22.3360   -3.2970   14.7340 C.3       3 GLC5        0.0000 
     46 CA         24.5230   -3.4840   15.0700 C.3       9 GLL5        0.0000 
     47 N          18.2975  -22.4125   12.0330 N.am      2 SEC2        0.0000 
     48 N          18.0840  -21.7830   13.2180 N.am      8 SEL2        0.0000 
     49 N          18.5110  -23.0420   10.8480 N.am      5 SEP2        0.0000 
     50 N          19.2355  -21.8145   12.3175 N.am      2 SEC2        0.0000 
     51 N          20.3870  -21.8460   11.4170 N.am      5 SEP2        0.0000 
     52 N          20.2105  -20.8325   12.6810 N.am      2 SEC2        0.0000 
     53 N          20.0340  -19.8190   13.9450 N.am      8 SEL2        0.0000 
     54 CA         20.8935  -17.8585   12.7250 C.3       3 GLC5        0.0000 
     55 CA         20.9010  -18.7860   14.3670 C.3       9 GLL5        0.0000 
     56 CA         20.8860  -16.9310   11.0830 C.3       6 GLP5        0.0000 
     57 CA         22.9580  -17.3765   16.7810 C.3       3 GLC5        0.0000 
     58 CA         23.6220  -15.5720   15.7100 C.3       9 GLL5        0.0000 
     59 CA         22.2940  -19.1810   17.8520 C.3       6 GLP5        0.0000 
     60 CA         18.5150  -17.8570   17.1470 C.3       3 GLC5        0.0000 
     61 CA         18.3170  -16.3310   16.0100 C.3       9 GLL5        0.0000 
     62 CA         18.7130  -19.3830   18.2840 C.3       6 GLP5        0.0000 
     63 CA         16.3395  -15.5530   13.5150 C.3       3 GLC5        0.0000 
     64 CA         17.5450  -15.3550   15.0630 C.3       9 GLL5        0.0000 
     65 CA         15.1340  -15.7510   11.9670 C.3       6 GLP5        0.0000 
     66 O          16.6300  -14.0475   17.8485 O.2       1 ALC1        0.0000 
     67 O          16.0950  -14.7470   16.8630 O.2       7 ALL1        0.0000 
     68 O          17.1650  -13.3480   18.8340 O.2       4 ALP1        0.0000 
     69 CA         15.6725  -14.4815   13.5235 C.3       3 GLC5        0.0000 
     70 CA         16.2110  -13.2120   15.0800 C.3       9 GLL5        0.0000 
     71 CA         14.3750  -10.5240   16.1935 C.3       3 GLC5        0.0000 
     72 CA         15.8370  -12.1920   16.1150 C.3       9 GLL5        0.0000 
     73 CA         12.9130   -8.8560   16.2720 C.3       6 GLP5        0.0000 
     74 CA         16.4985  -11.8610   18.2360 C.3       3 GLC5        0.0000 
     75 CA         17.1600  -11.5300   20.3570 C.3       6 GLP5        0.0000 
     76 N          14.8240   -8.3640   14.3985 N.am      2 SEC2        0.0000 
     77 N          15.9730   -8.8800   15.2120 N.am      8 SEL2        0.0000 
     78 N          13.6750   -7.8480   13.5850 N.am      5 SEP2        0.0000 
     79 N          15.7275   -9.6070   19.0105 N.am      2 SEC2        0.0000 
     80 N          16.1080   -9.3270   17.6640 N.am      8 SEL2        0.0000 
     81 N          15.3470   -9.8870   20.3570 N.am      5 SEP2        0.0000 
     82 CA         20.9435   -6.3150   16.6668 C.3       3 GLC5        0.0000 
     83 CA         20.8670   -5.3320   18.4280 C.3       6 GLP5        0.0000 
     84 CA         26.0905   -3.9185   14.0500 C.3       3 GLC5        0.0000 
     85 CA         25.3710   -3.2340   16.1420 C.3       9 GLL5        0.0000 
     86 CA         23.8092   -2.2166   16.4131 C.3       3 GLC5        0.0000 
     87 CA         22.3377  -20.0753   15.4285 C.3       3 GLC5        0.0000 
     88 CA         22.3000  -18.8970   14.1210 C.3       9 GLL5        0.0000 
     89 CA         23.0750  -21.3090   16.6130 C.3       6 GLP5        0.0000 
     90 CA         22.1290  -17.1082   13.1163 C.3       3 GLC5        0.0000 
     91 CA         21.4960  -15.8170   11.9090 C.3       6 GLP5        0.0000 
     92 CA         23.5325  -19.6517   15.4952 C.3       3 GLC5        0.0000 
     93 CA         23.2240  -17.9020   14.5260 C.3       9 GLL5        0.0000 
     94 CA         22.3385  -15.9772   13.6880 C.3       3 GLC5        0.0000 
     95 CA         22.7400  -16.7030   15.2240 C.3       9 GLL5        0.0000 
     96 CA         21.1740  -16.4513   13.5892 C.3       3 GLC5        0.0000 
     97 CA         21.3150  -16.5980   15.4660 C.3       9 GLL5        0.0000 
@<TRIPOS>BOND
@<TRIPOS>SUBSTRUCTURE
     1 ALC1        9 GROUP        1 X    ALC  0     ROOT ALC X 1
     2 SEC2       15 GROUP        1 X    SEC  0     **** SEC X 2
     3 GLC5        1 GROUP        1 X    GLC  0     **** GLC X 6
     4 ALP1       11 GROUP        1 Y    ALP  0     ROOT ALP Y 8
     5 SEP2       17 GROUP        1 Y    SEP  0     **** SEP Y 9
     6 GLP5        3 GROUP        1 Y    GLP  0     **** GLP Y 13
     7 ALL1       10 GROUP        1 Z    ALL  0     ROOT ALL Z 15
     8 SEL2       16 GROUP        1 Z    SEL  0     **** SEL Z 16
     9 GLL5        2 GROUP        1 Z    GLL  0     **** GLL Z 20
@<TRIPOS>SET

