#    Name: 2r0c_FAD_1_ligand
#    Modification time : Mon Mar 24 23:01:04 2014

@<TRIPOS>MOLECULE
2r0c_FAD_1_ligand
   84    89     1     0     0
SMALL
NO_CHARGES


@<TRIPOS>ATOM
      1 PA         19.3050  -10.0350   15.2300 P.3       1 FAD1430     0.0000 
      2 O1A        18.6520  -10.7010   14.0970 O.co2     1 FAD1430     0.0000 
      3 O2A        20.2530  -10.8280   16.0690 O.co2     1 FAD1430     0.0000 
      4 O5B        20.0080   -8.7650   14.6430 O.3       1 FAD1430     0.0000 
      5 C5B        20.7650   -7.7980   15.4210 C.3       1 FAD1430     0.0000 
      6 C4B        21.2750   -6.7980   14.3900 C.3       1 FAD1430     0.0000 
      7 O4B        22.0140   -5.8450   15.1980 O.3       1 FAD1430     0.0000 
      8 C3B        22.3090   -7.3570   13.3720 C.3       1 FAD1430     0.0000 
      9 O3B        21.9170   -7.1470   12.0290 O.3       1 FAD1430     0.0000 
     10 C2B        23.5930   -6.6630   13.7500 C.3       1 FAD1430     0.0000 
     11 O2B        24.5730   -6.4640   12.7270 O.3       1 FAD1430     0.0000 
     12 C1B        23.0920   -5.4120   14.3830 C.3       1 FAD1430     0.0000 
     13 N9A        24.0290   -4.7300   15.2630 N.pl3     1 FAD1430     0.0000 
     14 C8A        24.5910   -5.1830   16.4310 C.2       1 FAD1430     0.0000 
     15 N7A        25.4040   -4.3030   16.9840 N.2       1 FAD1430     0.0000 
     16 C5A        25.3710   -3.2340   16.1420 C.ar      1 FAD1430     0.0000 
     17 C6A        26.0250   -1.9510   16.1550 C.ar      1 FAD1430     0.0000 
     18 N6A        26.8760   -1.6040   17.1540 N.pl3     1 FAD1430     0.0000 
     19 N1A        25.7870   -1.0500   15.1400 N.ar      1 FAD1430     0.0000 
     20 C2A        24.9390   -1.3950   14.1420 C.ar      1 FAD1430     0.0000 
     21 N3A        24.2490   -2.5840   13.9970 N.ar      1 FAD1430     0.0000 
     22 C4A        24.5230   -3.4840   15.0700 C.ar      1 FAD1430     0.0000 
     23 N1         16.7100  -18.4020   15.1540 N.2       1 FAD1430     0.0000 
     24 C2         15.8460  -19.3510   14.7890 C.2       1 FAD1430     0.0000 
     25 O2         14.6310  -19.2820   15.0020 O.2       1 FAD1430     0.0000 
     26 N3         16.3510  -20.5220   14.1140 N.am      1 FAD1430     0.0000 
     27 C4         17.7400  -20.7350   13.8030 C.2       1 FAD1430     0.0000 
     28 O4         18.0840  -21.7830   13.2180 O.2       1 FAD1430     0.0000 
     29 C4X        18.6220  -19.7010   14.2070 C.2       1 FAD1430     0.0000 
     30 N5         20.0340  -19.8190   13.9450 N.2       1 FAD1430     0.0000 
     31 C5X        20.9010  -18.7860   14.3670 C.ar      1 FAD1430     0.0000 
     32 C6         22.3000  -18.8970   14.1210 C.ar      1 FAD1430     0.0000 
     33 C7         23.2240  -17.9020   14.5260 C.ar      1 FAD1430     0.0000 
     34 C7M        24.7560  -18.0870   14.2290 C.3       1 FAD1430     0.0000 
     35 C8         22.7400  -16.7030   15.2240 C.ar      1 FAD1430     0.0000 
     36 C8M        23.6220  -15.5720   15.7100 C.3       1 FAD1430     0.0000 
     37 C9         21.3150  -16.5980   15.4660 C.ar      1 FAD1430     0.0000 
     38 C9A        20.3890  -17.5730   15.0730 C.ar      1 FAD1430     0.0000 
     39 N10        18.9010  -17.5130   15.3070 N.pl3     1 FAD1430     0.0000 
     40 C10        18.0460  -18.5360   14.8920 C.2       1 FAD1430     0.0000 
     41 C1'        18.3170  -16.3310   16.0100 C.3       1 FAD1430     0.0000 
     42 C2'        17.5450  -15.3550   15.0630 C.3       1 FAD1430     0.0000 
     43 O2'        18.4340  -14.8890   14.0650 O.3       1 FAD1430     0.0000 
     44 C3'        16.9900  -14.2160   15.8840 C.3       1 FAD1430     0.0000 
     45 O3'        16.0950  -14.7470   16.8630 O.3       1 FAD1430     0.0000 
     46 C4'        16.2110  -13.2120   15.0800 C.3       1 FAD1430     0.0000 
     47 O4'        16.5860  -12.6900   13.8210 O.3       1 FAD1430     0.0000 
     48 C5'        15.8370  -12.1920   16.1150 C.3       1 FAD1430     0.0000 
     49 O5'        16.1490  -11.0150   15.5790 O.3       1 FAD1430     0.0000 
     50 P          16.5940   -9.6890   16.2910 P.3       1 FAD1430     0.0000 
     51 O1P        15.9730   -8.8800   15.2120 O.co2     1 FAD1430     0.0000 
     52 O2P        16.1080   -9.3270   17.6640 O.co2     1 FAD1430     0.0000 
     53 O3P        18.1880   -9.5830   16.2410 O.3       1 FAD1430     0.0000 
     54 H          21.6066   -8.2527   15.9046 H         1 FAD1430     0.0000 
     55 H          20.1411   -7.2807   16.1225 H         1 FAD1430     0.0000 
     56 H          20.4865   -6.3290   13.8968 H         1 FAD1430     0.0000 
     57 H          22.4247   -8.4103   13.6206 H         1 FAD1430     0.0000 
     58 H          24.0140   -7.2661   14.5960 H         1 FAD1430     0.0000 
     59 H          22.7199   -4.7520   13.6241 H         1 FAD1430     0.0000 
     60 H          24.3880   -6.0860   16.7988 H         1 FAD1430     0.0000 
     61 H          27.2506   -0.6778   17.1111 H         1 FAD1430     0.0000 
     62 H          27.0531   -2.3052   17.8446 H         1 FAD1430     0.0000 
     63 H          24.7748   -0.6577   13.3582 H         1 FAD1430     0.0000 
     64 H          15.6682  -21.2564   13.8357 H         1 FAD1430     0.0000 
     65 H          22.6513  -19.7372   13.6277 H         1 FAD1430     0.0000 
     66 H          20.9804  -15.7433   15.9607 H         1 FAD1430     0.0000 
     67 H          19.1103  -15.7523   16.5086 H         1 FAD1430     0.0000 
     68 H          17.6150  -16.6598   16.7923 H         1 FAD1430     0.0000 
     69 H          16.7251  -15.9165   14.6444 H         1 FAD1430     0.0000 
     70 H          17.8083  -13.7055   16.3767 H         1 FAD1430     0.0000 
     71 H          15.1634  -13.7629   14.9454 H         1 FAD1430     0.0000 
     72 H          16.3954  -12.4337   17.0253 H         1 FAD1430     0.0000 
     73 H          14.7706  -12.3210   16.3271 H         1 FAD1430     0.0000 
     74 H          25.2953  -17.3147   14.5648 H         1 FAD1430     0.0000 
     75 H          25.1216  -18.9105   14.6628 H         1 FAD1430     0.0000 
     76 H          24.9373  -18.1670   13.2488 H         1 FAD1430     0.0000 
     77 H          24.3011  -15.8888   16.3722 H         1 FAD1430     0.0000 
     78 H          24.1233  -15.1428   14.9587 H         1 FAD1430     0.0000 
     79 H          23.0906  -14.8522   16.1567 H         1 FAD1430     0.0000 
     80 H          21.9380   -6.1549   11.9055 H         1 FAD1430     0.0000 
     81 H          24.0589   -6.1270   11.9383 H         1 FAD1430     0.0000 
     82 H          18.0728  -13.9971   13.7928 H         1 FAD1430     0.0000 
     83 H          16.3836  -14.3355   17.7275 H         1 FAD1430     0.0000 
     84 H          16.9087  -11.7628   14.0111 H         1 FAD1430     0.0000 
@<TRIPOS>BOND
     1    2    1 ar   
     2    3    1 ar   
     3    4    1 1    
     4   53    1 1    
     5    5    4 1    
     6    6    5 1    
     7   54    5 1    
     8   55    5 1    
     9    7    6 1    
    10    8    6 1    
    11   56    6 1    
    12   12    7 1    
    13    9    8 1    
    14   10    8 1    
    15   57    8 1    
    16   80    9 1    
    17   11   10 1    
    18   12   10 1    
    19   58   10 1    
    20   81   11 1    
    21   13   12 1    
    22   59   12 1    
    23   14   13 1    
    24   22   13 1    
    25   15   14 2    
    26   60   14 1    
    27   16   15 1    
    28   17   16 ar   
    29   22   16 ar   
    30   18   17 1    
    31   19   17 ar   
    32   61   18 1    
    33   62   18 1    
    34   20   19 ar   
    35   21   20 ar   
    36   63   20 1    
    37   22   21 ar   
    38   24   23 1    
    39   40   23 2    
    40   25   24 2    
    41   26   24 am   
    42   27   26 am   
    43   64   26 1    
    44   28   27 2    
    45   29   27 1    
    46   30   29 2    
    47   40   29 1    
    48   31   30 1    
    49   32   31 ar   
    50   38   31 ar   
    51   33   32 ar   
    52   65   32 1    
    53   34   33 1    
    54   35   33 ar   
    55   74   34 1    
    56   75   34 1    
    57   76   34 1    
    58   36   35 1    
    59   37   35 ar   
    60   77   36 1    
    61   78   36 1    
    62   79   36 1    
    63   38   37 ar   
    64   66   37 1    
    65   39   38 1    
    66   40   39 1    
    67   41   39 1    
    68   42   41 1    
    69   67   41 1    
    70   68   41 1    
    71   43   42 1    
    72   44   42 1    
    73   69   42 1    
    74   82   43 1    
    75   45   44 1    
    76   46   44 1    
    77   70   44 1    
    78   83   45 1    
    79   47   46 1    
    80   48   46 1    
    81   71   46 1    
    82   84   47 1    
    83   49   48 1    
    84   72   48 1    
    85   73   48 1    
    86   50   49 1    
    87   51   50 ar   
    88   52   50 ar   
    89   53   50 1    
@<TRIPOS>SUBSTRUCTURE
     1 FAD1430     1 GROUP   
@<TRIPOS>SET

