#    Name: 4ajw_VWN_2_INTS_M
#    Modification time : Tue Mar 25 05:41:57 2014

@<TRIPOS>MOLECULE
4ajw_VWN_2_INTS_M
   64     0     6     0     0
SMALL
NO_CHARGES


@<TRIPOS>ATOM
      1 CA        -11.6445   55.6810    9.5195 C.3       2 GLC5        0.0000 
      2 CA        -10.0460   56.7580    8.8380 C.3       6 GLL5        0.0000 
      3 CA        -13.2430   54.6040   10.2010 C.3       4 GLP5        0.0000 
      4 CA         -7.8085   53.8840    9.5440 C.3       2 GLC5        0.0000 
      5 CA         -8.6250   54.8320    8.1320 C.3       6 GLL5        0.0000 
      6 CA         -6.9920   52.9360   10.9560 C.3       4 GLP5        0.0000 
      7 CA         -9.7155   53.7285    9.1755 C.3       2 GLC5        0.0000 
      8 CA        -10.8060   52.6250   10.2190 C.3       4 GLP5        0.0000 
      9 CA         -6.3845   53.9730    8.3310 C.3       2 GLC5        0.0000 
     10 CA         -7.7640   54.4760    6.9480 C.3       6 GLL5        0.0000 
     11 CA         -5.0050   53.4700    9.7140 C.3       4 GLP5        0.0000 
     12 CA         -6.7030   55.2400    5.4295 C.3       2 GLC5        0.0000 
     13 CA         -5.6420   56.0040    3.9110 C.3       4 GLP5        0.0000 
     14 CA         -7.0925   52.9050    6.1660 C.3       2 GLC5        0.0000 
     15 CA         -6.4210   51.3340    5.3840 C.3       4 GLP5        0.0000 
     16 N          -7.5380   53.9760    4.7225 N.am      1 SEC2        0.0000 
     17 N          -8.5470   54.2040    5.7910 N.am      5 SEL2        0.0000 
     18 N          -6.5290   53.7480    3.6540 N.am      3 SEP2        0.0000 
     19 CA         -9.9190   56.8855    4.0785 C.3       2 GLC5        0.0000 
     20 CA         -9.3140   55.3530    5.4460 C.3       6 GLL5        0.0000 
     21 CA        -10.5240   58.4180    2.7110 C.3       4 GLP5        0.0000 
     22 CA         -7.4780   55.6785    4.6785 C.3       2 GLC5        0.0000 
     23 CA        -10.4815   55.0525   10.7520 C.3       2 GLC5        0.0000 
     24 CA         -9.5530   56.7570   10.1520 C.3       6 GLL5        0.0000 
     25 CA        -11.4100   53.3480   11.3520 C.3       4 GLP5        0.0000 
     26 CA        -13.9290   60.8440    9.1230 C.3       2 GLC5        0.0000 
     27 CA        -12.8950   59.1110    9.0700 C.3       6 GLL5        0.0000 
     28 CA        -14.9630   62.5770    9.1760 C.3       4 GLP5        0.0000 
     29 CA        -11.3450   63.4500    8.6010 C.3       2 GLC5        0.0000 
     30 CA        -11.5210   61.8430    7.1800 C.3       6 GLL5        0.0000 
     31 CA        -11.1690   65.0570   10.0220 C.3       4 GLP5        0.0000 
     32 CA         -9.8905   60.4845    6.9645 C.3       2 GLC5        0.0000 
     33 CA         -8.2600   59.1260    6.7490 C.3       4 GLP5        0.0000 
     34 CA        -12.2030   64.1540    2.8935 C.3       2 GLC5        0.0000 
     35 CA        -12.0970   63.4160    4.9650 C.3       6 GLL5        0.0000 
     36 CA        -12.3090   64.8920    0.8220 C.3       4 GLP5        0.0000 
     37 CA         -9.4725   65.2150    5.7795 C.3       2 GLC5        0.0000 
     38 CA        -10.9440   63.6460    5.7100 C.3       6 GLL5        0.0000 
     39 CA         -8.0010   66.7840    5.8490 C.3       4 GLP5        0.0000 
     40 CA         -9.0375   62.3430    7.6200 C.3       2 GLC5        0.0000 
     41 CA        -10.6440   62.8640    6.8200 C.3       6 GLL5        0.0000 
     42 CA         -7.4310   61.8220    8.4200 C.3       4 GLP5        0.0000 
     43 CA        -14.7805   61.2915    7.8665 C.3       2 GLC5        0.0000 
     44 CA        -14.5980   60.0060    6.5570 C.3       6 GLL5        0.0000 
     45 CA         -9.0297   57.9417    8.1220 C.3       2 GLC5        0.0000 
     46 CA         -7.8043   57.0583    9.5395 C.3       2 GLC5        0.0000 
     47 CA         -5.8090   57.3590    9.5840 C.3       4 GLP5        0.0000 
     48 CA         -7.0018   56.0065    8.5620 C.3       2 GLC5        0.0000 
     49 CA         -9.0217   57.3375    6.3755 C.3       2 GLC5        0.0000 
     50 CA        -10.2530   55.7450    6.5580 C.3       6 GLL5        0.0000 
     51 CA        -11.2803   54.3975    6.2870 C.3       2 GLC5        0.0000 
     52 CA        -12.7770   53.2460    6.5720 C.3       4 GLP5        0.0000 
     53 CA        -13.5293   62.1557    7.9893 C.3       2 GLC5        0.0000 
     54 CA        -12.6700   61.6260    6.4250 C.3       6 GLL5        0.0000 
     55 CA        -13.3878   63.8575    6.4215 C.3       2 GLC5        0.0000 
     56 CA        -12.9780   62.3980    5.3130 C.3       6 GLL5        0.0000 
     57 CA        -14.2380   64.8080    7.7040 C.3       4 GLP5        0.0000 
     58 CA        -11.8398   65.5250    4.8717 C.3       2 GLC5        0.0000 
     59 CA        -12.1590   67.5190    4.4060 C.3       4 GLP5        0.0000 
     60 CA        -10.4703   63.6040    3.9463 C.3       2 GLC5        0.0000 
     61 CA         -9.4200   63.6770    2.5550 C.3       4 GLP5        0.0000 
     62 CA        -12.5160   64.0315    6.9845 C.3       2 GLC5        0.0000 
     63 CA        -10.3055   64.2205    7.9945 C.3       2 GLC5        0.0000 
     64 CA         -9.8170   65.1860    9.7240 C.3       4 GLP5        0.0000 
@<TRIPOS>BOND
@<TRIPOS>SUBSTRUCTURE
     1 SEC2       16 GROUP        1 X    SEC  0     ROOT SEC X 2
     2 GLC5        1 GROUP        1 X    GLC  0     **** GLC X 6
     3 SEP2       18 GROUP        1 Y    SEP  0     ROOT SEP Y 9
     4 GLP5        3 GROUP        1 Y    GLP  0     **** GLP Y 13
     5 SEL2       17 GROUP        1 Z    SEL  0     ROOT SEL Z 16
     6 GLL5        2 GROUP        1 Z    GLL  0     **** GLL Z 20
@<TRIPOS>SET

