#    Name: 4ajw_VWN_2_ligand
#    Modification time : Tue Mar 25 05:41:58 2014

@<TRIPOS>MOLECULE
4ajw_VWN_2_ligand
   43    46     1     0     0
SMALL
NO_CHARGES


@<TRIPOS>ATOM
      1 C1        -10.0460   56.7580    8.8380 C.2       1 VWN2027     0.0000 
      2 N2         -9.4950   55.9670    7.7970 N.3       1 VWN2027     0.0000 
      3 C3         -8.6250   54.8320    8.1320 C.3       1 VWN2027     0.0000 
      4 C4         -7.7640   54.4760    6.9480 C.3       1 VWN2027     0.0000 
      5 O5         -8.5470   54.2040    5.7910 O.3       1 VWN2027     0.0000 
      6 C6         -9.3140   55.3530    5.4460 C.3       1 VWN2027     0.0000 
      7 C7        -10.2530   55.7450    6.5580 C.3       1 VWN2027     0.0000 
      8 N8        -11.1150   57.5260    8.4930 N.2       1 VWN2027     0.0000 
      9 C9        -11.6890   58.2710    9.4410 C.2       1 VWN2027     0.0000 
     10 N10       -11.2420   58.3070   10.7650 N.am      1 VWN2027     0.0000 
     11 C11       -10.1570   57.5530   11.1750 C.2       1 VWN2027     0.0000 
     12 C12        -9.5530   56.7570   10.1520 C.2       1 VWN2027     0.0000 
     13 O13        -9.7920   57.6060   12.3580 O.2       1 VWN2027     0.0000 
     14 C14       -12.5340   60.2070    8.1250 C.2       1 VWN2027     0.0000 
     15 C15       -12.8950   59.1110    9.0700 C.3       1 VWN2027     0.0000 
     16 N16       -13.3330   60.5630    7.0320 N.pl3     1 VWN2027     0.0000 
     17 N17       -11.4520   60.9420    8.2420 N.2       1 VWN2027     0.0000 
     18 C18       -11.5210   61.8430    7.1800 C.ar      1 VWN2027     0.0000 
     19 C19       -12.6700   61.6260    6.4250 C.ar      1 VWN2027     0.0000 
     20 C20       -12.9780   62.3980    5.3130 C.ar      1 VWN2027     0.0000 
     21 C21       -12.0970   63.4160    4.9650 C.ar      1 VWN2027     0.0000 
     22 C22       -10.9440   63.6460    5.7100 C.ar      1 VWN2027     0.0000 
     23 C23       -10.6440   62.8640    6.8200 C.ar      1 VWN2027     0.0000 
     24 C24       -14.5980   60.0060    6.5570 C.3       1 VWN2027     0.0000 
     25 H          -9.2248   53.9598    8.4092 H         1 VWN2027     0.0000 
     26 H          -7.9781   55.0833    8.9780 H         1 VWN2027     0.0000 
     27 H          -7.1426   53.6036    7.2275 H         1 VWN2027     0.0000 
     28 H          -7.0627   55.3140    6.7713 H         1 VWN2027     0.0000 
     29 H          -9.9173   55.1757    4.5361 H         1 VWN2027     0.0000 
     30 H          -8.6634   56.2201    5.2267 H         1 VWN2027     0.0000 
     31 H         -10.7856   56.6551    6.2679 H         1 VWN2027     0.0000 
     32 H         -10.9888   54.9481    6.6980 H         1 VWN2027     0.0000 
     33 H         -11.7364   58.9112   11.4467 H         1 VWN2027     0.0000 
     34 H          -8.7397   56.1747   10.3961 H         1 VWN2027     0.0000 
     35 H         -13.3272   59.5356    9.9855 H         1 VWN2027     0.0000 
     36 H         -13.6538   58.4613    8.6147 H         1 VWN2027     0.0000 
     37 H         -13.8175   62.2260    4.7717 H         1 VWN2027     0.0000 
     38 H         -12.3002   64.0093    4.1434 H         1 VWN2027     0.0000 
     39 H         -10.3024   64.4086    5.4339 H         1 VWN2027     0.0000 
     40 H          -9.7970   63.0339    7.3620 H         1 VWN2027     0.0000 
     41 H         -14.5112   59.0392    6.3167 H         1 VWN2027     0.0000 
     42 H         -15.3164   60.0725    7.2494 H         1 VWN2027     0.0000 
     43 H         -14.9308   60.4817    5.7428 H         1 VWN2027     0.0000 
@<TRIPOS>BOND
     1    2    1 1    
     2    8    1 1    
     3   12    1 2    
     4    3    2 1    
     5    7    2 1    
     6    4    3 1    
     7   25    3 1    
     8   26    3 1    
     9    5    4 1    
    10   27    4 1    
    11   28    4 1    
    12    6    5 1    
    13    7    6 1    
    14   29    6 1    
    15   30    6 1    
    16   31    7 1    
    17   32    7 1    
    18    9    8 2    
    19   10    9 1    
    20   15    9 1    
    21   11   10 am   
    22   33   10 1    
    23   12   11 1    
    24   13   11 2    
    25   34   12 1    
    26   15   14 1    
    27   16   14 1    
    28   17   14 2    
    29   35   15 1    
    30   36   15 1    
    31   19   16 1    
    32   24   16 1    
    33   18   17 1    
    34   19   18 ar   
    35   23   18 ar   
    36   20   19 ar   
    37   21   20 ar   
    38   37   20 1    
    39   22   21 ar   
    40   38   21 1    
    41   23   22 ar   
    42   39   22 1    
    43   40   23 1    
    44   41   24 1    
    45   42   24 1    
    46   43   24 1    
@<TRIPOS>SUBSTRUCTURE
     1 VWN2027     1 GROUP   
@<TRIPOS>SET

