#    Name: 1evz_NAD_1_INTS_M
#    Modification time : Tue Mar 25 00:19:16 2014

@<TRIPOS>MOLECULE
1evz_NAD_1_INTS_M
   71     0     9     0     0
SMALL
NO_CHARGES


@<TRIPOS>ATOM
      1 N          37.4590   44.9175   22.5330 N.am      2 SEC2        0.0000 
      2 N          36.0310   45.8610   22.3110 N.am      8 SEL2        0.0000 
      3 N          38.8870   43.9740   22.7550 N.am      5 SEP2        0.0000 
      4 CA         34.2105   46.6265   25.1045 C.3       3 GLC5        0.0000 
      5 CA         35.3530   48.0650   24.8220 C.3       9 GLL5        0.0000 
      6 CA         33.0680   45.1880   25.3870 C.3       6 GLP5        0.0000 
      7 CA         34.7455   47.0415   26.3265 C.3       3 GLC5        0.0000 
      8 CA         36.0570   48.7080   25.9300 C.3       9 GLL5        0.0000 
      9 CA         33.4340   45.3750   26.7230 C.3       6 GLP5        0.0000 
     10 CA         36.5960   50.5105   24.9755 C.3       3 GLC5        0.0000 
     11 CA         37.1350   52.3130   24.0210 C.3       6 GLP5        0.0000 
     12 CA         37.3730   46.5355   28.4345 C.3       3 GLC5        0.0000 
     13 CA         36.0760   47.9610   27.3140 C.3       9 GLL5        0.0000 
     14 CA         38.6700   45.1100   29.5550 C.3       6 GLP5        0.0000 
     15 CA         37.2765   46.6260   26.0260 C.3       3 GLC5        0.0000 
     16 CA         38.4770   45.2910   24.7380 C.3       6 GLP5        0.0000 
     17 CA         35.3230   46.3535   27.2680 C.3       3 GLC5        0.0000 
     18 CA         34.5700   44.7460   27.2220 C.3       6 GLP5        0.0000 
     19 N          38.7185   47.4425   28.1595 N.am      2 SEC2        0.0000 
     20 N          37.4040   48.1430   27.9360 N.am      8 SEL2        0.0000 
     21 N          40.0330   46.7420   28.3830 N.am      5 SEP2        0.0000 
     22 N          37.4935   47.0790   28.7415 N.am      2 SEC2        0.0000 
     23 N          37.5830   46.0150   29.5470 N.am      5 SEP2        0.0000 
     24 CA         34.1945   46.9740   27.4015 C.3       3 GLC5        0.0000 
     25 CA         34.9550   48.5730   28.0800 C.3       9 GLL5        0.0000 
     26 CA         36.6510   51.1730   26.3550 C.3       3 GLC5        0.0000 
     27 CA         35.1560   50.0370   27.5510 C.3       9 GLL5        0.0000 
     28 CA         38.1460   52.3090   25.1590 C.3       6 GLP5        0.0000 
     29 CA         33.9865   52.4375   31.3555 C.3       3 GLC5        0.0000 
     30 CA         34.3660   53.6390   30.1850 C.3       9 GLL5        0.0000 
     31 CA         33.6070   51.2360   32.5260 C.3       6 GLP5        0.0000 
     32 CA         35.4100   54.8915   29.0365 C.3       3 GLC5        0.0000 
     33 CA         36.4540   56.1440   27.8880 C.3       6 GLP5        0.0000 
     34 N          38.6090   45.0545   21.4560 N.am      2 SEC2        0.0000 
     35 N          38.3310   46.1350   20.1570 N.am      8 SEL2        0.0000 
     36 N          40.7345   45.5900   21.5735 N.am      2 SEC2        0.0000 
     37 N          40.0440   46.8410   21.8820 N.am      8 SEL2        0.0000 
     38 N          41.4250   44.3390   21.2650 N.am      5 SEP2        0.0000 
     39 CA         42.0535   49.7265   21.8590 C.3       3 GLC5        0.0000 
     40 CA         40.3960   50.5840   20.6660 C.3       9 GLL5        0.0000 
     41 CA         43.7110   48.8690   23.0520 C.3       6 GLP5        0.0000 
     42 N          42.3385   53.5020   19.7125 N.am      2 SEC2        0.0000 
     43 N          41.2710   52.6910   20.1320 N.am      8 SEL2        0.0000 
     44 N          43.4060   54.3130   19.2930 N.am      5 SEP2        0.0000 
     45 CA         42.1870   52.5345   17.5930 C.3       3 GLC5        0.0000 
     46 CA         40.7830   51.1380   18.2910 C.3       9 GLL5        0.0000 
     47 CA         43.5910   53.9310   16.8950 C.3       6 GLP5        0.0000 
     48 O          39.8565   52.2855   16.7215 O.2       1 ALC1        0.0000 
     49 O          41.1710   52.0630   17.3340 O.2       7 ALL1        0.0000 
     50 O          38.5420   52.5080   16.1090 O.2       4 ALP1        0.0000 
     51 CA         43.4575   48.7860   19.2625 C.3       3 GLC5        0.0000 
     52 CA         41.8880   50.2210   18.7990 C.3       9 GLL5        0.0000 
     53 CA         45.0270   47.3510   19.7260 C.3       6 GLP5        0.0000 
     54 CA         43.3370   51.6020   17.9335 C.3       3 GLC5        0.0000 
     55 CA         44.7860   52.9830   17.0680 C.3       6 GLP5        0.0000 
     56 N          42.0365   43.4880   15.9240 N.am      2 SEC2        0.0000 
     57 N          41.2220   44.8250   15.9470 N.am      8 SEL2        0.0000 
     58 N          42.8510   42.1510   15.9010 N.am      5 SEP2        0.0000 
     59 CA         45.0610   49.6685   16.2370 C.3       3 GLC5        0.0000 
     60 CA         43.9510   48.2160   16.4390 C.3       9 GLL5        0.0000 
     61 CA         46.1710   51.1210   16.0350 C.3       6 GLP5        0.0000 
     62 CA         43.2625   47.6025   18.8255 C.3       3 GLC5        0.0000 
     63 CA         43.5070   49.2260   17.2930 C.3       9 GLL5        0.0000 
     64 CA         43.0180   45.9790   20.3580 C.3       6 GLP5        0.0000 
     65 CA         44.2135   50.6120   16.5960 C.3       3 GLC5        0.0000 
     66 CA         44.9200   51.9980   15.8990 C.3       6 GLP5        0.0000 
     67 CA         37.0910   46.8387   25.0570 C.3       3 GLC5        0.0000 
     68 CA         33.3533   51.8666   30.5738 C.3       3 GLC5        0.0000 
     69 CA         33.8530   51.9360   28.5060 C.3       9 GLL5        0.0000 
     70 CA         42.7175   46.6072   18.5386 C.3       3 GLC5        0.0000 
     71 CA         41.4110   47.9340   17.7060 C.3       9 GLL5        0.0000 
@<TRIPOS>BOND
@<TRIPOS>SUBSTRUCTURE
     1 ALC1       48 GROUP        1 X    ALC  0     ROOT ALC X 1
     2 SEC2        1 GROUP        1 X    SEC  0     **** SEC X 2
     3 GLC5        4 GROUP        1 X    GLC  0     **** GLC X 6
     4 ALP1       50 GROUP        1 Y    ALP  0     ROOT ALP Y 8
     5 SEP2        3 GROUP        1 Y    SEP  0     **** SEP Y 9
     6 GLP5        6 GROUP        1 Y    GLP  0     **** GLP Y 13
     7 ALL1       49 GROUP        1 Z    ALL  0     ROOT ALL Z 15
     8 SEL2        2 GROUP        1 Z    SEL  0     **** SEL Z 16
     9 GLL5        5 GROUP        1 Z    GLL  0     **** GLL Z 20
@<TRIPOS>SET

