#    Name: 1evz_NAD_1_ligand
#    Modification time : Tue Mar 25 00:19:16 2014

@<TRIPOS>MOLECULE
1evz_NAD_1_ligand
   69    73     1     0     0
SMALL
NO_CHARGES


@<TRIPOS>ATOM
      1 PA         36.2260   47.3830   22.3180 P.3       1 NAD400      0.0000 
      2 O1A        35.2730   48.2840   21.6030 O.co2     1 NAD400      0.0000 
      3 O2A        36.0310   45.8610   22.3110 O.co2     1 NAD400      0.0000 
      4 O5B        36.3670   47.9580   23.7880 O.3       1 NAD400      0.0000 
      5 C5B        35.3530   48.0650   24.8220 C.3       1 NAD400      0.0000 
      6 C4B        36.0570   48.7080   25.9300 C.3       1 NAD400      0.0000 
      7 O4B        35.4550   50.0030   26.2210 O.3       1 NAD400      0.0000 
      8 C3B        36.0760   47.9610   27.3140 C.3       1 NAD400      0.0000 
      9 O3B        37.4040   48.1430   27.9360 O.3       1 NAD400      0.0000 
     10 C2B        34.9550   48.5730   28.0800 C.3       1 NAD400      0.0000 
     11 O2B        34.8830   48.3540   29.4380 O.3       1 NAD400      0.0000 
     12 C1B        35.1560   50.0370   27.5510 C.3       1 NAD400      0.0000 
     13 N9A        33.9930   50.8360   27.6570 N.pl3     1 NAD400      0.0000 
     14 C8A        32.7680   50.7750   27.0160 C.2       1 NAD400      0.0000 
     15 N7A        31.9100   51.6990   27.3790 N.2       1 NAD400      0.0000 
     16 C5A        32.5660   52.4520   28.3310 C.ar      1 NAD400      0.0000 
     17 C6A        32.1260   53.6650   29.1430 C.ar      1 NAD400      0.0000 
     18 N6A        30.9580   54.2470   29.0770 N.pl3     1 NAD400      0.0000 
     19 N1A        33.1430   54.1460   30.0320 N.ar      1 NAD400      0.0000 
     20 C2A        34.3660   53.6390   30.1850 C.ar      1 NAD400      0.0000 
     21 N3A        34.8020   52.5000   29.4380 N.ar      1 NAD400      0.0000 
     22 C4A        33.8530   51.9360   28.5060 C.ar      1 NAD400      0.0000 
     23 O3         37.7270   47.6680   21.9980 O.3       1 NAD400      0.0000 
     24 PN         38.8750   47.1480   21.0020 P.3       1 NAD400      0.0000 
     25 O1N        38.3310   46.1350   20.1570 O.co2     1 NAD400      0.0000 
     26 O2N        40.0440   46.8410   21.8820 O.co2     1 NAD400      0.0000 
     27 O5D        39.2530   48.4620   20.2090 O.3       1 NAD400      0.0000 
     28 C5D        39.1490   49.7900   20.7870 C.3       1 NAD400      0.0000 
     29 C4D        40.3960   50.5840   20.6660 C.3       1 NAD400      0.0000 
     30 O4D        41.4220   49.6800   19.9970 O.3       1 NAD400      0.0000 
     31 C3D        40.3720   51.7890   19.6340 C.3       1 NAD400      0.0000 
     32 O3D        41.2710   52.6910   20.1320 O.3       1 NAD400      0.0000 
     33 C2D        40.7830   51.1380   18.2910 C.3       1 NAD400      0.0000 
     34 O2D        41.1710   52.0630   17.3340 O.3       1 NAD400      0.0000 
     35 C1D        41.8880   50.2210   18.7990 C.3       1 NAD400      0.0000 
     36 N1N        42.2750   49.0560   17.8880 N.pl3     1 NAD400      0.0000 
     37 C2N        41.4110   47.9340   17.7060 C.ar      1 NAD400      0.0000 
     38 C3N        41.9130   46.9700   16.8450 C.ar      1 NAD400      0.0000 
     39 C7N        40.8960   45.7720   16.7030 C.2       1 NAD400      0.0000 
     40 O7N        41.2220   44.8250   15.9470 O.2       1 NAD400      0.0000 
     41 N7N        39.6870   45.8300   17.4250 N.am      1 NAD400      0.0000 
     42 C4N        43.1720   47.0190   16.1630 C.ar      1 NAD400      0.0000 
     43 C5N        43.9510   48.2160   16.4390 C.ar      1 NAD400      0.0000 
     44 C6N        43.5070   49.2260   17.2930 C.ar      1 NAD400      0.0000 
     45 H          35.0043   47.0904   25.1159 H         1 NAD400      0.0000 
     46 H          34.5351   48.6808   24.4911 H         1 NAD400      0.0000 
     47 H          37.1102   48.8880   25.6717 H         1 NAD400      0.0000 
     48 H          35.8674   46.9381   27.1054 H         1 NAD400      0.0000 
     49 H          34.0334   48.2462   27.5179 H         1 NAD400      0.0000 
     50 H          35.9693   50.4669   28.1262 H         1 NAD400      0.0000 
     51 H          32.5845   50.0611   26.3281 H         1 NAD400      0.0000 
     52 H          35.0516   54.0517   30.8537 H         1 NAD400      0.0000 
     53 H          38.8734   49.7170   21.8629 H         1 NAD400      0.0000 
     54 H          38.3180   50.3518   20.3046 H         1 NAD400      0.0000 
     55 H          40.7901   50.9164   21.5660 H         1 NAD400      0.0000 
     56 H          39.3724   52.1029   19.5822 H         1 NAD400      0.0000 
     57 H          39.9565   50.5028   18.0159 H         1 NAD400      0.0000 
     58 H          42.7733   50.8231   18.9838 H         1 NAD400      0.0000 
     59 H          40.5434   47.8704   18.1593 H         1 NAD400      0.0000 
     60 H          39.0750   45.0459   17.3221 H         1 NAD400      0.0000 
     61 H          39.5441   46.6503   17.9788 H         1 NAD400      0.0000 
     62 H          43.4866   46.3223   15.5684 H         1 NAD400      0.0000 
     63 H          44.8720   48.2991   15.9692 H         1 NAD400      0.0000 
     64 H          44.0721   50.0469   17.4636 H         1 NAD400      0.0000 
     65 H          37.8528   48.8474   27.3862 H         1 NAD400      0.0000 
     66 H          35.7466   48.7024   29.8024 H         1 NAD400      0.0000 
     67 H          31.1440   55.2180   29.2269 H         1 NAD400      0.0000 
     68 H          40.7232   53.4868   20.3899 H         1 NAD400      0.0000 
     69 H          40.3369   52.2728   16.8239 H         1 NAD400      0.0000 
@<TRIPOS>BOND
     1    2    1 ar   
     2    3    1 ar   
     3    4    1 1    
     4   23    1 1    
     5    5    4 1    
     6    6    5 1    
     7   45    5 1    
     8   46    5 1    
     9    7    6 1    
    10    8    6 1    
    11   47    6 1    
    12   12    7 1    
    13    9    8 1    
    14   10    8 1    
    15   48    8 1    
    16   65    9 1    
    17   11   10 1    
    18   12   10 1    
    19   49   10 1    
    20   66   11 1    
    21   13   12 1    
    22   50   12 1    
    23   14   13 1    
    24   22   13 1    
    25   15   14 2    
    26   51   14 1    
    27   16   15 1    
    28   17   16 ar   
    29   22   16 ar   
    30   18   17 1    
    31   19   17 ar   
    32   67   18 1    
    33   20   19 ar   
    34   21   20 ar   
    35   52   20 1    
    36   22   21 ar   
    37   24   23 1    
    38   25   24 ar   
    39   26   24 ar   
    40   27   24 1    
    41   28   27 1    
    42   29   28 1    
    43   53   28 1    
    44   54   28 1    
    45   30   29 1    
    46   31   29 1    
    47   55   29 1    
    48   35   30 1    
    49   32   31 1    
    50   33   31 1    
    51   56   31 1    
    52   68   32 1    
    53   34   33 1    
    54   35   33 1    
    55   57   33 1    
    56   69   34 1    
    57   36   35 1    
    58   58   35 1    
    59   37   36 ar   
    60   44   36 ar   
    61   38   37 ar   
    62   59   37 1    
    63   39   38 1    
    64   42   38 ar   
    65   40   39 2    
    66   41   39 am   
    67   60   41 1    
    68   61   41 1    
    69   43   42 ar   
    70   62   42 1    
    71   44   43 ar   
    72   63   43 1    
    73   64   44 1    
@<TRIPOS>SUBSTRUCTURE
     1 NAD400      1 GROUP   
@<TRIPOS>SET

