#    Name: 2ckp_ADP_1_INTS_M
#    Modification time : Tue Mar 25 00:57:56 2014

@<TRIPOS>MOLECULE
2ckp_ADP_1_INTS_M
   57     0    12     0     0
SMALL
NO_CHARGES


@<TRIPOS>ATOM
      1 NZ        -24.2615   22.6690  -16.7290 N.4       3 LYC4        0.0000 
      2 NZ        -22.9100   22.9780  -16.8110 N.4      11 LYL4        0.0000 
      3 NZ        -25.8400   21.7370  -15.4920 N.4       7 LYP4        0.0000 
      4 N         -23.8775   22.0560  -15.8255 N.am      2 SEC2        0.0000 
      5 N         -22.9100   22.9780  -16.8110 N.am     10 SEL2        0.0000 
      6 N         -24.8450   21.1340  -14.8400 N.am      6 SEP2        0.0000 
      7 N         -24.2615   22.6690  -16.7290 N.am      2 SEC2        0.0000 
      8 N         -25.6130   22.3600  -16.6470 N.am      6 SEP2        0.0000 
      9 NZ        -18.4435   20.6995  -17.5215 N.4       3 LYC4        0.0000 
     10 NZ        -18.7610   21.0970  -16.2860 N.4      11 LYL4        0.0000 
     11 NZ        -17.3300   19.2440  -18.8880 N.4       7 LYP4        0.0000 
     12 N         -18.4435   20.6995  -17.5215 N.am      2 SEC2        0.0000 
     13 N         -18.7610   21.0970  -16.2860 N.am     10 SEL2        0.0000 
     14 N         -18.1260   20.3020  -18.7570 N.am      6 SEP2        0.0000 
     15 CA        -17.0180   20.4560  -11.9145 C.3       4 GLC5        0.0000 
     16 CA        -19.1250   20.5850  -12.6680 C.3      12 GLL5        0.0000 
     17 CA        -14.9110   20.3270  -11.1610 C.3       8 GLP5        0.0000 
     18 CA        -18.6440   20.9995   -9.6170 C.3       4 GLC5        0.0000 
     19 CA        -18.6450   19.1120  -10.6610 C.3      12 GLL5        0.0000 
     20 CA        -18.6430   22.8870   -8.5730 C.3       8 GLP5        0.0000 
     21 N         -18.4115   19.9620   -8.6705 N.am      2 SEC2        0.0000 
     22 N         -19.4280   19.0460   -9.4520 N.am     10 SEL2        0.0000 
     23 N         -17.3950   20.8780   -7.8890 N.am      6 SEP2        0.0000 
     24 O         -17.3130   16.4320   -8.8640 O.2       1 ALC1        0.0000 
     25 O         -18.1320   16.8550   -9.8530 O.2       9 ALL1        0.0000 
     26 O         -16.4940   16.0090   -7.8750 O.2       5 ALP1        0.0000 
     27 CA        -19.5575   17.5140  -13.9305 C.3       4 GLC5        0.0000 
     28 CA        -18.3740   17.2520  -12.1990 C.3      12 GLL5        0.0000 
     29 CA        -20.7410   17.7760  -15.6620 C.3       8 GLP5        0.0000 
     30 CA        -13.7840   13.1060  -14.4930 C.3       4 GLC5        0.0000 
     31 CA        -14.3790   15.1420  -14.4120 C.3      12 GLL5        0.0000 
     32 CA        -13.1890   11.0700  -14.5740 C.3       8 GLP5        0.0000 
     33 CA        -12.2745   15.3880  -14.0505 C.3       4 GLC5        0.0000 
     34 CA        -10.1700   15.6340  -13.6890 C.3       8 GLP5        0.0000 
     35 O         -13.5955   16.2795  -16.7275 O.2       1 ALC1        0.0000 
     36 O         -13.4110   15.2180  -15.3600 O.2       9 ALL1        0.0000 
     37 O         -13.7800   17.3410  -18.0950 O.2       5 ALP1        0.0000 
     38 O         -12.8680   14.1230  -15.8480 O.2       1 ALC1        0.0000 
     39 O         -12.3250   13.0280  -16.3360 O.2       5 ALP1        0.0000 
     40 N         -13.3855   13.2220  -13.1700 N.am      2 SEC2        0.0000 
     41 N         -14.4330   14.0580  -13.6150 N.am     10 SEL2        0.0000 
     42 N         -12.3380   12.3860  -12.7250 N.am      6 SEP2        0.0000 
     43 CA        -14.2845   12.4955  -13.6190 C.3       4 GLC5        0.0000 
     44 CA        -15.3800   13.9210  -12.6640 C.3      12 GLL5        0.0000 
     45 CA        -13.4375   13.3090  -12.1240 C.3       4 GLC5        0.0000 
     46 CA        -11.4950   12.6970  -11.5840 C.3       8 GLP5        0.0000 
     47 CA        -20.0302   18.8640  -13.9720 C.3       4 GLC5        0.0000 
     48 CA        -19.5140   19.3190  -11.8960 C.3      12 GLL5        0.0000 
     49 CA        -17.4382   18.5825   -8.9742 C.3       4 GLC5        0.0000 
     50 CA        -16.6120   18.7020   -7.1770 C.3       8 GLP5        0.0000 
     51 CA        -16.5877   19.3950  -10.9662 C.3       4 GLC5        0.0000 
     52 CA        -17.8840   17.8140  -10.8820 C.3      12 GLL5        0.0000 
     53 CA        -14.5285   17.5030  -12.9582 C.3       4 GLC5        0.0000 
     54 CA        -15.4080   16.2060  -14.1930 C.3      12 GLL5        0.0000 
     55 CA        -13.1490   18.9100  -12.2540 C.3       8 GLP5        0.0000 
     56 CA        -16.4484   14.9480  -15.3516 C.3       4 GLC5        0.0000 
     57 CA        -17.2460   14.0660  -16.9860 C.3       8 GLP5        0.0000 
@<TRIPOS>BOND
@<TRIPOS>SUBSTRUCTURE
     1 ALC1       24 GROUP        1 X    ALC  0     ROOT ALC X 1
     2 SEC2        4 GROUP        1 X    SEC  0     **** SEC X 2
     3 LYC4        1 GROUP        1 X    LYC  0     **** LYC X 4
     4 GLC5       15 GROUP        1 X    GLC  0     **** GLC X 6
     5 ALP1       26 GROUP        1 Y    ALP  0     ROOT ALP Y 8
     6 SEP2        6 GROUP        1 Y    SEP  0     **** SEP Y 9
     7 LYP4        3 GROUP        1 Y    LYP  0     **** LYP Y 11
     8 GLP5       17 GROUP        1 Y    GLP  0     **** GLP Y 13
     9 ALL1       25 GROUP        1 Z    ALL  0     ROOT ALL Z 15
    10 SEL2        5 GROUP        1 Z    SEL  0     **** SEL Z 16
    11 LYL4        2 GROUP        1 Z    LYL  0     **** LYL Z 18
    12 GLL5       16 GROUP        1 Z    GLL  0     **** GLL Z 20
@<TRIPOS>SET

