#    Name: 2ckp_ADP_1_ligand
#    Modification time : Tue Mar 25 00:57:56 2014

@<TRIPOS>MOLECULE
2ckp_ADP_1_ligand
   39    41     1     0     0
SMALL
NO_CHARGES


@<TRIPOS>ATOM
      1 PB        -21.5660   22.3080  -16.9980 P.3       1 ADP1458     0.0000 
      2 O1B       -22.9100   22.9780  -16.8110 O.co2     1 ADP1458     0.0000 
      3 O2B       -20.5720   23.1830  -17.7390 O.co2     1 ADP1458     0.0000 
      4 O3B       -21.6960   20.8900  -17.5100 O.co2     1 ADP1458     0.0000 
      5 PA        -19.4550   21.7180  -15.1020 P.3       1 ADP1458     0.0000 
      6 O1A       -18.8510   22.9380  -14.4440 O.co2     1 ADP1458     0.0000 
      7 O2A       -18.7610   21.0970  -16.2860 O.co2     1 ADP1458     0.0000 
      8 O3A       -20.9780   22.1040  -15.4960 O.3       1 ADP1458     0.0000 
      9 O5'       -19.6510   20.5480  -14.0040 O.3       1 ADP1458     0.0000 
     10 C5'       -19.1250   20.5850  -12.6680 C.3       1 ADP1458     0.0000 
     11 C4'       -19.5140   19.3190  -11.8960 C.3       1 ADP1458     0.0000 
     12 O4'       -19.3470   18.1650  -12.7200 O.3       1 ADP1458     0.0000 
     13 C3'       -18.6450   19.1120  -10.6610 C.3       1 ADP1458     0.0000 
     14 O3'       -19.4280   19.0460   -9.4520 O.3       1 ADP1458     0.0000 
     15 C2'       -17.8840   17.8140  -10.8820 C.3       1 ADP1458     0.0000 
     16 O2'       -18.1320   16.8550   -9.8530 O.3       1 ADP1458     0.0000 
     17 C1'       -18.3740   17.2520  -12.1990 C.3       1 ADP1458     0.0000 
     18 N9        -17.2180   17.0500  -13.1200 N.pl3     1 ADP1458     0.0000 
     19 C8        -16.8020   17.8980  -14.0750 C.2       1 ADP1458     0.0000 
     20 N7        -15.7140   17.4060  -14.7290 N.2       1 ADP1458     0.0000 
     21 C5        -15.4080   16.2060  -14.1930 C.ar      1 ADP1458     0.0000 
     22 C6        -14.3790   15.1420  -14.4120 C.ar      1 ADP1458     0.0000 
     23 N6        -13.4110   15.2180  -15.3600 N.pl3     1 ADP1458     0.0000 
     24 N1        -14.4330   14.0580  -13.6150 N.ar      1 ADP1458     0.0000 
     25 C2        -15.3800   13.9210  -12.6640 C.ar      1 ADP1458     0.0000 
     26 N3        -16.3370   14.8400  -12.4150 N.ar      1 ADP1458     0.0000 
     27 C4        -16.4080   15.9860  -13.1320 C.ar      1 ADP1458     0.0000 
     28 H         -19.5085   21.4485  -12.1072 H         1 ADP1458     0.0000 
     29 H         -18.0283   20.6518  -12.6679 H         1 ADP1458     0.0000 
     30 H         -20.5390   19.4115  -11.5731 H         1 ADP1458     0.0000 
     31 H         -17.9222   19.9130  -10.6267 H         1 ADP1458     0.0000 
     32 H         -16.8430   18.0410  -10.9873 H         1 ADP1458     0.0000 
     33 H         -18.8320   16.2897  -11.9851 H         1 ADP1458     0.0000 
     34 H         -17.2209   18.7619  -14.2821 H         1 ADP1458     0.0000 
     35 H         -12.7773   14.4458  -15.4047 H         1 ADP1458     0.0000 
     36 H         -13.4170   16.0395  -15.9302 H         1 ADP1458     0.0000 
     37 H         -15.3725   13.0311  -12.0716 H         1 ADP1458     0.0000 
     38 H         -19.3656   18.0931   -9.1551 H         1 ADP1458     0.0000 
     39 H         -17.2767   16.8016   -9.3376 H         1 ADP1458     0.0000 
@<TRIPOS>BOND
     1    2    1 ar   
     2    3    1 ar   
     3    4    1 ar   
     4    8    1 1    
     5    6    5 ar   
     6    7    5 ar   
     7    8    5 1    
     8    9    5 1    
     9   10    9 1    
    10   11   10 1    
    11   28   10 1    
    12   29   10 1    
    13   12   11 1    
    14   13   11 1    
    15   30   11 1    
    16   17   12 1    
    17   14   13 1    
    18   15   13 1    
    19   31   13 1    
    20   38   14 1    
    21   16   15 1    
    22   17   15 1    
    23   32   15 1    
    24   39   16 1    
    25   18   17 1    
    26   33   17 1    
    27   19   18 1    
    28   27   18 1    
    29   20   19 2    
    30   34   19 1    
    31   21   20 1    
    32   22   21 ar   
    33   27   21 ar   
    34   23   22 1    
    35   24   22 ar   
    36   35   23 1    
    37   36   23 1    
    38   25   24 ar   
    39   26   25 ar   
    40   37   25 1    
    41   27   26 ar   
@<TRIPOS>SUBSTRUCTURE
     1 ADP1458     1 GROUP   
@<TRIPOS>SET

