#    Name: 2X91_1_CAVITY_N1_ALL.mol2
#    Modification time : Mon Mar 10 22:40:14 2014

@<TRIPOS>MOLECULE
2X91_1_CAVITY_N1_ALL.mol2
  196     0     7     0     0
SMALL
NO_CHARGES


@<TRIPOS>ATOM
      1 CA         27.8864   -2.7538   36.1633 C.3       6 GLY6        0.0000 
      2 NZ         28.8006   -4.2987   35.0329 N.2       4 LYS4        0.0000 
      3 NZ         27.6496   -4.2251   35.9920 N.2       4 LYS4        0.0000 
      4 CA         26.4987   -4.1515   36.9511 C.3       6 GLY6        0.0000 
      5 O          25.3478   -4.0779   37.9102 O.2       2 ALA2        0.0000 
      6 NZ         27.4129   -5.6964   35.8207 N.2       4 LYS4        0.0000 
      7 NZ         26.2619   -5.6228   36.7798 N.2       4 LYS4        0.0000 
      8 NZ         25.1110   -5.5492   37.7390 N.2       4 LYS4        0.0000 
      9 CA         23.9600   -5.4756   38.6981 C.3       6 GLY6        0.0000 
     10 O          26.0251   -7.0940   36.6086 O.2       2 ALA2        0.0000 
     11 O          24.8742   -7.0204   37.5677 O.2       2 ALA2        0.0000 
     12 N          23.7232   -6.9469   38.5268 N.2       2 ALA2        0.0000 
     13 O          25.7883   -8.5653   36.4373 O.2       2 ALA2        0.0000 
     14 O          29.9697   -3.1102   36.3447 O.2       2 ALA2        0.0000 
     15 NZ         29.7329   -4.5815   36.1734 N.2       4 LYS4        0.0000 
     16 O          28.5820   -4.5079   37.1325 O.2       2 ALA2        0.0000 
     17 O          27.4310   -4.4343   38.0916 O.2       2 ALA2        0.0000 
     18 O          26.2801   -4.3608   39.0507 O.2       2 ALA2        0.0000 
     19 NZ         28.3452   -5.9792   36.9612 N.2       4 LYS4        0.0000 
     20 DU         27.1943   -5.9056   37.9204 H         7 CUB7        0.0000 
     21 CA         26.0433   -5.8320   38.8795 C.3       6 GLY6        0.0000 
     22 CA         24.8924   -5.7584   39.8386 C.3       6 GLY6        0.0000 
     23 NZ         28.1084   -7.4504   36.7900 N.2       4 LYS4        0.0000 
     24 NZ         26.9575   -7.3769   37.7491 N.2       4 LYS4        0.0000 
     25 OG         25.8065   -7.3033   38.7082 O.2       1 SER1        0.0000 
     26 CA         24.6556   -7.2297   39.6673 C.3       6 GLY6        0.0000 
     27 NZ         27.8716   -8.9217   36.6187 N.2       4 LYS4        0.0000 
     28 NZ         26.7207   -8.8481   37.5778 N.2       4 LYS4        0.0000 
     29 O          25.5697   -8.7745   38.5369 O.2       2 ALA2        0.0000 
     30 OG         24.4188   -8.7009   39.4960 O.2       1 SER1        0.0000 
     31 CA         29.9367  -10.5401   34.5292 C.3       6 GLY6        0.0000 
     32 NZ         28.7858  -10.4665   35.4883 N.2       4 LYS4        0.0000 
     33 O          27.6348  -10.3929   36.4474 O.2       2 ALA2        0.0000 
     34 NZ         26.4839  -10.3194   37.4065 N.2       4 LYS4        0.0000 
     35 N          29.6999  -12.0114   34.3579 N.2       2 ALA2        0.0000 
     36 O          28.5490  -11.9378   35.3170 O.2       2 ALA2        0.0000 
     37 CZ         32.0530   -3.4667   36.5260 C.ar      5 PHE5        0.0000 
     38 O          30.9021   -3.3931   37.4852 O.2       2 ALA2        0.0000 
     39 CZ         30.6653   -4.8643   37.3139 C.ar      5 PHE5        0.0000 
     40 O          29.5143   -4.7907   38.2730 O.2       2 ALA2        0.0000 
     41 O          28.3634   -4.7172   39.2321 O.2       2 ALA2        0.0000 
     42 N          27.2124   -4.6436   40.1913 N.2       2 ALA2        0.0000 
     43 NZ         29.2775   -6.2620   38.1017 N.2       4 LYS4        0.0000 
     44 DU         28.1266   -6.1884   39.0609 H         7 CUB7        0.0000 
     45 DU         26.9757   -6.1148   40.0200 H         7 CUB7        0.0000 
     46 CA         25.8247   -6.0413   40.9791 C.3       6 GLY6        0.0000 
     47 NZ         29.0408   -7.7333   37.9305 N.2       4 LYS4        0.0000 
     48 DU         27.8898   -7.6597   38.8896 H         7 CUB7        0.0000 
     49 OG         26.7389   -7.5861   39.8487 O.2       1 SER1        0.0000 
     50 NZ         29.9549   -9.2781   36.8001 N.2       4 LYS4        0.0000 
     51 NZ         28.8040   -9.2045   37.7592 N.2       4 LYS4        0.0000 
     52 NZ         27.6530   -9.1309   38.7183 N.2       4 LYS4        0.0000 
     53 NZ         26.5021   -9.0574   39.6774 N.2       4 LYS4        0.0000 
     54 NZ         32.0200  -10.8965   34.7105 N.2       4 LYS4        0.0000 
     55 NZ         30.8691  -10.8229   35.6697 N.2       4 LYS4        0.0000 
     56 NZ         29.7181  -10.7494   36.6288 N.2       4 LYS4        0.0000 
     57 NZ         28.5672  -10.6758   37.5879 N.2       4 LYS4        0.0000 
     58 CA         30.6323  -12.2942   35.4984 C.3       6 GLY6        0.0000 
     59 NZ         29.4813  -12.2206   36.4575 N.2       4 LYS4        0.0000 
     60 NZ         28.3304  -12.1470   37.4166 N.2       4 LYS4        0.0000 
     61 N          27.2306   -3.3816   42.4622 N.2       2 ALA2        0.0000 
     62 CZ         31.5976   -5.1472   38.4544 C.ar      5 PHE5        0.0000 
     63 O          30.4467   -5.0736   39.4135 O.2       2 ALA2        0.0000 
     64 N          29.2957   -5.0000   40.3726 N.2       2 ALA2        0.0000 
     65 N          28.1448   -4.9264   41.3318 N.2       2 ALA2        0.0000 
     66 N          26.9938   -4.8528   42.2909 N.2       2 ALA2        0.0000 
     67 NZ         25.8429   -4.7792   43.2500 N.2       4 LYS4        0.0000 
     68 CZ         31.3608   -6.6184   38.2831 C.ar      5 PHE5        0.0000 
     69 DU         30.2099   -6.5448   39.2422 H         7 CUB7        0.0000 
     70 DU         29.0589   -6.4712   40.2014 H         7 CUB7        0.0000 
     71 DU         27.9080   -6.3977   41.1605 H         7 CUB7        0.0000 
     72 CA         26.7571   -6.3241   42.1196 C.3       6 GLY6        0.0000 
     73 NZ         31.1240   -8.0897   38.1118 N.2       4 LYS4        0.0000 
     74 DU         29.9731   -8.0161   39.0710 H         7 CUB7        0.0000 
     75 DU         28.8222   -7.9425   40.0301 H         7 CUB7        0.0000 
     76 OG         27.6712   -7.8689   40.9892 O.2       1 SER1        0.0000 
     77 O          30.8873   -9.5609   37.9406 O.2       2 ALA2        0.0000 
     78 NZ         29.7363   -9.4873   38.8997 N.2       4 LYS4        0.0000 
     79 NZ         28.5854   -9.4138   39.8588 N.2       4 LYS4        0.0000 
     80 NZ         27.4344   -9.3402   40.8179 N.2       4 LYS4        0.0000 
     81 O          31.8014  -11.1058   36.8102 O.2       2 ALA2        0.0000 
     82 O          30.6505  -11.0322   37.7693 O.2       2 ALA2        0.0000 
     83 NZ         29.4995  -10.9586   38.7284 N.2       4 LYS4        0.0000 
     84 N          31.5646  -12.5770   36.6389 N.2       2 ALA2        0.0000 
     85 NZ         30.4137  -12.5034   37.5980 N.2       4 LYS4        0.0000 
     86 NZ         29.2627  -12.4299   38.5571 N.2       4 LYS4        0.0000 
     87 OG         27.4856   -0.6483   44.9043 O.2       1 SER1        0.0000 
     88 N          28.3998   -2.1931   43.7739 N.2       2 ALA2        0.0000 
     89 NZ         27.2488   -2.1196   44.7331 N.2       4 LYS4        0.0000 
     90 N          29.3139   -3.7380   42.6435 N.2       2 ALA2        0.0000 
     91 N          28.1630   -3.6644   43.6027 N.2       2 ALA2        0.0000 
     92 NZ         27.0120   -3.5908   44.5618 N.2       4 LYS4        0.0000 
     93 OD1        31.3790   -5.3564   40.5540 O.3       3 ASP3        0.0000 
     94 N          30.2281   -5.2828   41.5131 N.2       2 ALA2        0.0000 
     95 N          29.0771   -5.2092   42.4723 N.2       2 ALA2        0.0000 
     96 DU         27.9262   -5.1357   43.4314 H         7 CUB7        0.0000 
     97 CA         26.7752   -5.0621   44.3905 C.3       6 GLY6        0.0000 
     98 CZ         32.2932   -6.9012   39.4236 C.ar      5 PHE5        0.0000 
     99 O          31.1422   -6.8277   40.3827 O.2       2 ALA2        0.0000 
    100 O          29.9913   -6.7541   41.3419 O.2       2 ALA2        0.0000 
    101 DU         28.8403   -6.6805   42.3010 H         7 CUB7        0.0000 
    102 DU         27.6894   -6.6069   43.2601 H         7 CUB7        0.0000 
    103 CA         26.5384   -6.5333   44.2192 C.3       6 GLY6        0.0000 
    104 CA         25.3875   -6.4597   45.1784 C.3       6 GLY6        0.0000 
    105 O          32.0564   -8.3725   39.2523 O.2       2 ALA2        0.0000 
    106 O          30.9054   -8.2989   40.2115 O.2       2 ALA2        0.0000 
    107 DU         29.7545   -8.2253   41.1706 H         7 CUB7        0.0000 
    108 OG         28.6035   -8.1517   42.1297 O.2       1 SER1        0.0000 
    109 OG         27.4526   -8.0782   43.0888 O.2       1 SER1        0.0000 
    110 OG         26.3017   -8.0046   44.0480 O.2       1 SER1        0.0000 
    111 O          30.6686   -9.7702   40.0402 O.2       2 ALA2        0.0000 
    112 NZ         29.5177   -9.6966   40.9993 N.2       4 LYS4        0.0000 
    113 NZ         28.3668   -9.6230   41.9584 N.2       4 LYS4        0.0000 
    114 OG         27.2158   -9.5494   42.9176 O.2       1 SER1        0.0000 
    115 NZ         30.4319  -11.2414   39.8689 N.2       4 LYS4        0.0000 
    116 NZ         26.9790  -11.0207   42.7463 N.2       4 LYS4        0.0000 
    117 O          31.3460  -12.7863   38.7385 O.2       2 ALA2        0.0000 
    118 NZ         30.1951  -12.7127   39.6976 N.2       4 LYS4        0.0000 
    119 NZ         24.1786   -5.2664   36.5985 N.2       4 LYS4        0.0000 
    120 O          23.9418   -6.7376   36.4272 O.2       2 ALA2        0.0000 
    121 OG         29.3321   -2.4760   44.9144 O.2       1 SER1        0.0000 
    122 OG         28.1812   -2.4024   45.8736 O.2       1 SER1        0.0000 
    123 OD1        31.3972   -4.0944   42.8249 O.3       3 ASP3        0.0000 
    124 N          30.2463   -4.0208   43.7840 N.2       2 ALA2        0.0000 
    125 CZ         29.0953   -3.9472   44.7432 C.ar      5 PHE5        0.0000 
    126 N          27.9444   -3.8736   45.7023 N.2       2 ALA2        0.0000 
    127 O          31.1604   -5.5656   42.6536 O.2       2 ALA2        0.0000 
    128 DU         30.0095   -5.4921   43.6128 H         7 CUB7        0.0000 
    129 DU         28.8585   -5.4185   44.5719 H         7 CUB7        0.0000 
    130 N          27.7076   -5.3449   45.5310 N.2       2 ALA2        0.0000 
    131 O          30.9236   -7.0369   42.4824 O.2       2 ALA2        0.0000 
    132 DU         29.7727   -6.9633   43.4415 H         7 CUB7        0.0000 
    133 DU         28.6217   -6.8897   44.4006 H         7 CUB7        0.0000 
    134 CA         27.4708   -6.8162   45.3597 C.3       6 GLY6        0.0000 
    135 O          30.6868   -8.5082   42.3111 O.2       2 ALA2        0.0000 
    136 N          29.5359   -8.4346   43.2702 N.2       2 ALA2        0.0000 
    137 DU         28.3849   -8.3610   44.2293 H         7 CUB7        0.0000 
    138 CA         27.2340   -8.2874   45.1885 C.3       6 GLY6        0.0000 
    139 CA         26.0831   -8.2138   46.1476 C.3       6 GLY6        0.0000 
    140 N          31.6010  -10.0530   41.1807 N.2       2 ALA2        0.0000 
    141 N          30.4500   -9.9794   42.1398 N.2       2 ALA2        0.0000 
    142 N          29.2991   -9.9058   43.0989 N.2       2 ALA2        0.0000 
    143 OG         28.1482   -9.8322   44.0581 O.2       1 SER1        0.0000 
    144 OG         26.9972   -9.7587   45.0172 O.2       1 SER1        0.0000 
    145 N          25.8463   -9.6851   45.9763 N.2       2 ALA2        0.0000 
    146 N          31.3642  -11.5242   41.0094 N.2       2 ALA2        0.0000 
    147 NZ         30.2133  -11.4507   41.9685 N.2       4 LYS4        0.0000 
    148 NZ         29.0623  -11.3771   42.9277 N.2       4 LYS4        0.0000 
    149 NZ         27.9114  -11.3035   43.8868 N.2       4 LYS4        0.0000 
    150 CA         26.7604  -11.2299   44.8459 C.3       6 GLY6        0.0000 
    151 OG         32.3295   -4.3772   43.9654 O.2       1 SER1        0.0000 
    152 CZ         31.1786   -4.3036   44.9245 C.ar      5 PHE5        0.0000 
    153 CZ         30.0277   -4.2300   45.8837 C.ar      5 PHE5        0.0000 
    154 CZ         28.8767   -4.1565   46.8428 C.ar      5 PHE5        0.0000 
    155 O          32.0928   -5.8485   43.7941 O.2       2 ALA2        0.0000 
    156 DU         30.9418   -5.7749   44.7533 H         7 CUB7        0.0000 
    157 CZ         29.7909   -5.7013   45.7124 C.ar      5 PHE5        0.0000 
    158 N          28.6399   -5.6277   46.6715 N.2       2 ALA2        0.0000 
    159 O          30.7050   -7.2461   44.5820 O.2       2 ALA2        0.0000 
    160 DU         29.5541   -7.1726   45.5411 H         7 CUB7        0.0000 
    161 O          28.4031   -7.0990   46.5002 O.2       2 ALA2        0.0000 
    162 N          30.4682   -8.7174   44.4107 N.2       2 ALA2        0.0000 
    163 DU         29.3173   -8.6438   45.3698 H         7 CUB7        0.0000 
    164 O          28.1663   -8.5702   46.3290 O.2       2 ALA2        0.0000 
    165 NZ         27.0154   -8.4967   47.2881 N.2       4 LYS4        0.0000 
    166 N          30.2314  -10.1887   44.2394 N.2       2 ALA2        0.0000 
    167 O          29.0805  -10.1151   45.1986 O.2       2 ALA2        0.0000 
    168 DU         27.9296  -10.0415   46.1577 H         7 CUB7        0.0000 
    169 NZ         26.7786   -9.9679   47.1168 N.2       4 LYS4        0.0000 
    170 O          29.9947  -11.6599   44.0682 O.2       2 ALA2        0.0000 
    171 O          28.8437  -11.5863   45.0273 O.2       2 ALA2        0.0000 
    172 CA         27.6928  -11.5127   45.9864 C.3       6 GLY6        0.0000 
    173 CA         26.5418  -11.4392   46.9455 C.3       6 GLY6        0.0000 
    174 NZ         28.6069  -13.0576   44.8560 N.2       4 LYS4        0.0000 
    175 CA         27.4560  -12.9840   45.8151 C.3       6 GLY6        0.0000 
    176 CA         26.3050  -12.9104   46.7743 C.3       6 GLY6        0.0000 
    177 CZ         32.1109   -4.5864   46.0650 C.ar      5 PHE5        0.0000 
    178 CZ         31.8741   -6.0577   45.8938 C.ar      5 PHE5        0.0000 
    179 CZ         30.7232   -5.9841   46.8529 C.ar      5 PHE5        0.0000 
    180 CZ         29.5723   -5.9105   47.8120 C.ar      5 PHE5        0.0000 
    181 CZ         31.6374   -7.5290   45.7225 C.ar      5 PHE5        0.0000 
    182 CZ         30.4864   -7.4554   46.6816 C.ar      5 PHE5        0.0000 
    183 NZ         29.3355   -7.3818   47.6407 N.2       4 LYS4        0.0000 
    184 N          31.4006   -9.0002   45.5512 N.2       2 ALA2        0.0000 
    185 CZ         30.2496   -8.9266   46.5103 C.ar      5 PHE5        0.0000 
    186 NZ         29.0987   -8.8531   47.4695 N.2       4 LYS4        0.0000 
    187 O          30.0128  -10.3979   46.3391 O.2       2 ALA2        0.0000 
    188 NZ         28.8619  -10.3243   47.2982 N.2       4 LYS4        0.0000 
    189 NZ         27.7110  -10.2507   48.2573 N.2       4 LYS4        0.0000 
    190 O          29.7761  -11.8692   46.1678 O.2       2 ALA2        0.0000 
    191 OD1        28.6251  -11.7956   47.1269 O.3       3 ASP3        0.0000 
    192 OD1        27.4742  -11.7220   48.0860 O.3       3 ASP3        0.0000 
    193 NZ         29.5393  -13.3404   45.9965 N.2       4 LYS4        0.0000 
    194 OD1        28.3883  -13.2668   46.9556 O.3       3 ASP3        0.0000 
    195 OD1        27.2374  -13.1932   47.9148 O.3       3 ASP3        0.0000 
    196 CZ         31.6555   -6.2669   47.9934 C.ar      5 PHE5        0.0000 
@<TRIPOS>BOND
@<TRIPOS>SUBSTRUCTURE
     1 SER1       25 GROUP   
     2 ALA2        5 GROUP   
     3 ASP3       93 GROUP   
     4 LYS4        2 GROUP   
     5 PHE5       37 GROUP   
     6 GLY6        1 GROUP   
     7 CUB7       20 GROUP   
@<TRIPOS>SET

