#    Name: 2x91_LPR_1_INTS_M
#    Modification time : Tue Mar 25 05:30:27 2014

@<TRIPOS>MOLECULE
2x91_LPR_1_INTS_M
   66     0    12     0     0
SMALL
NO_CHARGES


@<TRIPOS>ATOM
      1 N          29.3285   -2.3970   42.1365 N.am      1 SEC2        0.0000 
      2 N          29.7170   -3.0590   43.2660 N.am      9 SEL2        0.0000 
      3 N          28.9400   -1.7350   41.0070 N.am      5 SEP2        0.0000 
      4 Zn         27.1110   -1.8055   47.5100 Zn        3 ZIC7        0.0000 
      5 Zn         27.6470   -1.4010   46.8380 Zn       11 ZIL7        0.0000 
      6 Zn         26.5750   -2.2100   48.1820 Zn        7 ZIP7        0.0000 
      7 N          28.9625   -1.0800   46.6735 N.am      1 SEC2        0.0000 
      8 N          27.6470   -1.4010   46.8380 N.am      9 SEL2        0.0000 
      9 N          30.2780   -0.7590   46.5090 N.am      5 SEP2        0.0000 
     10 Zn         26.1415   -1.8895   47.0060 Zn        3 ZIC7        0.0000 
     11 Zn         25.7080   -1.5690   45.8300 Zn       11 ZIL7        0.0000 
     12 N          24.8615   -2.3585   45.0890 N.am      1 SEC2        0.0000 
     13 N          25.7080   -1.5690   45.8300 N.am      9 SEL2        0.0000 
     14 N          24.0150   -3.1480   44.3480 N.am      5 SEP2        0.0000 
     15 N          32.3005   -6.6660   42.4145 N.am      1 SEC2        0.0000 
     16 N          30.9370   -5.8120   42.5300 N.am      9 SEL2        0.0000 
     17 N          33.6640   -7.5200   42.2990 N.am      5 SEP2        0.0000 
     18 NZ         33.3695   -4.3605   41.8500 N.4       2 LYC4        0.0000 
     19 NZ         32.6950   -4.6030   43.0570 N.4      10 LYL4        0.0000 
     20 NZ         34.0440   -4.1180   40.6430 N.4       6 LYP4        0.0000 
     21 N          33.1795   -6.0615   42.6780 N.am      1 SEC2        0.0000 
     22 N          32.6950   -4.6030   43.0570 N.am      9 SEL2        0.0000 
     23 N          33.3695   -4.3605   41.8500 N.am      1 SEC2        0.0000 
     24 N          34.0440   -4.1180   40.6430 N.am      5 SEP2        0.0000 
     25 N          33.7615   -4.5470   43.7710 N.am      1 SEC2        0.0000 
     26 N          34.8280   -4.4910   44.4850 N.am      5 SEP2        0.0000 
     27 CA         27.7020   -2.2960   42.1740 C.3       4 GLC5        0.0000 
     28 CA         27.4320   -3.6340   43.9290 C.3      12 GLL5        0.0000 
     29 CA         27.9720   -0.9580   40.4190 C.3       8 GLP5        0.0000 
     30 CA         26.3375   -4.2295   45.6450 C.3       4 GLC5        0.0000 
     31 CA         25.2430   -4.8250   47.3610 C.3       8 GLP5        0.0000 
     32 CA         30.8945   -3.7935   46.3065 C.3       4 GLC5        0.0000 
     33 CA         31.0830   -4.8930   44.7430 C.3      12 GLL5        0.0000 
     34 CA         30.7060   -2.6940   47.8700 C.3       8 GLP5        0.0000 
     35 CA         33.0745   -6.4540   46.3595 C.3       4 GLC5        0.0000 
     36 CA         31.2840   -6.1180   45.6500 C.3      12 GLL5        0.0000 
     37 CA         34.8650   -6.7900   47.0690 C.3       8 GLP5        0.0000 
     38 CA         31.1355   -7.4830   47.9780 C.3       4 GLC5        0.0000 
     39 CA         30.1550   -6.2620   46.4070 C.3      12 GLL5        0.0000 
     40 CA         32.1160   -8.7040   49.5490 C.3       8 GLP5        0.0000 
     41 CA         27.1055   -5.2900   46.5210 C.3       4 GLC5        0.0000 
     42 CA         28.9680   -5.7550   45.6810 C.3      12 GLL5        0.0000 
     43 CA         29.8370   -4.2245   46.7755 C.3       4 GLC5        0.0000 
     44 CA         25.2190   -5.8910   42.5880 C.3       4 GLC5        0.0000 
     45 CA         26.9060   -4.6770   42.9770 C.3      12 GLL5        0.0000 
     46 CA         23.5320   -7.1050   42.1990 C.3       8 GLP5        0.0000 
     47 CA         27.7420   -2.8785   41.0400 C.3       4 GLC5        0.0000 
     48 CA         27.5120   -4.7990   41.6610 C.3      12 GLL5        0.0000 
     49 CA         25.1765   -4.7275   40.7140 C.3       4 GLC5        0.0000 
     50 CA         26.9470   -5.9390   40.6730 C.3      12 GLL5        0.0000 
     51 CA         23.4060   -3.5160   40.7550 C.3       8 GLP5        0.0000 
     52 CA         25.2395   -6.5220   41.4360 C.3       4 GLC5        0.0000 
     53 CA         25.2565    1.0935   43.1545 C.3       4 GLC5        0.0000 
     54 CA         27.2030    0.3170   43.8640 C.3      12 GLL5        0.0000 
     55 CA         23.3100    1.8700   42.4450 C.3       8 GLP5        0.0000 
     56 CA         27.6875   -0.6678   42.2892 C.3       4 GLC5        0.0000 
     57 CA         31.1732   -4.8430   47.2933 C.3       4 GLC5        0.0000 
     58 CA         31.6270   -3.4960   48.5580 C.3       8 GLP5        0.0000 
     59 CA         25.3075   -4.1270   41.5370 C.3       4 GLC5        0.0000 
     60 CA         29.6305    4.1338   44.2065 C.3       4 GLC5        0.0000 
     61 CA         27.5990    2.8670   44.2280 C.3      12 GLL5        0.0000 
     62 CA         31.3740    4.8700   43.8030 C.3       8 GLP5        0.0000 
     63 CA         29.4395    5.1547   43.9455 C.3       4 GLC5        0.0000 
     64 CA         27.9260    5.2860   44.6480 C.3      12 GLL5        0.0000 
     65 CA         24.9692    2.8645   42.6895 C.3       4 GLC5        0.0000 
     66 CA         26.4990    4.5380   42.7600 C.3      12 GLL5        0.0000 
@<TRIPOS>BOND
@<TRIPOS>SUBSTRUCTURE
     1 SEC2        1 GROUP        1 X    SEC  0     ROOT SEC X 2
     2 LYC4       18 GROUP        1 X    LYC  0     **** LYC X 4
     3 ZIC7        4 GROUP        1 X    ZIC  0     **** ZIC X 5
     4 GLC5       27 GROUP        1 X    GLC  0     **** GLC X 6
     5 SEP2        3 GROUP        1 Y    SEP  0     ROOT SEP Y 9
     6 LYP4       20 GROUP        1 Y    LYP  0     **** LYP Y 11
     7 ZIP7        6 GROUP        1 Y    ZIP  0     **** ZIP Y 12
     8 GLP5       29 GROUP        1 Y    GLP  0     **** GLP Y 13
     9 SEL2        2 GROUP        1 Z    SEL  0     ROOT SEL Z 16
    10 LYL4       19 GROUP        1 Z    LYL  0     **** LYL Z 18
    11 ZIL7        5 GROUP        1 Z    ZIL  0     **** ZIL Z 19
    12 GLL5       28 GROUP        1 Z    GLL  0     **** GLL Z 20
@<TRIPOS>SET

