#    Name: 2x91_LPR_1_ligand
#    Modification time : Tue Mar 25 05:30:27 2014

@<TRIPOS>MOLECULE
2x91_LPR_1_ligand
   58    59     1     0     0
SMALL
NO_CHARGES


@<TRIPOS>ATOM
      1 O1         29.7170   -3.0590   43.2660 O.2       1 LPR1615     0.0000 
      2 O2         27.6470   -1.4010   46.8380 O.co2     1 LPR1615     0.0000 
      3 O3         25.7080   -1.5690   45.8300 O.co2     1 LPR1615     0.0000 
      4 O4         30.9370   -5.8120   42.5300 O.co2     1 LPR1615     0.0000 
      5 O5         32.6950   -4.6030   43.0570 O.co2     1 LPR1615     0.0000 
      6 N1         27.2260   -2.2050   43.5020 N.4       1 LPR1615     0.0000 
      7 N2         29.5760   -4.7520   44.7620 N.am      1 LPR1615     0.0000 
      8 N3         27.5510   -7.4620   38.8350 N.4       1 LPR1615     0.0000 
      9 C1         28.9880   -3.8170   43.9850 C.2       1 LPR1615     0.0000 
     10 C2         27.4320   -3.6340   43.9290 C.3       1 LPR1615     0.0000 
     11 C3         26.9530   -1.3680   45.8110 C.2       1 LPR1615     0.0000 
     12 C4         27.6030   -1.0720   44.4550 C.3       1 LPR1615     0.0000 
     13 C5         31.0830   -4.8930   44.7430 C.3       1 LPR1615     0.0000 
     14 C6         31.2840   -6.1180   45.6500 C.3       1 LPR1615     0.0000 
     15 C7         30.1550   -6.2620   46.4070 C.3       1 LPR1615     0.0000 
     16 C8         28.9680   -5.7550   45.6810 C.3       1 LPR1615     0.0000 
     17 C9         31.5740   -5.1700   43.3080 C.2       1 LPR1615     0.0000 
     18 C10        26.9060   -4.6770   42.9770 C.3       1 LPR1615     0.0000 
     19 C11        27.5120   -4.7990   41.6610 C.3       1 LPR1615     0.0000 
     20 C12        26.9470   -5.9390   40.6730 C.3       1 LPR1615     0.0000 
     21 C13        28.0000   -6.3890   39.7950 C.3       1 LPR1615     0.0000 
     22 C14        27.2030    0.3170   43.8640 C.3       1 LPR1615     0.0000 
     23 C15        27.8870    1.4460   44.6210 C.3       1 LPR1615     0.0000 
     24 C16        27.5990    2.8670   44.2280 C.ar      1 LPR1615     0.0000 
     25 C17        28.1750    3.9280   44.9920 C.ar      1 LPR1615     0.0000 
     26 C18        27.9260    5.2860   44.6480 C.ar      1 LPR1615     0.0000 
     27 C19        27.0840    5.5930   43.5280 C.ar      1 LPR1615     0.0000 
     28 C20        26.4990    4.5380   42.7600 C.ar      1 LPR1615     0.0000 
     29 C21        26.7580    3.1800   43.1080 C.ar      1 LPR1615     0.0000 
     30 H          27.0732   -3.7908   44.9136 H         1 LPR1615     0.0000 
     31 H          28.6820   -1.0914   44.5829 H         1 LPR1615     0.0000 
     32 H          31.5301   -4.0632   45.1630 H         1 LPR1615     0.0000 
     33 H          32.1872   -5.9287   46.2395 H         1 LPR1615     0.0000 
     34 H          31.4823   -6.9692   44.9903 H         1 LPR1615     0.0000 
     35 H          30.2208   -5.7149   47.3739 H         1 LPR1615     0.0000 
     36 H          29.9594   -7.3235   46.6780 H         1 LPR1615     0.0000 
     37 H          28.5113   -6.5349   45.1219 H         1 LPR1615     0.0000 
     38 H          28.2961   -5.2776   46.3519 H         1 LPR1615     0.0000 
     39 H          25.7891   -4.5055   42.8661 H         1 LPR1615     0.0000 
     40 H          26.9506   -5.6787   43.5097 H         1 LPR1615     0.0000 
     41 H          28.6143   -4.9903   41.7345 H         1 LPR1615     0.0000 
     42 H          27.4329   -3.8409   41.0840 H         1 LPR1615     0.0000 
     43 H          26.1179   -5.4859   40.1362 H         1 LPR1615     0.0000 
     44 H          26.5685   -6.7304   41.3144 H         1 LPR1615     0.0000 
     45 H          28.4044   -5.5424   39.2014 H         1 LPR1615     0.0000 
     46 H          28.8559   -6.7860   40.3803 H         1 LPR1615     0.0000 
     47 H          26.1245    0.4220   43.9373 H         1 LPR1615     0.0000 
     48 H          27.4963    0.3410   42.8185 H         1 LPR1615     0.0000 
     49 H          29.0017    1.2748   44.5684 H         1 LPR1615     0.0000 
     50 H          27.6544    1.3199   45.7185 H         1 LPR1615     0.0000 
     51 H          28.7702    3.7072   45.7914 H         1 LPR1615     0.0000 
     52 H          28.3394    6.0370   45.1888 H         1 LPR1615     0.0000 
     53 H          26.9043    6.5613   43.2817 H         1 LPR1615     0.0000 
     54 H          25.9015    4.7574   41.9699 H         1 LPR1615     0.0000 
     55 H          26.3467    2.4263   42.5625 H         1 LPR1615     0.0000 
     56 H          28.2945   -7.7591   38.2359 H         1 LPR1615     0.0000 
     57 H          27.2187   -8.2741   39.3147 H         1 LPR1615     0.0000 
     58 H          26.8081   -7.1455   38.2452 H         1 LPR1615     0.0000 
@<TRIPOS>BOND
     1    9    1 2    
     2   11    2 ar   
     3   11    3 ar   
     4   17    4 ar   
     5   17    5 ar   
     6   10    6 1    
     7   12    6 1    
     8    9    7 am   
     9   13    7 1    
    10   16    7 1    
    11   21    8 1    
    12   56    8 1    
    13   57    8 1    
    14   58    8 1    
    15   10    9 1    
    16   18   10 1    
    17   30   10 1    
    18   12   11 1    
    19   22   12 1    
    20   31   12 1    
    21   14   13 1    
    22   17   13 1    
    23   32   13 1    
    24   15   14 1    
    25   33   14 1    
    26   34   14 1    
    27   16   15 1    
    28   35   15 1    
    29   36   15 1    
    30   37   16 1    
    31   38   16 1    
    32   19   18 1    
    33   39   18 1    
    34   40   18 1    
    35   20   19 1    
    36   41   19 1    
    37   42   19 1    
    38   21   20 1    
    39   43   20 1    
    40   44   20 1    
    41   45   21 1    
    42   46   21 1    
    43   23   22 1    
    44   47   22 1    
    45   48   22 1    
    46   24   23 1    
    47   49   23 1    
    48   50   23 1    
    49   25   24 ar   
    50   29   24 ar   
    51   26   25 ar   
    52   51   25 1    
    53   27   26 ar   
    54   52   26 1    
    55   28   27 ar   
    56   53   27 1    
    57   29   28 ar   
    58   54   28 1    
    59   55   29 1    
@<TRIPOS>SUBSTRUCTURE
     1 LPR1615     1 GROUP   
@<TRIPOS>SET

