#    Name: 3r9g_7MC_2_INTS_M
#    Modification time : Tue Mar 25 11:17:47 2014

@<TRIPOS>MOLECULE
3r9g_7MC_2_INTS_M
   62     0     9     0     0
SMALL
NO_CHARGES


@<TRIPOS>ATOM
      1 O          32.9855   16.6915  -12.2205 O.2       1 ALC1        0.0000 
      2 O          33.1400   16.6990  -13.6400 O.2       7 ALL1        0.0000 
      3 O          32.8310   16.6840  -10.8010 O.2       4 ALP1        0.0000 
      4 N          32.8380   19.2155  -16.3515 N.am      2 SEC2        0.0000 
      5 N          32.4360   17.8500  -16.1250 N.am      8 SEL2        0.0000 
      6 N          33.2400   20.5810  -16.5780 N.am      5 SEP2        0.0000 
      7 CA         33.9345   14.7815  -28.2640 C.3       3 GLC5        0.0000 
      8 CA         32.9260   14.9120  -26.3640 C.3       9 GLL5        0.0000 
      9 CA         34.9430   14.6510  -30.1640 C.3       6 GLP5        0.0000 
     10 CA         32.6005   13.2385  -27.3590 C.3       3 GLC5        0.0000 
     11 CA         32.2750   11.5650  -28.3540 C.3       6 GLP5        0.0000 
     12 CA         34.9765   14.9790  -25.8710 C.3       3 GLC5        0.0000 
     13 CA         37.0270   15.0460  -25.3780 C.3       6 GLP5        0.0000 
     14 N          33.9575   14.2430  -24.3545 N.am      2 SEC2        0.0000 
     15 N          33.1950   15.3360  -25.1130 N.am      8 SEL2        0.0000 
     16 N          34.7200   13.1500  -23.5960 N.am      5 SEP2        0.0000 
     17 CA         30.7485   17.0310  -28.0545 C.3       3 GLC5        0.0000 
     18 CA         30.7420   15.7920  -26.2820 C.3       9 GLL5        0.0000 
     19 CA         30.7550   18.2700  -29.8270 C.3       6 GLP5        0.0000 
     20 O          30.2870   15.1075  -15.8000 O.2       1 ALC1        0.0000 
     21 O          30.9320   16.1810  -16.3920 O.2       7 ALL1        0.0000 
     22 O          29.6420   14.0340  -15.2080 O.2       4 ALP1        0.0000 
     23 CA         32.3625   14.7825  -22.5780 C.3       3 GLC5        0.0000 
     24 CA         33.3590   16.5170  -22.2440 C.3       9 GLL5        0.0000 
     25 CA         31.3660   13.0480  -22.9120 C.3       6 GLP5        0.0000 
     26 CA         34.0745   14.7795  -22.2330 C.3       3 GLC5        0.0000 
     27 CA         34.7900   13.0420  -22.2220 C.3       6 GLP5        0.0000 
     28 N          29.8550   14.7805  -19.9940 N.am      2 SEC2        0.0000 
     29 N          29.8380   15.1970  -18.6060 N.am      8 SEL2        0.0000 
     30 N          29.8720   14.3640  -21.3820 N.am      5 SEP2        0.0000 
     31 CA         35.6485   19.0190  -20.4840 C.3       3 GLC5        0.0000 
     32 CA         34.3580   17.3350  -20.2790 C.3       9 GLL5        0.0000 
     33 CA         36.9390   20.7030  -20.6890 C.3       6 GLP5        0.0000 
     34 O          35.9845   18.6365  -20.1230 O.2       1 ALC1        0.0000 
     35 O          35.7780   17.3180  -20.5050 O.2       7 ALL1        0.0000 
     36 O          36.1910   19.9550  -19.7410 O.2       4 ALP1        0.0000 
     37 CA         31.3630   21.4850  -17.9820 C.3       3 GLC5        0.0000 
     38 CA         29.6320   20.2250  -18.3210 C.3       9 GLL5        0.0000 
     39 CA         33.0940   22.7450  -17.6430 C.3       6 GLP5        0.0000 
     40 CA         35.0725   16.8680  -16.0825 C.3       3 GLC5        0.0000 
     41 CA         34.2010   15.5730  -15.3510 C.3       9 GLL5        0.0000 
     42 CA         35.9440   18.1630  -16.8140 C.3       6 GLP5        0.0000 
     43 CA         35.8270   15.2780  -16.8110 C.3       3 GLC5        0.0000 
     44 CA         37.4530   14.9830  -18.2710 C.3       6 GLP5        0.0000 
     45 CA         33.6225   14.0700  -15.0180 C.3       3 GLC5        0.0000 
     46 CA         33.0440   12.5670  -14.6850 C.3       6 GLP5        0.0000 
     47 CA         34.3330   14.4715  -21.1485 C.3       3 GLC5        0.0000 
     48 CA         33.8760   15.9010  -20.0750 C.3       9 GLL5        0.0000 
     49 N          28.9285   18.2125  -11.5955 N.am      2 SEC2        0.0000 
     50 N          29.3230   18.9150  -13.0880 N.am      8 SEL2        0.0000 
     51 N          28.5340   17.5100  -10.1030 N.am      5 SEP2        0.0000 
     52 CA         32.1562   15.0142  -13.4187 C.3       3 GLC5        0.0000 
     53 CA         30.6880   17.0080  -13.3600 C.3       9 GLL5        0.0000 
     54 CA         33.0540   13.2830  -13.0320 C.3       6 GLP5        0.0000 
     55 CA         35.3023   17.0802  -22.8520 C.3       3 GLC5        0.0000 
     56 CA         33.5760   17.8160  -21.4960 C.3       9 GLL5        0.0000 
     57 CA         37.1370   16.9940  -23.8340 C.3       6 GLP5        0.0000 
     58 CA         32.6442   13.9168  -19.3742 C.3       3 GLC5        0.0000 
     59 CA         31.8270   12.0280  -19.3010 C.3       6 GLP5        0.0000 
     60 CA         34.7630   17.1635  -18.1562 C.3       3 GLC5        0.0000 
     61 CA         33.0470   15.7100  -18.8200 C.3       9 GLL5        0.0000 
     62 CA         35.5175   15.5735  -18.8848 C.3       3 GLC5        0.0000 
@<TRIPOS>BOND
@<TRIPOS>SUBSTRUCTURE
     1 ALC1        1 GROUP        1 X    ALC  0     ROOT ALC X 1
     2 SEC2        4 GROUP        1 X    SEC  0     **** SEC X 2
     3 GLC5        7 GROUP        1 X    GLC  0     **** GLC X 6
     4 ALP1        3 GROUP        1 Y    ALP  0     ROOT ALP Y 8
     5 SEP2        6 GROUP        1 Y    SEP  0     **** SEP Y 9
     6 GLP5        9 GROUP        1 Y    GLP  0     **** GLP Y 13
     7 ALL1        2 GROUP        1 Z    ALL  0     ROOT ALL Z 15
     8 SEL2        5 GROUP        1 Z    SEL  0     **** SEL Z 16
     9 GLL5        8 GROUP        1 Z    GLL  0     **** GLL Z 20
@<TRIPOS>SET

