#    Name: 3r9g_7MC_2_ligand
#    Modification time : Tue Mar 25 11:17:47 2014

@<TRIPOS>MOLECULE
3r9g_7MC_2_ligand
   67    69     1     0     0
SMALL
NO_CHARGES


@<TRIPOS>ATOM
      1 C          31.7550   16.9340  -15.6810 C.2       1 7MC500      0.0000 
      2 N          33.1400   16.6990  -13.6400 N.am      1 7MC500      0.0000 
      3 O          32.4360   17.8500  -16.1250 O.2       1 7MC500      0.0000 
      4 P          30.6450   16.4260  -18.0770 P.3       1 7MC500      0.0000 
      5 N1         31.7250   15.1330  -26.9320 N.ar      1 7MC500      0.0000 
      6 C2         32.9260   14.9120  -26.3640 C.ar      1 7MC500      0.0000 
      7 N3         33.1950   15.3360  -25.1130 N.ar      1 7MC500      0.0000 
      8 C4         32.2350   16.0130  -24.4240 C.ar      1 7MC500      0.0000 
      9 C5         30.9880   16.2490  -24.9900 C.ar      1 7MC500      0.0000 
     10 C6         30.7420   15.7920  -26.2820 C.ar      1 7MC500      0.0000 
     11 N6         29.5430   15.9950  -26.8850 N.pl3     1 7MC500      0.0000 
     12 N7         30.2510   16.9200  -24.0760 N.2       1 7MC500      0.0000 
     13 C8         31.0180   17.1040  -22.9820 C.2       1 7MC500      0.0000 
     14 N8         30.9320   16.1810  -16.3920 N.am      1 7MC500      0.0000 
     15 N9         32.2250   16.5540  -23.1980 N.pl3     1 7MC500      0.0000 
     16 CA         31.8290   16.4830  -14.2510 C.3       1 7MC500      0.0000 
     17 CB         30.6880   17.0080  -13.3600 C.3       1 7MC500      0.0000 
     18 CG         30.4810   18.5020  -13.3150 C.2       1 7MC500      0.0000 
     19 C1'        33.3590   16.5170  -22.2440 C.3       1 7MC500      0.0000 
     20 O1P        29.8380   15.1970  -18.6060 O.2       1 7MC500      0.0000 
     21 C2'        33.5760   17.8160  -21.4960 C.3       1 7MC500      0.0000 
     22 O2'        34.2820   18.7650  -22.2920 O.3       1 7MC500      0.0000 
     23 C3'        34.3580   17.3350  -20.2790 C.3       1 7MC500      0.0000 
     24 O3'        35.7780   17.3180  -20.5050 O.3       1 7MC500      0.0000 
     25 O31        29.8550   17.7920  -18.3330 O.3       1 7MC500      0.0000 
     26 C32        30.5370   19.0240  -18.5740 C.3       1 7MC500      0.0000 
     27 C33        29.6320   20.2250  -18.3210 C.3       1 7MC500      0.0000 
     28 C34        28.9630   20.1290  -16.9580 C.3       1 7MC500      0.0000 
     29 N35        27.7440   19.3560  -17.0890 N.4       1 7MC500      0.0000 
     30 C36        34.2730   16.2220  -14.1930 C.2       1 7MC500      0.0000 
     31 C37        34.2010   15.5730  -15.3510 C.3       1 7MC500      0.0000 
     32 O38        35.3830   16.3650  -13.6760 O.2       1 7MC500      0.0000 
     33 C4'        33.8760   15.9010  -20.0750 C.3       1 7MC500      0.0000 
     34 O4'        33.0690   15.5770  -21.2150 O.3       1 7MC500      0.0000 
     35 C5'        33.0470   15.7100  -18.8200 C.3       1 7MC500      0.0000 
     36 O5'        32.0010   16.6770  -18.8530 O.3       1 7MC500      0.0000 
     37 OD1        29.3230   18.9150  -13.0880 O.co2     1 7MC500      0.0000 
     38 OD2        31.4440   19.2740  -13.4670 O.co2     1 7MC500      0.0000 
     39 H          33.1470   17.2419  -12.7543 H         1 7MC500      0.0000 
     40 H          33.6669   14.4000  -26.9052 H         1 7MC500      0.0000 
     41 H          28.8573   16.4854  -26.3470 H         1 7MC500      0.0000 
     42 H          29.4513   15.6362  -27.8139 H         1 7MC500      0.0000 
     43 H          30.7407   17.5599  -22.1717 H         1 7MC500      0.0000 
     44 H          30.3686   15.3848  -16.0838 H         1 7MC500      0.0000 
     45 H          31.6707   15.3467  -14.2744 H         1 7MC500      0.0000 
     46 H          30.8606   16.6308  -12.3222 H         1 7MC500      0.0000 
     47 H          29.7400   16.5167  -13.6901 H         1 7MC500      0.0000 
     48 H          34.2693   16.2528  -22.7389 H         1 7MC500      0.0000 
     49 H          32.6223   18.1546  -21.1572 H         1 7MC500      0.0000 
     50 H          34.0700   17.9014  -19.4351 H         1 7MC500      0.0000 
     51 H          30.8971   19.0900  -19.6155 H         1 7MC500      0.0000 
     52 H          31.4230   19.1298  -17.9238 H         1 7MC500      0.0000 
     53 H          28.8665   20.2672  -19.0971 H         1 7MC500      0.0000 
     54 H          30.2265   21.1385  -18.3682 H         1 7MC500      0.0000 
     55 H          28.7544   21.1396  -16.6061 H         1 7MC500      0.0000 
     56 H          29.6596   19.6546  -16.2664 H         1 7MC500      0.0000 
     57 H          34.7368   15.2546  -20.0367 H         1 7MC500      0.0000 
     58 H          33.6976   15.8443  -17.9589 H         1 7MC500      0.0000 
     59 H          32.6607   14.6933  -18.8190 H         1 7MC500      0.0000 
     60 H          27.2676   19.2628  -16.2147 H         1 7MC500      0.0000 
     61 H          27.1026   19.7796  -17.7287 H         1 7MC500      0.0000 
     62 H          27.9248   18.4314  -17.4243 H         1 7MC500      0.0000 
     63 H          35.1014   15.2710  -15.6641 H         1 7MC500      0.0000 
     64 H          33.6251   14.7581  -15.2849 H         1 7MC500      0.0000 
     65 H          33.8161   16.1460  -16.0746 H         1 7MC500      0.0000 
     66 H          35.2469   18.5244  -22.1864 H         1 7MC500      0.0000 
     67 H          36.1000   18.2124  -20.1947 H         1 7MC500      0.0000 
@<TRIPOS>BOND
     1    3    1 2    
     2   14    1 am   
     3   16    1 1    
     4   16    2 1    
     5   30    2 am   
     6   39    2 1    
     7   14    4 1    
     8   20    4 2    
     9   25    4 1    
    10   36    4 1    
    11    6    5 ar   
    12   10    5 ar   
    13    7    6 ar   
    14   40    6 1    
    15    8    7 ar   
    16    9    8 ar   
    17   15    8 1    
    18   10    9 ar   
    19   12    9 1    
    20   11   10 1    
    21   41   11 1    
    22   42   11 1    
    23   13   12 2    
    24   15   13 1    
    25   43   13 1    
    26   44   14 1    
    27   19   15 1    
    28   17   16 1    
    29   45   16 1    
    30   18   17 1    
    31   46   17 1    
    32   47   17 1    
    33   37   18 ar   
    34   38   18 ar   
    35   21   19 1    
    36   34   19 1    
    37   48   19 1    
    38   22   21 1    
    39   23   21 1    
    40   49   21 1    
    41   66   22 1    
    42   24   23 1    
    43   33   23 1    
    44   50   23 1    
    45   67   24 1    
    46   26   25 1    
    47   27   26 1    
    48   51   26 1    
    49   52   26 1    
    50   28   27 1    
    51   53   27 1    
    52   54   27 1    
    53   29   28 1    
    54   55   28 1    
    55   56   28 1    
    56   60   29 1    
    57   61   29 1    
    58   62   29 1    
    59   31   30 1    
    60   32   30 2    
    61   63   31 1    
    62   64   31 1    
    63   65   31 1    
    64   34   33 1    
    65   35   33 1    
    66   57   33 1    
    67   36   35 1    
    68   58   35 1    
    69   59   35 1    
@<TRIPOS>SUBSTRUCTURE
     1 7MC500      1 GROUP   
@<TRIPOS>SET

