#    Name: 4jnk_ZHK_1_INTS_M
#    Modification time : Tue Mar 25 06:08:05 2014

@<TRIPOS>MOLECULE
4jnk_ZHK_1_INTS_M
   56     0     9     0     0
SMALL
NO_CHARGES


@<TRIPOS>ATOM
      1 CA         38.0250   20.0040   49.4630 C.3       3 GLC5        0.0000 
      2 CA         39.3040   18.7170   50.3880 C.3       9 GLL5        0.0000 
      3 CA         36.7460   21.2910   48.5380 C.3       6 GLP5        0.0000 
      4 CA         38.3430   17.0280   50.4220 C.3       3 GLC5        0.0000 
      5 CA         37.3820   15.3390   50.4560 C.3       6 GLP5        0.0000 
      6 O          40.2780   22.1560   50.5265 O.2       1 ALC1        0.0000 
      7 O          40.8310   21.3290   49.1790 O.2       7 ALL1        0.0000 
      8 O          39.7250   22.9830   51.8740 O.2       4 ALP1        0.0000 
      9 CA         38.8285   21.8330   48.3880 C.3       3 GLC5        0.0000 
     10 CA         40.9110   22.3750   48.2380 C.3       9 GLL5        0.0000 
     11 N          41.2485   25.1000   42.5620 N.am      2 SEC2        0.0000 
     12 N          41.4400   25.3860   44.0320 N.am      8 SEL2        0.0000 
     13 N          41.0570   24.8140   41.0920 N.am      5 SEP2        0.0000 
     14 O          38.8375   26.0770   44.1230 O.2       1 ALC1        0.0000 
     15 O          39.6140   26.5140   45.2430 O.2       7 ALL1        0.0000 
     16 O          38.0610   25.6400   43.0030 O.2       4 ALP1        0.0000 
     17 CA         41.5440   17.9000   51.8975 C.3       3 GLC5        0.0000 
     18 CA         41.6200   17.4540   49.8230 C.3       9 GLL5        0.0000 
     19 CA         41.4680   18.3460   53.9720 C.3       6 GLP5        0.0000 
     20 CA         42.2020   15.7050   50.2850 C.3       3 GLC5        0.0000 
     21 CA         42.7840   13.9560   50.7470 C.3       6 GLP5        0.0000 
     22 N          45.7620   16.4535   46.2700 N.am      2 SEC2        0.0000 
     23 N          45.8330   16.2230   47.6470 N.am      8 SEL2        0.0000 
     24 N          45.6910   16.6840   44.8930 N.am      5 SEP2        0.0000 
     25 CA         48.7400   22.7265   48.6260 C.3       3 GLC5        0.0000 
     26 CA         48.0480   23.4120   49.7850 C.3       9 GLL5        0.0000 
     27 CA         49.4320   22.0410   47.4670 C.3       6 GLP5        0.0000 
     28 CA         47.1045   25.6830   50.0610 C.3       3 GLC5        0.0000 
     29 CA         45.9540   25.3540   48.6010 C.3       9 GLL5        0.0000 
     30 CA         48.2550   26.0120   51.5210 C.3       6 GLP5        0.0000 
     31 CA         47.3210   26.0820   47.4665 C.3       3 GLC5        0.0000 
     32 CA         48.6880   26.8100   46.3320 C.3       6 GLP5        0.0000 
     33 CA         48.1520   20.4205   47.4790 C.3       3 GLC5        0.0000 
     34 CA         46.8720   18.8000   47.4910 C.3       9 GLL5        0.0000 
     35 CA         40.2430   19.0757   52.0658 C.3       3 GLC5        0.0000 
     36 CA         40.7720   19.0380   50.0970 C.3       9 GLL5        0.0000 
     37 CA         40.4480   19.2740   53.8890 C.3       6 GLP5        0.0000 
     38 CA         42.8173   24.1905   45.5603 C.3       3 GLC5        0.0000 
     39 CA         41.1420   23.2190   45.9860 C.3       9 GLL5        0.0000 
     40 CA         44.5360   24.5100   44.9010 C.3       6 GLP5        0.0000 
     41 CA         40.0260   21.3407   45.6285 C.3       3 GLC5        0.0000 
     42 CA         38.9460   19.9980   44.8290 C.3       6 GLP5        0.0000 
     43 CA         47.6172   17.3520   47.2522 C.3       3 GLC5        0.0000 
     44 CA         45.6050   18.4880   48.0760 C.3       9 GLL5        0.0000 
     45 CA         48.9960   16.0600   46.7210 C.3       6 GLP5        0.0000 
     46 CA         44.7318   20.6505   46.4342 C.3       3 GLC5        0.0000 
     47 CA         45.1110   20.9250   48.6480 C.3       9 GLL5        0.0000 
     48 CA         44.8200   19.9280   44.4830 C.3       6 GLP5        0.0000 
     49 CA         44.4207   23.5033   46.5090 C.3       3 GLC5        0.0000 
     50 CA         44.1760   21.8210   48.1230 C.3       9 GLL5        0.0000 
     51 CA         45.1635   24.5055   46.7563 C.3       3 GLC5        0.0000 
     52 CA         45.6280   23.6480   48.6220 C.3       9 GLL5        0.0000 
     53 CA         47.7803   24.5520   50.4942 C.3       3 GLC5        0.0000 
     54 CA         46.5630   22.7720   49.1500 C.3       9 GLL5        0.0000 
     55 CA         47.8181   22.1750   48.2480 C.3       3 GLC5        0.0000 
     56 CA         45.4244   19.4105   46.2030 C.3       3 GLC5        0.0000 
@<TRIPOS>BOND
@<TRIPOS>SUBSTRUCTURE
     1 ALC1        6 GROUP        1 X    ALC  0     ROOT ALC X 1
     2 SEC2       11 GROUP        1 X    SEC  0     **** SEC X 2
     3 GLC5        1 GROUP        1 X    GLC  0     **** GLC X 6
     4 ALP1        8 GROUP        1 Y    ALP  0     ROOT ALP Y 8
     5 SEP2       13 GROUP        1 Y    SEP  0     **** SEP Y 9
     6 GLP5        3 GROUP        1 Y    GLP  0     **** GLP Y 13
     7 ALL1        7 GROUP        1 Z    ALL  0     ROOT ALL Z 15
     8 SEL2       12 GROUP        1 Z    SEL  0     **** SEL Z 16
     9 GLL5        2 GROUP        1 Z    GLL  0     **** GLL Z 20
@<TRIPOS>SET

