#    Name: 4jnk_ZHK_1_ligand
#    Modification time : Tue Mar 25 06:08:05 2014

@<TRIPOS>MOLECULE
4jnk_ZHK_1_ligand
   47    49     1     0     0
SMALL
NO_CHARGES


@<TRIPOS>ATOM
      1 C1         39.3040   18.7170   50.3880 C.3       1 ZHK803      0.0000 
      2 C2         40.7720   19.0380   50.0970 C.3       1 ZHK803      0.0000 
      3 C3         40.8580   19.9940   48.9180 C.2       1 ZHK803      0.0000 
      4 O4         40.9380   19.5640   47.7820 O.2       1 ZHK803      0.0000 
      5 N5         40.8310   21.3290   49.1790 N.am      1 ZHK803      0.0000 
      6 C6         40.9110   22.3750   48.2380 C.ar      1 ZHK803      0.0000 
      7 C7         40.8270   23.6880   48.7020 C.ar      1 ZHK803      0.0000 
      8 C8         40.9000   24.7490   47.8140 C.ar      1 ZHK803      0.0000 
      9 C9         41.0550   24.5230   46.4530 C.ar      1 ZHK803      0.0000 
     10 C10        41.1420   23.2190   45.9860 C.ar      1 ZHK803      0.0000 
     11 C11        41.0700   22.1480   46.8700 C.ar      1 ZHK803      0.0000 
     12 S12        41.1450   25.9040   45.3380 S.o2      1 ZHK803      0.0000 
     13 O13        41.9480   26.8820   45.9800 O.2       1 ZHK803      0.0000 
     14 O14        41.4400   25.3860   44.0320 O.2       1 ZHK803      0.0000 
     15 N15        39.6140   26.5140   45.2430 N.pl3     1 ZHK803      0.0000 
     16 S16        41.6200   17.4540   49.8230 S.3       1 ZHK803      0.0000 
     17 C17        43.1950   17.8760   49.1660 C.2       1 ZHK803      0.0000 
     18 N18        43.9620   16.8740   48.6620 N.am      1 ZHK803      0.0000 
     19 C20        45.1590   17.1370   48.1090 C.2       1 ZHK803      0.0000 
     20 O21        45.8330   16.2230   47.6470 O.2       1 ZHK803      0.0000 
     21 C22        45.6050   18.4880   48.0760 C.2       1 ZHK803      0.0000 
     22 C23        44.7660   19.4840   48.6340 C.2       1 ZHK803      0.0000 
     23 N24        43.5900   19.1320   49.1500 N.2       1 ZHK803      0.0000 
     24 C25        45.1110   20.9250   48.6480 C.ar      1 ZHK803      0.0000 
     25 C26        44.1760   21.8210   48.1230 C.ar      1 ZHK803      0.0000 
     26 C27        44.4350   23.1720   48.1110 C.ar      1 ZHK803      0.0000 
     27 C28        45.6280   23.6480   48.6220 C.ar      1 ZHK803      0.0000 
     28 C29        46.5630   22.7720   49.1500 C.ar      1 ZHK803      0.0000 
     29 C30        46.3130   21.4080   49.1720 C.ar      1 ZHK803      0.0000 
     30 CL1        48.0480   23.4120   49.7850 Cl        1 ZHK803      0.0000 
     31 CL2        45.9540   25.3540   48.6010 Cl        1 ZHK803      0.0000 
     32 C33        46.8720   18.8000   47.4910 C.1       1 ZHK803      0.0000 
     33 N34        47.8810   19.0410   47.0240 N.1       1 ZHK803      0.0000 
     34 H          41.2444   19.4132   50.9683 H         1 ZHK803      0.0000 
     35 H          40.7392   21.6379   50.2084 H         1 ZHK803      0.0000 
     36 H          40.7102   23.8650   49.7103 H         1 ZHK803      0.0000 
     37 H          40.8386   25.7188   48.1670 H         1 ZHK803      0.0000 
     38 H          41.2609   23.0418   44.9766 H         1 ZHK803      0.0000 
     39 H          41.1339   21.1836   46.5166 H         1 ZHK803      0.0000 
     40 H          43.6117   15.8893   48.7078 H         1 ZHK803      0.0000 
     41 H          43.2870   21.4568   47.7435 H         1 ZHK803      0.0000 
     42 H          43.7431   23.8303   47.7226 H         1 ZHK803      0.0000 
     43 H          46.9979   20.7589   49.5664 H         1 ZHK803      0.0000 
     44 H          39.2073   18.0866   51.1582 H         1 ZHK803      0.0000 
     45 H          38.7820   19.5392   50.6149 H         1 ZHK803      0.0000 
     46 H          38.8541   18.2916   49.6027 H         1 ZHK803      0.0000 
     47 H          39.2673   26.2060   44.3570 H         1 ZHK803      0.0000 
@<TRIPOS>BOND
     1    2    1 1    
     2   44    1 1    
     3   45    1 1    
     4   46    1 1    
     5    3    2 1    
     6   16    2 1    
     7   34    2 1    
     8    4    3 2    
     9    5    3 am   
    10    6    5 1    
    11   35    5 1    
    12    7    6 ar   
    13   11    6 ar   
    14    8    7 ar   
    15   36    7 1    
    16    9    8 ar   
    17   37    8 1    
    18   10    9 ar   
    19   12    9 1    
    20   11   10 ar   
    21   38   10 1    
    22   39   11 1    
    23   13   12 2    
    24   14   12 2    
    25   15   12 1    
    26   47   15 1    
    27   17   16 1    
    28   18   17 1    
    29   23   17 2    
    30   19   18 am   
    31   40   18 1    
    32   20   19 2    
    33   21   19 1    
    34   22   21 2    
    35   32   21 1    
    36   23   22 1    
    37   24   22 1    
    38   25   24 ar   
    39   29   24 ar   
    40   26   25 ar   
    41   41   25 1    
    42   27   26 ar   
    43   42   26 1    
    44   28   27 ar   
    45   31   27 1    
    46   29   28 ar   
    47   30   28 1    
    48   43   29 1    
    49   33   32 3    
@<TRIPOS>SUBSTRUCTURE
     1 ZHK803      1 GROUP   
@<TRIPOS>SET

