#    Name: 2eu2_5DS_1_INTS_M
#    Modification time : Tue Mar 25 11:31:09 2014

@<TRIPOS>MOLECULE
2eu2_5DS_1_INTS_M
   28     0    12     0     0
SMALL
NO_CHARGES


@<TRIPOS>ATOM
      1 CA         -4.3860    8.2450   13.2730 C.3       4 GLC5        0.0000 
      2 CA         -3.6030    6.7600   12.1920 C.3      12 GLL5        0.0000 
      3 CA         -5.1690    9.7300   14.3540 C.3       8 GLP5        0.0000 
      4 CA         -4.1735    7.6345   14.6710 C.3       4 GLC5        0.0000 
      5 CA         -2.3970    6.5300   14.4110 C.3      12 GLL5        0.0000 
      6 CA         -5.9500    8.7390   14.9310 C.3       8 GLP5        0.0000 
      7 CA         -2.0570    6.0450   16.2225 C.3       4 GLC5        0.0000 
      8 CA         -1.7170    5.5600   18.0340 C.3       8 GLP5        0.0000 
      9 CA         -0.3880    6.1770   15.1120 C.3       4 GLC5        0.0000 
     10 CA          1.6210    5.8240   15.8130 C.3       8 GLP5        0.0000 
     11 CA         -3.6810    4.1955   16.6780 C.3       4 GLC5        0.0000 
     12 CA         -3.3440    3.6510   14.8140 C.3      12 GLL5        0.0000 
     13 CA         -4.0180    4.7400   18.5420 C.3       8 GLP5        0.0000 
     14 N          -6.2985    3.3290   12.2590 N.am      2 SEC2        0.0000 
     15 N          -4.8240    2.7200   12.9130 N.am     10 SEL2        0.0000 
     16 N          -7.7730    3.9380   11.6050 N.am      6 SEP2        0.0000 
     17 CA         -2.6730   -0.0520   14.5530 C.3       4 GLC5        0.0000 
     18 CA         -4.3730    1.0570   14.7780 C.3      12 GLL5        0.0000 
     19 CA         -0.9730   -1.1610   14.3280 C.3       8 GLP5        0.0000 
     20 N          -3.4280    0.6235   18.2535 N.am      2 SEC2        0.0000 
     21 N          -4.4150    1.2290   17.3360 N.am     10 SEL2        0.0000 
     22 N          -2.4410    0.0180   19.1710 N.am      6 SEP2        0.0000 
     23 O          -4.3345   -1.6050   17.0535 O.2       1 ALC1        0.0000 
     24 O          -5.2830   -0.7650   16.3560 O.2       9 ALL1        0.0000 
     25 O          -3.3860   -2.4450   17.7510 O.2       5 ALP1        0.0000 
     26 Zn         -5.9625   -1.3415   15.8960 Zn        3 ZIC7        0.0000 
     27 Zn         -5.2830   -0.7650   16.3560 Zn       11 ZIL7        0.0000 
     28 Zn         -6.6420   -1.9180   15.4360 Zn        7 ZIP7        0.0000 
@<TRIPOS>BOND
@<TRIPOS>SUBSTRUCTURE
     1 ALC1       23 GROUP        1 X    ALC  0     ROOT ALC X 1
     2 SEC2       14 GROUP        1 X    SEC  0     **** SEC X 2
     3 ZIC7       26 GROUP        1 X    ZIC  0     **** ZIC X 5
     4 GLC5        1 GROUP        1 X    GLC  0     **** GLC X 6
     5 ALP1       25 GROUP        1 Y    ALP  0     ROOT ALP Y 8
     6 SEP2       16 GROUP        1 Y    SEP  0     **** SEP Y 9
     7 ZIP7       28 GROUP        1 Y    ZIP  0     **** ZIP Y 12
     8 GLP5        3 GROUP        1 Y    GLP  0     **** GLP Y 13
     9 ALL1       24 GROUP        1 Z    ALL  0     ROOT ALL Z 15
    10 SEL2       15 GROUP        1 Z    SEL  0     **** SEL Z 16
    11 ZIL7       27 GROUP        1 Z    ZIL  0     **** ZIL Z 19
    12 GLL5        2 GROUP        1 Z    GLL  0     **** GLL Z 20
@<TRIPOS>SET

