#    Name: 2eu2_5DS_1_ligand
#    Modification time : Tue Mar 25 11:31:09 2014

@<TRIPOS>MOLECULE
2eu2_5DS_1_ligand
   22    22     1     0     0
SMALL
NO_CHARGES


@<TRIPOS>ATOM
      1 C1         -3.6030    6.7600   12.1920 C.3       1 5DS263      0.0000 
      2 N1         -3.4050    6.0830   13.4840 N.pl3     1 5DS263      0.0000 
      3 C2         -2.3970    6.5300   14.4110 C.3       1 5DS263      0.0000 
      4 C3         -3.8270    4.7820   13.6210 C.2       1 5DS263      0.0000 
      5 S1         -3.3440    3.6510   14.8140 S.3       1 5DS263      0.0000 
      6 N2         -4.5340    4.0820   12.6110 N.2       1 5DS263      0.0000 
      7 N3         -4.8240    2.7200   12.9130 N.2       1 5DS263      0.0000 
      8 C4         -4.2720    2.3400   14.1400 C.2       1 5DS263      0.0000 
      9 C5         -4.3730    1.0570   14.7780 C.3       1 5DS263      0.0000 
     10 N4         -4.1580    0.0800   13.7190 N.3       1 5DS263      0.0000 
     11 S2         -5.2560    0.7270   16.3250 S.o2      1 5DS263      0.0000 
     12 O2         -6.5820    1.3010   16.1720 O.2       1 5DS263      0.0000 
     13 O3         -4.4150    1.2290   17.3360 O.2       1 5DS263      0.0000 
     14 N5         -5.2830   -0.7650   16.3560 N.pl3     1 5DS263      0.0000 
     15 H          -3.1844    1.0139   15.3069 H         1 5DS263      0.0000 
     16 H          -2.7765    6.7358   11.6295 H         1 5DS263      0.0000 
     17 H          -4.3336    6.3346   11.6579 H         1 5DS263      0.0000 
     18 H          -3.8487    7.7221   12.3106 H         1 5DS263      0.0000 
     19 H          -1.4802    6.4818   14.0145 H         1 5DS263      0.0000 
     20 H          -2.5453    7.4781   14.6922 H         1 5DS263      0.0000 
     21 H          -2.3859    5.9758   15.2433 H         1 5DS263      0.0000 
     22 H          -4.5068   -1.0259   16.9300 H         1 5DS263      0.0000 
@<TRIPOS>BOND
     1    2    1 1    
     2   16    1 1    
     3   17    1 1    
     4   18    1 1    
     5    3    2 1    
     6    4    2 1    
     7   19    3 1    
     8   20    3 1    
     9   21    3 1    
    10    5    4 1    
    11    6    4 2    
    12    8    5 1    
    13    7    6 1    
    14    8    7 2    
    15    9    8 1    
    16   10    9 1    
    17   11    9 1    
    18   15    9 1    
    19   12   11 2    
    20   13   11 2    
    21   14   11 1    
    22   22   14 1    
@<TRIPOS>SUBSTRUCTURE
     1 5DS263      1 GROUP   
@<TRIPOS>SET

