#    Name: 1kev_NDP_2_INTS_M
#    Modification time : Tue Mar 25 09:56:51 2014

@<TRIPOS>MOLECULE
1kev_NDP_2_INTS_M
   69     0     6     0     0
SMALL
NO_CHARGES


@<TRIPOS>ATOM
      1 CA         60.2460   52.1495   36.9605 C.3       2 GLC5        0.0000 
      2 CA         60.4070   51.5110   38.6920 C.3       6 GLL5        0.0000 
      3 CA         60.0850   52.7880   35.2290 C.3       4 GLP5        0.0000 
      4 N          57.7900   53.8095   38.5205 N.am      1 SEC2        0.0000 
      5 N          58.9070   54.4630   39.1570 N.am      5 SEL2        0.0000 
      6 N          56.6730   53.1560   37.8840 N.am      3 SEP2        0.0000 
      7 CA         58.7945   55.0660   43.0170 C.3       2 GLC5        0.0000 
      8 CA         59.6910   53.9980   41.3520 C.3       6 GLL5        0.0000 
      9 CA         57.8980   56.1340   44.6820 C.3       4 GLP5        0.0000 
     10 N          60.0775   55.6425   43.5585 N.am      1 SEC2        0.0000 
     11 N          59.9150   55.2730   41.9880 N.am      5 SEL2        0.0000 
     12 N          60.2400   56.0120   45.1290 N.am      3 SEP2        0.0000 
     13 CA         57.9230   52.0845   40.8205 C.3       2 GLC5        0.0000 
     14 CA         59.7100   52.6610   42.0540 C.3       6 GLL5        0.0000 
     15 CA         56.1360   51.5080   39.5870 C.3       4 GLP5        0.0000 
     16 CA         56.0860   53.8515   46.5970 C.3       2 GLC5        0.0000 
     17 CA         57.3050   52.0690   46.2470 C.3       6 GLL5        0.0000 
     18 CA         54.8670   55.6340   46.9470 C.3       4 GLP5        0.0000 
     19 CA         54.7715   51.0505   43.7835 C.3       2 GLC5        0.0000 
     20 CA         55.8440   52.3030   44.4310 C.3       6 GLL5        0.0000 
     21 CA         53.6990   49.7980   43.1360 C.3       4 GLP5        0.0000 
     22 CA         54.3950   53.4675   43.9540 C.3       2 GLC5        0.0000 
     23 CA         52.9460   54.6320   43.4770 C.3       4 GLP5        0.0000 
     24 CA         55.3555   53.9685   45.6890 C.3       2 GLC5        0.0000 
     25 N          64.9810   48.5860   35.1540 N.am      1 SEC2        0.0000 
     26 N          63.5410   48.9500   34.9720 N.am      5 SEL2        0.0000 
     27 N          66.4210   48.2220   35.3360 N.am      3 SEP2        0.0000 
     28 N          60.2830   49.2760   33.6085 N.am      1 SEC2        0.0000 
     29 N          61.0290   49.2020   34.8400 N.am      5 SEL2        0.0000 
     30 N          59.5370   49.3500   32.3770 N.am      3 SEP2        0.0000 
     31 CA         59.9905   46.8865   35.0675 C.3       2 GLC5        0.0000 
     32 CA         60.9170   46.6790   36.8260 C.3       6 GLL5        0.0000 
     33 CA         59.0640   47.0940   33.3090 C.3       4 GLP5        0.0000 
     34 CA         59.8525   43.8940   38.1175 C.3       2 GLC5        0.0000 
     35 CA         61.0530   45.1610   37.3110 C.3       6 GLL5        0.0000 
     36 CA         58.6520   42.6270   38.9240 C.3       4 GLP5        0.0000 
     37 N          61.7305   42.7400   39.0680 N.am      1 SEC2        0.0000 
     38 N          62.6880   44.0190   38.8960 N.am      5 SEL2        0.0000 
     39 N          60.7730   41.4610   39.2400 N.am      3 SEP2        0.0000 
     40 CA         60.2845   42.9955   37.5155 C.3       2 GLC5        0.0000 
     41 CA         61.9170   43.3640   36.1070 C.3       6 GLL5        0.0000 
     42 CA         62.3870   41.8035   37.4440 C.3       2 GLC5        0.0000 
     43 CA         62.8570   40.2430   38.7810 C.3       4 GLP5        0.0000 
     44 CA         61.2545   40.1645   34.8840 C.3       2 GLC5        0.0000 
     45 CA         62.7380   41.5670   34.3070 C.3       6 GLL5        0.0000 
     46 CA         59.7710   38.7620   35.4610 C.3       4 GLP5        0.0000 
     47 CA         63.1875   45.0970   31.2415 C.3       2 GLC5        0.0000 
     48 CA         62.7840   43.7670   32.5330 C.3       6 GLL5        0.0000 
     49 CA         63.5910   46.4270   29.9500 C.3       4 GLP5        0.0000 
     50 N          60.6695   58.2060   42.9630 N.am      1 SEC2        0.0000 
     51 N          61.3360   57.0780   42.7500 N.am      5 SEL2        0.0000 
     52 N          60.0030   59.3340   43.1760 N.am      3 SEP2        0.0000 
     53 N          60.7880   56.5450   43.9395 N.am      1 SEC2        0.0000 
     54 N          59.0040   57.8810   40.9330 N.am      1 SEC2        0.0000 
     55 N          60.3080   57.1100   40.4700 N.am      5 SEL2        0.0000 
     56 N          57.7000   58.6520   41.3960 N.am      3 SEP2        0.0000 
     57 N          60.0985   58.6140   40.3075 N.am      1 SEC2        0.0000 
     58 N          59.8890   60.1180   40.1450 N.am      3 SEP2        0.0000 
     59 CA         59.1957   50.0697   40.0415 C.3       2 GLC5        0.0000 
     60 CA         59.6440   52.1820   39.8300 C.3       6 GLL5        0.0000 
     61 CA         58.3660   48.2930   40.8220 C.3       4 GLP5        0.0000 
     62 CA         58.0449   52.1411   39.5782 C.3       2 GLC5        0.0000 
     63 CA         58.5760   50.4853   44.6951 C.3       2 GLC5        0.0000 
     64 CA         58.3410   52.2070   45.3340 C.3       6 GLL5        0.0000 
     65 CA         59.1790   48.7050   44.5020 C.3       4 GLP5        0.0000 
     66 CA         65.0715   43.8672   32.3015 C.3       2 GLC5        0.0000 
     67 CA         67.0930   44.5910   32.2460 C.3       4 GLP5        0.0000 
     68 CA         61.4038   45.1653   32.9297 C.3       2 GLC5        0.0000 
     69 CA         60.3000   46.4590   32.7100 C.3       4 GLP5        0.0000 
@<TRIPOS>BOND
@<TRIPOS>SUBSTRUCTURE
     1 SEC2        4 GROUP        1 X    SEC  0     ROOT SEC X 2
     2 GLC5        1 GROUP        1 X    GLC  0     **** GLC X 6
     3 SEP2        6 GROUP        1 Y    SEP  0     ROOT SEP Y 9
     4 GLP5        3 GROUP        1 Y    GLP  0     **** GLP Y 13
     5 SEL2        5 GROUP        1 Z    SEL  0     ROOT SEL Z 16
     6 GLL5        2 GROUP        1 Z    GLL  0     **** GLL Z 20
@<TRIPOS>SET

