#    Name: 1kev_NDP_2_ligand
#    Modification time : Tue Mar 25 09:56:52 2014

@<TRIPOS>MOLECULE
1kev_NDP_2_ligand
   74    78     1     0     0
SMALL
NO_CHARGES


@<TRIPOS>ATOM
      1 PA         62.9310   50.9470   37.7970 P.3       1 NDP352      0.0000 
      2 O1A        64.1140   50.4230   38.5580 O.co2     1 NDP352      0.0000 
      3 O2A        63.1800   52.1010   36.8710 O.co2     1 NDP352      0.0000 
      4 O5B        61.8410   51.5240   38.9180 O.3       1 NDP352      0.0000 
      5 C5B        60.4070   51.5110   38.6920 C.3       1 NDP352      0.0000 
      6 C4B        59.6440   52.1820   39.8300 C.3       1 NDP352      0.0000 
      7 O4B        60.0040   51.6110   41.1150 O.3       1 NDP352      0.0000 
      8 C3B        59.8820   53.7020   39.8780 C.3       1 NDP352      0.0000 
      9 O3B        58.9070   54.4630   39.1570 O.3       1 NDP352      0.0000 
     10 C2B        59.6910   53.9980   41.3520 C.3       1 NDP352      0.0000 
     11 O2B        59.9150   55.2730   41.9880 O.3       1 NDP352      0.0000 
     12 C1B        59.7100   52.6610   42.0540 C.3       1 NDP352      0.0000 
     13 N9A        59.3590   52.4700   43.4810 N.pl3     1 NDP352      0.0000 
     14 C8A        60.2480   52.3530   44.4860 C.2       1 NDP352      0.0000 
     15 N7A        59.6270   52.1810   45.6620 N.2       1 NDP352      0.0000 
     16 C5A        58.3410   52.2070   45.3340 C.ar      1 NDP352      0.0000 
     17 C6A        57.3050   52.0690   46.2470 C.ar      1 NDP352      0.0000 
     18 N6A        57.5710   51.9030   47.5420 N.pl3     1 NDP352      0.0000 
     19 N1A        56.0540   52.1240   45.7420 N.ar      1 NDP352      0.0000 
     20 C2A        55.8440   52.3030   44.4310 C.ar      1 NDP352      0.0000 
     21 N3A        56.8440   52.4370   43.5550 N.ar      1 NDP352      0.0000 
     22 C4A        58.1230   52.3930   43.9860 C.ar      1 NDP352      0.0000 
     23 O3         62.1700   49.7330   37.0450 O.3       1 NDP352      0.0000 
     24 PN         62.2320   48.8500   35.7000 P.3       1 NDP352      0.0000 
     25 O1N        63.5410   48.9500   34.9720 O.co2     1 NDP352      0.0000 
     26 O2N        61.0290   49.2020   34.8400 O.co2     1 NDP352      0.0000 
     27 O5D        62.1280   47.2850   36.2060 O.3       1 NDP352      0.0000 
     28 C5D        60.9170   46.6790   36.8260 C.3       1 NDP352      0.0000 
     29 C4D        61.0530   45.1610   37.3110 C.3       1 NDP352      0.0000 
     30 O4D        60.7580   44.1110   36.3310 O.3       1 NDP352      0.0000 
     31 C3D        62.5170   44.9680   37.8370 C.3       1 NDP352      0.0000 
     32 O3D        62.6880   44.0190   38.8960 O.3       1 NDP352      0.0000 
     33 C2D        63.1100   44.2060   36.6410 C.3       1 NDP352      0.0000 
     34 O2D        64.2760   43.3130   36.8040 O.3       1 NDP352      0.0000 
     35 C1D        61.9170   43.3640   36.1070 C.3       1 NDP352      0.0000 
     36 N1N        62.2180   42.8900   34.6850 N.pl3     1 NDP352      0.0000 
     37 C2N        62.7380   41.5670   34.3070 C.2       1 NDP352      0.0000 
     38 C3N        63.2810   41.3980   33.0170 C.2       1 NDP352      0.0000 
     39 C7N        63.7700   40.0160   32.5260 C.2       1 NDP352      0.0000 
     40 O7N        63.7520   39.6050   31.3570 O.2       1 NDP352      0.0000 
     41 N7N        64.2990   39.2890   33.5070 N.am      1 NDP352      0.0000 
     42 C4N        63.3160   42.5200   32.1810 C.3       1 NDP352      0.0000 
     43 C5N        62.7840   43.7670   32.5330 C.2       1 NDP352      0.0000 
     44 C6N        62.2310   43.9760   33.7660 C.2       1 NDP352      0.0000 
     45 P2B        61.0410   56.3280   41.5080 P.3       1 NDP352      0.0000 
     46 O1X        61.3360   57.0780   42.7500 O.co2     1 NDP352      0.0000 
     47 O2X        60.3080   57.1100   40.4700 O.co2     1 NDP352      0.0000 
     48 O3X        62.1990   55.5390   41.0230 O.co2     1 NDP352      0.0000 
     49 H          60.0333   50.4782   38.5946 H         1 NDP352      0.0000 
     50 H          60.1514   52.0347   37.7559 H         1 NDP352      0.0000 
     51 H          58.5724   52.0319   39.6541 H         1 NDP352      0.0000 
     52 H          60.8752   53.9051   39.6260 H         1 NDP352      0.0000 
     53 H          58.3597   54.0357   41.2649 H         1 NDP352      0.0000 
     54 H          61.0902   52.8306   42.3366 H         1 NDP352      0.0000 
     55 H          61.2253   52.3894   44.3692 H         1 NDP352      0.0000 
     56 H          56.7796   51.7919   48.1431 H         1 NDP352      0.0000 
     57 H          58.5381   51.9045   47.7963 H         1 NDP352      0.0000 
     58 H          54.8429   52.3396   44.0756 H         1 NDP352      0.0000 
     59 H          60.0603   46.7064   36.1202 H         1 NDP352      0.0000 
     60 H          60.5975   47.2638   37.7141 H         1 NDP352      0.0000 
     61 H          60.4142   45.0613   38.1983 H         1 NDP352      0.0000 
     62 H          62.9977   45.8533   37.9207 H         1 NDP352      0.0000 
     63 H          63.2927   44.9422   35.8379 H         1 NDP352      0.0000 
     64 H          61.9250   42.4547   36.7625 H         1 NDP352      0.0000 
     65 H          62.6945   40.8190   34.9725 H         1 NDP352      0.0000 
     66 H          64.6778   38.4022   33.2424 H         1 NDP352      0.0000 
     67 H          64.2701   39.6951   34.4204 H         1 NDP352      0.0000 
     68 H          62.8657   42.2134   31.1411 H         1 NDP352      0.0000 
     69 H          64.4264   42.6829   31.8366 H         1 NDP352      0.0000 
     70 H          62.8170   44.5359   31.8362 H         1 NDP352      0.0000 
     71 H          61.8359   44.8673   34.0415 H         1 NDP352      0.0000 
     72 H          59.1302   55.4185   39.3500 H         1 NDP352      0.0000 
     73 H          63.2877   43.3140   38.5173 H         1 NDP352      0.0000 
     74 H          65.0519   43.8328   36.4465 H         1 NDP352      0.0000 
@<TRIPOS>BOND
     1    2    1 ar   
     2    3    1 ar   
     3    4    1 1    
     4   23    1 1    
     5    5    4 1    
     6    6    5 1    
     7   49    5 1    
     8   50    5 1    
     9    7    6 1    
    10    8    6 1    
    11   51    6 1    
    12   12    7 1    
    13    9    8 1    
    14   10    8 1    
    15   52    8 1    
    16   72    9 1    
    17   11   10 1    
    18   12   10 1    
    19   53   10 1    
    20   45   11 1    
    21   13   12 1    
    22   54   12 1    
    23   14   13 1    
    24   22   13 1    
    25   15   14 2    
    26   55   14 1    
    27   16   15 1    
    28   17   16 ar   
    29   22   16 ar   
    30   18   17 1    
    31   19   17 ar   
    32   56   18 1    
    33   57   18 1    
    34   20   19 ar   
    35   21   20 ar   
    36   58   20 1    
    37   22   21 ar   
    38   24   23 1    
    39   25   24 ar   
    40   26   24 ar   
    41   27   24 1    
    42   28   27 1    
    43   29   28 1    
    44   59   28 1    
    45   60   28 1    
    46   30   29 1    
    47   31   29 1    
    48   61   29 1    
    49   35   30 1    
    50   32   31 1    
    51   33   31 1    
    52   62   31 1    
    53   73   32 1    
    54   34   33 1    
    55   35   33 1    
    56   63   33 1    
    57   74   34 1    
    58   36   35 1    
    59   64   35 1    
    60   37   36 1    
    61   44   36 1    
    62   38   37 2    
    63   65   37 1    
    64   39   38 1    
    65   42   38 1    
    66   40   39 2    
    67   41   39 am   
    68   66   41 1    
    69   67   41 1    
    70   43   42 1    
    71   68   42 1    
    72   69   42 1    
    73   44   43 2    
    74   70   43 1    
    75   71   44 1    
    76   46   45 ar   
    77   47   45 ar   
    78   48   45 ar   
@<TRIPOS>SUBSTRUCTURE
     1 NDP352      1 GROUP   
@<TRIPOS>SET

