#    Name: 4g31_0WH_1_INTS_M
#    Modification time : Mon Mar 24 21:17:15 2014

@<TRIPOS>MOLECULE
4g31_0WH_1_INTS_M
  100     0     9     0     0
SMALL
NO_CHARGES


@<TRIPOS>ATOM
      1 CA        -49.3450   11.6105   10.7585 C.3       3 GLC5        0.0000 
      2 CA        -47.7950   12.4100    9.3600 C.3       9 GLL5        0.0000 
      3 CA        -50.8950   10.8110   12.1570 C.3       6 GLP5        0.0000 
      4 CA        -49.9580   12.5660    8.8735 C.3       3 GLC5        0.0000 
      5 CA        -52.1210   12.7220    8.3870 C.3       6 GLP5        0.0000 
      6 CA        -51.6465    7.6850   -2.5745 C.3       3 GLC5        0.0000 
      7 CA        -51.5090    9.3760   -2.5890 C.3       9 GLL5        0.0000 
      8 CA        -51.7840    5.9940   -2.5600 C.3       6 GLP5        0.0000 
      9 CA        -49.9880   13.9375   11.3955 C.3       3 GLC5        0.0000 
     10 CA        -48.5860   14.6970   10.0840 C.3       9 GLL5        0.0000 
     11 CA        -51.3900   13.1780   12.7070 C.3       6 GLP5        0.0000 
     12 CA        -50.3535   13.7095    9.2355 C.3       3 GLC5        0.0000 
     13 CA        -46.7995   14.7795    9.5045 C.3       3 GLC5        0.0000 
     14 CA        -45.0130   14.8620    8.9250 C.3       6 GLP5        0.0000 
     15 CA        -51.8655   11.1480   -5.7385 C.3       3 GLC5        0.0000 
     16 CA        -51.0700   10.8910   -4.0580 C.3       9 GLL5        0.0000 
     17 CA        -52.6610   11.4050   -7.4190 C.3       6 GLP5        0.0000 
     18 CA        -52.3645   11.3815   -2.5730 C.3       3 GLC5        0.0000 
     19 CA        -53.6590   11.8720   -1.0880 C.3       6 GLP5        0.0000 
     20 CA        -51.9335   12.6930   -3.3195 C.3       3 GLC5        0.0000 
     21 CA        -52.7970   14.4950   -2.5810 C.3       6 GLP5        0.0000 
     22 CA        -52.4285    9.1605   -5.5320 C.3       3 GLC5        0.0000 
     23 CA        -50.6960    8.7590   -4.5210 C.3       9 GLL5        0.0000 
     24 CA        -54.1610    9.5620   -6.5430 C.3       6 GLP5        0.0000 
     25 CA        -50.4535    7.6650   -5.6875 C.3       3 GLC5        0.0000 
     26 CA        -50.2110    6.5710   -6.8540 C.3       6 GLP5        0.0000 
     27 CA        -51.2400    7.3765   -3.5405 C.3       3 GLC5        0.0000 
     28 O         -46.9165    8.3105    7.0785 O.2       1 ALC1        0.0000 
     29 O         -46.9610    9.7170    7.0010 O.2       7 ALL1        0.0000 
     30 O         -46.8720    6.9040    7.1560 O.2       4 ALP1        0.0000 
     31 N         -46.1705    8.6980    9.8085 N.am      2 SEC2        0.0000 
     32 N         -46.8500    9.8630    9.4500 N.am      8 SEL2        0.0000 
     33 N         -45.4910    7.5330   10.1670 N.am      5 SEP2        0.0000 
     34 CA        -44.9900   13.6485    4.6905 C.3       3 GLC5        0.0000 
     35 CA        -46.7340   12.2890    5.0010 C.3       9 GLL5        0.0000 
     36 CA        -43.2460   15.0080    4.3800 C.3       6 GLP5        0.0000 
     37 CA        -47.0735   10.3395    2.4620 C.3       3 GLC5        0.0000 
     38 CA        -46.6890   12.1840    3.6700 C.3       9 GLL5        0.0000 
     39 CA        -47.4580    8.4950    1.2540 C.3       6 GLP5        0.0000 
     40 CA        -51.6665   13.9675    2.8660 C.3       3 GLC5        0.0000 
     41 CA        -50.2280   12.7160    2.5170 C.3       9 GLL5        0.0000 
     42 CA        -53.1050   15.2190    3.2150 C.3       6 GLP5        0.0000 
     43 CA        -45.7100   13.1970   -1.3165 C.3       3 GLC5        0.0000 
     44 CA        -47.4390   12.5330   -0.9610 C.3       9 GLL5        0.0000 
     45 CA        -43.9810   13.8610   -1.6720 C.3       6 GLP5        0.0000 
     46 CA        -44.5285    9.7310   -1.6845 C.3       3 GLC5        0.0000 
     47 CA        -46.6920   10.1890   -1.8540 C.3       9 GLL5        0.0000 
     48 CA        -42.3650    9.2730   -1.5150 C.3       6 GLP5        0.0000 
     49 CA        -48.5500    7.9455   -4.8305 C.3       3 GLC5        0.0000 
     50 CA        -48.3160    8.8470   -3.0900 C.3       9 GLL5        0.0000 
     51 CA        -48.7840    7.0440   -6.5710 C.3       6 GLP5        0.0000 
     52 CA        -49.7390    8.3640   -5.0470 C.3       3 GLC5        0.0000 
     53 CA        -50.6940    9.6840   -3.5230 C.3       9 GLL5        0.0000 
     54 CA        -50.6335    7.9265   -2.7170 C.3       3 GLC5        0.0000 
     55 CA        -50.5730    6.1690   -1.9110 C.3       6 GLP5        0.0000 
     56 CA        -48.6620    9.7115    8.3105 C.3       3 GLC5        0.0000 
     57 CA        -47.1590   10.4890    8.2180 C.3       9 GLL5        0.0000 
     58 CA        -50.1650    8.9340    8.4030 C.3       6 GLP5        0.0000 
     59 CA        -45.3565    9.7605    9.0620 C.3       3 GLC5        0.0000 
     60 CA        -43.5540    9.0320    9.9060 C.3       6 GLP5        0.0000 
     61 CA        -48.9530   10.6505   11.3685 C.3       3 GLC5        0.0000 
     62 CA        -47.0110   10.4900   10.5800 C.3       9 GLL5        0.0000 
     63 CA        -48.5880    9.7120    9.4915 C.3       3 GLC5        0.0000 
     64 CA        -48.0220    9.0605   11.3200 C.3       3 GLC5        0.0000 
     65 CA        -49.0330    7.6310   12.0600 C.3       6 GLP5        0.0000 
     66 CA        -45.2825    9.7610   10.2430 C.3       3 GLC5        0.0000 
     67 CA        -51.8547    9.5870   -1.3250 C.3       3 GLC5        0.0000 
     68 CA        -52.6080    9.6440    0.4060 C.3       6 GLP5        0.0000 
     69 CA        -50.1775   12.9965    7.9232 C.3       3 GLC5        0.0000 
     70 CA        -48.0490   12.6880    7.1650 C.3       9 GLL5        0.0000 
     71 CA        -49.4450   10.4681   -5.0289 C.3       3 GLC5        0.0000 
     72 CA        -48.1010   11.4130   -5.9020 C.3       6 GLP5        0.0000 
     73 CA        -49.0230   10.6625    8.1890 C.3       3 GLC5        0.0000 
     74 CA        -48.2280   14.3770    4.4817 C.3       3 GLC5        0.0000 
     75 CA        -48.0380   12.5320    5.6890 C.3       9 GLL5        0.0000 
     76 CA        -47.8200   16.1310    3.6650 C.3       6 GLP5        0.0000 
     77 CA        -45.1328   11.1337    4.3063 C.3       3 GLC5        0.0000 
     78 CA        -43.5540   10.0310    4.2770 C.3       6 GLP5        0.0000 
     79 CA        -46.9664   13.9964    3.2194 C.3       3 GLC5        0.0000 
     80 CA        -47.9180   12.3110    2.8980 C.3       9 GLL5        0.0000 
     81 CA        -46.6180   15.7190    2.8220 C.3       6 GLP5        0.0000 
     82 CA        -51.2600   11.1043    1.1382 C.3       3 GLC5        0.0000 
     83 CA        -49.8005   10.7207    2.3918 C.3       3 GLC5        0.0000 
     84 CA        -49.5960   12.4130    1.2240 C.3       9 GLL5        0.0000 
     85 CA        -49.6890    8.8770    2.9130 C.3       6 GLP5        0.0000 
     86 CA        -48.7613   14.3953    3.3515 C.3       3 GLC5        0.0000 
     87 CA        -49.2899   10.7313    3.4906 C.3       3 GLC5        0.0000 
     88 CA        -47.3345    9.5977   -0.2600 C.3       3 GLC5        0.0000 
     89 CA        -47.7300   11.2120   -1.6940 C.3       9 GLL5        0.0000 
     90 CA        -47.4715   10.5123   -4.0450 C.3       3 GLC5        0.0000 
     91 CA        -47.8950    7.2627   -2.1605 C.3       3 GLC5        0.0000 
     92 CA        -48.1360    5.5850   -1.5150 C.3       6 GLP5        0.0000 
     93 CA        -47.5560    8.7177   -0.7760 C.3       3 GLC5        0.0000 
     94 CA        -48.4522   10.3767   -4.4573 C.3       3 GLC5        0.0000 
     95 CA        -49.1925    9.3855   -0.6720 C.3       3 GLC5        0.0000 
     96 CA        -49.2910    9.8340   -2.9350 C.3       9 GLL5        0.0000 
     97 CA        -49.2500    8.3320    1.2360 C.3       6 GLP5        0.0000 
     98 CA        -48.4124   12.5541   -3.3141 C.3       3 GLC5        0.0000 
     99 CA        -48.9790   11.0440   -2.2250 C.3       9 GLL5        0.0000 
    100 CA        -48.5430   13.6500   -4.8520 C.3       6 GLP5        0.0000 
@<TRIPOS>BOND
@<TRIPOS>SUBSTRUCTURE
     1 ALC1       28 GROUP        1 X    ALC  0     ROOT ALC X 1
     2 SEC2       31 GROUP        1 X    SEC  0     **** SEC X 2
     3 GLC5        1 GROUP        1 X    GLC  0     **** GLC X 6
     4 ALP1       30 GROUP        1 Y    ALP  0     ROOT ALP Y 8
     5 SEP2       33 GROUP        1 Y    SEP  0     **** SEP Y 9
     6 GLP5        3 GROUP        1 Y    GLP  0     **** GLP Y 13
     7 ALL1       29 GROUP        1 Z    ALL  0     ROOT ALL Z 15
     8 SEL2       32 GROUP        1 Z    SEL  0     **** SEL Z 16
     9 GLL5        2 GROUP        1 Z    GLL  0     **** GLL Z 20
@<TRIPOS>SET

