#    Name: 4g31_0WH_1_ligand
#    Modification time : Mon Mar 24 21:17:15 2014

@<TRIPOS>MOLECULE
4g31_0WH_1_ligand
   53    57     1     0     0
SMALL
NO_CHARGES


@<TRIPOS>ATOM
      1 C         -47.7950   12.4100    9.3600 C.ar      1 0WH1102     0.0000 
      2 F         -51.5090    9.3760   -2.5890 F         1 0WH1102     0.0000 
      3 N         -47.4850   11.7710   10.5920 N.ar      1 0WH1102     0.0000 
      4 O         -45.9760   12.3650    0.7820 O.2       1 0WH1102     0.0000 
      5 C01       -48.5860   14.6970   10.0840 C.3       1 0WH1102     0.0000 
      6 F01       -51.0700   10.8910   -4.0580 F         1 0WH1102     0.0000 
      7 N01       -48.2930   13.7290    9.1100 N.pl3     1 0WH1102     0.0000 
      8 C02       -48.4190   13.8540    7.7540 C.2       1 0WH1102     0.0000 
      9 F02       -50.6960    8.7590   -4.5210 F         1 0WH1102     0.0000 
     10 N02       -48.1720   12.3320    1.4600 N.am      1 0WH1102     0.0000 
     11 C03       -48.0490   12.6880    7.1650 C.2       1 0WH1102     0.0000 
     12 N03       -46.9610    9.7170    7.0010 N.pl3     1 0WH1102     0.0000 
     13 C04       -48.0380   12.5320    5.6890 C.ar      1 0WH1102     0.0000 
     14 N04       -46.8500    9.8630    9.4500 N.ar      1 0WH1102     0.0000 
     15 C05       -46.7340   12.2890    5.0010 C.ar      1 0WH1102     0.0000 
     16 C06       -46.6890   12.1840    3.6700 C.ar      1 0WH1102     0.0000 
     17 C07       -47.9180   12.3110    2.8980 C.ar      1 0WH1102     0.0000 
     18 C08       -49.5960   12.4130    1.2240 C.3       1 0WH1102     0.0000 
     19 C09       -50.2280   12.7160    2.5170 C.3       1 0WH1102     0.0000 
     20 C10       -49.1770   12.6030    3.5590 C.ar      1 0WH1102     0.0000 
     21 C11       -49.2340   12.7140    4.9080 C.ar      1 0WH1102     0.0000 
     22 C12       -47.0990   12.4010    0.4370 C.2       1 0WH1102     0.0000 
     23 C13       -47.4390   12.5330   -0.9610 C.3       1 0WH1102     0.0000 
     24 C14       -47.7300   11.2120   -1.6940 C.ar      1 0WH1102     0.0000 
     25 C15       -46.6920   10.1890   -1.8540 C.ar      1 0WH1102     0.0000 
     26 C16       -46.9920    9.0340   -2.5220 C.ar      1 0WH1102     0.0000 
     27 C17       -48.3160    8.8470   -3.0900 C.ar      1 0WH1102     0.0000 
     28 C18       -49.2910    9.8340   -2.9350 C.ar      1 0WH1102     0.0000 
     29 C19       -48.9790   11.0440   -2.2250 C.ar      1 0WH1102     0.0000 
     30 C20       -50.6940    9.6840   -3.5230 C.3       1 0WH1102     0.0000 
     31 C21       -47.6310   11.7780    8.2100 C.ar      1 0WH1102     0.0000 
     32 C22       -47.1590   10.4890    8.2180 C.ar      1 0WH1102     0.0000 
     33 C23       -47.0110   10.4900   10.5800 C.ar      1 0WH1102     0.0000 
     34 H         -48.7227   14.6462    7.2949 H         1 0WH1102     0.0000 
     35 H         -47.1497   10.1933    6.1422 H         1 0WH1102     0.0000 
     36 H         -46.6525    8.7737    7.1236 H         1 0WH1102     0.0000 
     37 H         -45.9162   12.2136    5.6110 H         1 0WH1102     0.0000 
     38 H         -45.8252   12.0160    3.1455 H         1 0WH1102     0.0000 
     39 H         -49.9776   11.4682    0.8412 H         1 0WH1102     0.0000 
     40 H         -49.8241   13.2022    0.5099 H         1 0WH1102     0.0000 
     41 H         -51.0250   12.0081    2.7217 H         1 0WH1102     0.0000 
     42 H         -50.6324   13.7233    2.5117 H         1 0WH1102     0.0000 
     43 H         -50.1041   12.9251    5.4056 H         1 0WH1102     0.0000 
     44 H         -46.6216   13.0475   -1.5216 H         1 0WH1102     0.0000 
     45 H         -48.3351   13.1865   -1.0918 H         1 0WH1102     0.0000 
     46 H         -45.7771   10.3777   -1.4582 H         1 0WH1102     0.0000 
     47 H         -46.3117    8.2805   -2.6420 H         1 0WH1102     0.0000 
     48 H         -48.5085    7.9856   -3.5978 H         1 0WH1102     0.0000 
     49 H         -49.7071   11.7552   -2.1346 H         1 0WH1102     0.0000 
     50 H         -46.7847   10.0359   11.4975 H         1 0WH1102     0.0000 
     51 H         -47.7795   14.9353   10.6251 H         1 0WH1102     0.0000 
     52 H         -48.9256   15.5441    9.6753 H         1 0WH1102     0.0000 
     53 H         -49.2854   14.3796   10.7244 H         1 0WH1102     0.0000 
@<TRIPOS>BOND
     1    3    1 ar   
     2    7    1 1    
     3   31    1 ar   
     4   30    2 1    
     5   33    3 ar   
     6   22    4 2    
     7    7    5 1    
     8   51    5 1    
     9   52    5 1    
    10   53    5 1    
    11   30    6 1    
    12    8    7 1    
    13   11    8 2    
    14   34    8 1    
    15   30    9 1    
    16   17   10 1    
    17   18   10 1    
    18   22   10 am   
    19   13   11 1    
    20   31   11 1    
    21   32   12 1    
    22   35   12 1    
    23   36   12 1    
    24   15   13 ar   
    25   21   13 ar   
    26   32   14 ar   
    27   33   14 ar   
    28   16   15 ar   
    29   37   15 1    
    30   17   16 ar   
    31   38   16 1    
    32   20   17 ar   
    33   19   18 1    
    34   39   18 1    
    35   40   18 1    
    36   20   19 1    
    37   41   19 1    
    38   42   19 1    
    39   21   20 ar   
    40   43   21 1    
    41   23   22 1    
    42   24   23 1    
    43   44   23 1    
    44   45   23 1    
    45   25   24 ar   
    46   29   24 ar   
    47   26   25 ar   
    48   46   25 1    
    49   27   26 ar   
    50   47   26 1    
    51   28   27 ar   
    52   48   27 1    
    53   29   28 ar   
    54   30   28 1    
    55   49   29 1    
    56   32   31 ar   
    57   50   33 1    
@<TRIPOS>SUBSTRUCTURE
     1 0WH1102     1 GROUP   
@<TRIPOS>SET

