#    Name: 3ny8_JRZ_3_INTS_M
#    Modification time : Tue Mar 25 02:56:51 2014

@<TRIPOS>MOLECULE
3ny8_JRZ_3_INTS_M
   57     0    12     0     0
SMALL
NO_CHARGES


@<TRIPOS>ATOM
      1 CA         -0.1770   -1.2015   51.5040 C.3       4 GLC5        0.0000 
      2 CA          1.2850    0.3310   51.5360 C.3      12 GLL5        0.0000 
      3 CA         -1.6390   -2.7340   51.4720 C.3       8 GLP5        0.0000 
      4 CA          2.8060    0.3090   50.0200 C.3       4 GLC5        0.0000 
      5 CA          4.3270    0.2870   48.5040 C.3       8 GLP5        0.0000 
      6 OD1         2.4150    9.2310   51.7960 O.co2     3 ASC3        0.0000 
      7 OD1         3.4010    8.2360   53.1020 O.co2    11 ASL3        0.0000 
      8 OD1         1.4290   10.2260   50.4900 O.co2     7 ASP3        0.0000 
      9 N           5.0465    8.5105   50.3615 N.am      2 SEC2        0.0000 
     10 N           3.5170    8.3590   50.4050 N.am     10 SEL2        0.0000 
     11 N           6.5760    8.6620   50.3180 N.am      6 SEP2        0.0000 
     12 N           3.4455    9.9660   50.8220 N.am      2 SEC2        0.0000 
     13 N           3.3740   11.5730   51.2390 N.am      6 SEP2        0.0000 
     14 O           2.3320    8.4235   49.8145 O.2       1 ALC1        0.0000 
     15 O           3.5170    8.3590   50.4050 O.2       9 ALL1        0.0000 
     16 O           1.1470    8.4880   49.2240 O.2       5 ALP1        0.0000 
     17 CA          4.5940    2.9350   51.5935 C.3       4 GLC5        0.0000 
     18 CA          2.7620    2.1350   52.2400 C.3      12 GLL5        0.0000 
     19 CA          6.4260    3.7350   50.9470 C.3       8 GLP5        0.0000 
     20 CA          3.5445    1.2110   50.3720 C.3       4 GLC5        0.0000 
     21 CA         -1.0195   -1.1445   50.1825 C.3       4 GLC5        0.0000 
     22 CA         -0.4000    0.4450   48.8930 C.3      12 GLL5        0.0000 
     23 CA         -0.7475   -0.6220   47.7515 C.3       4 GLC5        0.0000 
     24 CA         -1.0950   -1.6890   46.6100 C.3       8 GLP5        0.0000 
     25 CA         -0.2760    4.6040   48.7720 C.3       4 GLC5        0.0000 
     26 CA          1.4930    3.7430   48.8900 C.3      12 GLL5        0.0000 
     27 CA         -2.0450    5.4650   48.6540 C.3       8 GLP5        0.0000 
     28 CA          2.7000    6.0880   47.7945 C.3       4 GLC5        0.0000 
     29 CA          2.9490    6.0530   49.9860 C.3      12 GLL5        0.0000 
     30 CA          2.4510    6.1230   45.6030 C.3       8 GLP5        0.0000 
     31 CA          4.6875    4.8940   50.4665 C.3       4 GLC5        0.0000 
     32 CA          0.3330    8.2160   51.2715 C.3       4 GLC5        0.0000 
     33 CA          1.4650    7.0340   52.3050 C.3      12 GLL5        0.0000 
     34 CA         -0.7990    9.3980   50.2380 C.3       8 GLP5        0.0000 
     35 CA         -0.3335    5.8485   51.6740 C.3       4 GLC5        0.0000 
     36 CA         -2.1320    4.6630   51.0430 C.3       8 GLP5        0.0000 
     37 CA          5.9120    7.3675   55.8295 C.3       4 GLC5        0.0000 
     38 CA          4.6070    8.8140   55.1190 C.3      12 GLL5        0.0000 
     39 CA          7.2170    5.9210   56.5400 C.3       8 GLP5        0.0000 
     40 CA          1.1160   10.5760   55.3375 C.3       4 GLC5        0.0000 
     41 CA          2.1430    8.7230   55.1300 C.3      12 GLL5        0.0000 
     42 CA          0.0890   12.4290   55.5450 C.3       8 GLP5        0.0000 
     43 CA          1.5345    2.5677   54.0275 C.3       4 GLC5        0.0000 
     44 CA          0.7730    3.5420   55.5650 C.3       8 GLP5        0.0000 
     45 CA         -1.1146    2.4621   49.0641 C.3       4 GLC5        0.0000 
     46 CA         -2.6860    3.0880   49.1800 C.3       8 GLP5        0.0000 
     47 CA          1.3640    4.0590   46.9587 C.3       4 GLC5        0.0000 
     48 CA          0.6590    2.6950   48.5030 C.3      12 GLL5        0.0000 
     49 CA          1.6520    4.8990   45.2210 C.3       8 GLP5        0.0000 
     50 CA          4.5248    6.5060   48.8392 C.3       4 GLC5        0.0000 
     51 CA          5.7660    6.4530   47.2070 C.3       8 GLP5        0.0000 
     52 CA          4.8665    5.8137   51.8625 C.3       4 GLC5        0.0000 
     53 CA          3.6180    7.0650   50.9570 C.3      12 GLL5        0.0000 
     54 CA          6.4310    4.5770   52.0560 C.3       8 GLP5        0.0000 
     55 CA          2.3308    7.3673   56.3740 C.3       4 GLC5        0.0000 
     56 CA          3.4000    8.0860   54.5460 C.3      12 GLL5        0.0000 
     57 CA          1.8900    6.3300   57.9100 C.3       8 GLP5        0.0000 
@<TRIPOS>BOND
@<TRIPOS>SUBSTRUCTURE
     1 ALC1       14 GROUP        1 X    ALC  0     ROOT ALC X 1
     2 SEC2        9 GROUP        1 X    SEC  0     **** SEC X 2
     3 ASC3        6 GROUP        1 X    ASC  0     **** ASC X 3
     4 GLC5        1 GROUP        1 X    GLC  0     **** GLC X 6
     5 ALP1       16 GROUP        1 Y    ALP  0     ROOT ALP Y 8
     6 SEP2       11 GROUP        1 Y    SEP  0     **** SEP Y 9
     7 ASP3        8 GROUP        1 Y    ASP  0     **** ASP Y 10
     8 GLP5        3 GROUP        1 Y    GLP  0     **** GLP Y 13
     9 ALL1       15 GROUP        1 Z    ALL  0     ROOT ALL Z 15
    10 SEL2       10 GROUP        1 Z    SEL  0     **** SEL Z 16
    11 ASL3        7 GROUP        1 Z    ASL  0     **** ASL Z 17
    12 GLL5        2 GROUP        1 Z    GLL  0     **** GLL Z 20
@<TRIPOS>SET

