#    Name: 3ny8_JRZ_3_ligand
#    Modification time : Tue Mar 25 02:56:51 2014

@<TRIPOS>MOLECULE
3ny8_JRZ_3_ligand
   46    47     1     0     0
SMALL
NO_CHARGES


@<TRIPOS>ATOM
      1 C1          1.2850    0.3310   51.5360 C.3       1 JRZ1203     0.0000 
      2 N1          3.4010    8.2360   53.1020 N.4       1 JRZ1203     0.0000 
      3 O1          3.1040    4.7170   50.4780 O.3       1 JRZ1203     0.0000 
      4 C2          1.8300    1.0520   52.7400 C.3       1 JRZ1203     0.0000 
      5 O2          3.5170    8.3590   50.4050 O.3       1 JRZ1203     0.0000 
      6 C3          2.7620    2.1350   52.2400 C.3       1 JRZ1203     0.0000 
      7 C4          2.1230    2.4980   50.8760 C.ar      1 JRZ1203     0.0000 
      8 C5          1.2740    1.4540   50.4820 C.ar      1 JRZ1203     0.0000 
      9 C6          0.5450    1.5650   49.3050 C.ar      1 JRZ1203     0.0000 
     10 C7         -0.4000    0.4450   48.8930 C.3       1 JRZ1203     0.0000 
     11 C8          0.6590    2.6950   48.5030 C.ar      1 JRZ1203     0.0000 
     12 C9          1.4930    3.7430   48.8900 C.ar      1 JRZ1203     0.0000 
     13 C10         2.2150    3.6580   50.0900 C.ar      1 JRZ1203     0.0000 
     14 C11         2.9490    6.0530   49.9860 C.3       1 JRZ1203     0.0000 
     15 C12         3.6180    7.0650   50.9570 C.3       1 JRZ1203     0.0000 
     16 C13         2.9860    7.0360   52.3810 C.3       1 JRZ1203     0.0000 
     17 C14         1.4650    7.0340   52.3050 C.3       1 JRZ1203     0.0000 
     18 C15         3.4000    8.0860   54.5460 C.3       1 JRZ1203     0.0000 
     19 C16         4.6070    8.8140   55.1190 C.3       1 JRZ1203     0.0000 
     20 C17         2.1430    8.7230   55.1300 C.3       1 JRZ1203     0.0000 
     21 H           0.2977    0.0087   51.7106 H         1 JRZ1203     0.0000 
     22 H           1.9453   -0.4290   51.2270 H         1 JRZ1203     0.0000 
     23 H           2.3787    0.3628   53.3634 H         1 JRZ1203     0.0000 
     24 H           1.0214    1.5001   53.2967 H         1 JRZ1203     0.0000 
     25 H           3.7263    1.7473   52.0769 H         1 JRZ1203     0.0000 
     26 H           2.7262    2.9751   52.8721 H         1 JRZ1203     0.0000 
     27 H           0.1293    2.7593   47.6247 H         1 JRZ1203     0.0000 
     28 H           1.5814    4.5774   48.3005 H         1 JRZ1203     0.0000 
     29 H           1.8953    6.3387   49.8976 H         1 JRZ1203     0.0000 
     30 H           3.4190    6.1870   49.0058 H         1 JRZ1203     0.0000 
     31 H           4.6623    6.7674   51.0597 H         1 JRZ1203     0.0000 
     32 H           3.3187    6.1577   52.8820 H         1 JRZ1203     0.0000 
     33 H           3.4406    7.0657   54.8374 H         1 JRZ1203     0.0000 
     34 H           0.0829   -0.4220   48.7699 H         1 JRZ1203     0.0000 
     35 H          -1.1121    0.2892   49.5776 H         1 JRZ1203     0.0000 
     36 H          -0.8626    0.6480   48.0300 H         1 JRZ1203     0.0000 
     37 H           1.1159    7.8410   51.8286 H         1 JRZ1203     0.0000 
     38 H           1.1186    6.2328   51.8170 H         1 JRZ1203     0.0000 
     39 H           1.0477    7.0267   53.2138 H         1 JRZ1203     0.0000 
     40 H           5.4660    8.4479   54.7610 H         1 JRZ1203     0.0000 
     41 H           4.5905    9.7897   54.9004 H         1 JRZ1203     0.0000 
     42 H           4.6484    8.7375   56.1152 H         1 JRZ1203     0.0000 
     43 H           2.1119    8.6380   56.1259 H         1 JRZ1203     0.0000 
     44 H           2.0878    9.6986   54.9173 H         1 JRZ1203     0.0000 
     45 H           1.3111    8.2978   54.7734 H         1 JRZ1203     0.0000 
     46 H           2.9272    8.2534   49.6045 H         1 JRZ1203     0.0000 
@<TRIPOS>BOND
     1    4    1 1    
     2    8    1 1    
     3   21    1 1    
     4   22    1 1    
     5   16    2 1    
     6   18    2 1    
     7   13    3 1    
     8   14    3 1    
     9    6    4 1    
    10   23    4 1    
    11   24    4 1    
    12   15    5 1    
    13   46    5 1    
    14    7    6 1    
    15   25    6 1    
    16   26    6 1    
    17    8    7 ar   
    18   13    7 ar   
    19    9    8 ar   
    20   10    9 1    
    21   11    9 ar   
    22   34   10 1    
    23   35   10 1    
    24   36   10 1    
    25   12   11 ar   
    26   27   11 1    
    27   13   12 ar   
    28   28   12 1    
    29   15   14 1    
    30   29   14 1    
    31   30   14 1    
    32   16   15 1    
    33   31   15 1    
    34   17   16 1    
    35   32   16 1    
    36   37   17 1    
    37   38   17 1    
    38   39   17 1    
    39   19   18 1    
    40   20   18 1    
    41   33   18 1    
    42   40   19 1    
    43   41   19 1    
    44   42   19 1    
    45   43   20 1    
    46   44   20 1    
    47   45   20 1    
@<TRIPOS>SUBSTRUCTURE
     1 JRZ1203     1 GROUP   
@<TRIPOS>SET

