#    Name: 4fal_0T0_1_INTS_M
#    Modification time : Mon Mar 24 19:11:57 2014

@<TRIPOS>MOLECULE
4fal_0T0_1_INTS_M
   46     0     6     0     0
SMALL
NO_CHARGES


@<TRIPOS>ATOM
      1 CA         -3.0535    8.3970   13.1645 C.3       2 GLC5        0.0000 
      2 CA         -1.6800    9.0750   14.7370 C.3       6 GLL5        0.0000 
      3 CA         -4.4270    7.7190   11.5920 C.3       4 GLP5        0.0000 
      4 CA          0.1075   10.9340   15.5330 C.3       2 GLC5        0.0000 
      5 CA         -1.8150   10.6110   14.6420 C.3       6 GLL5        0.0000 
      6 CA          2.0300   11.2570   16.4240 C.3       4 GLP5        0.0000 
      7 CA         -4.2455    8.2910   13.5960 C.3       2 GLC5        0.0000 
      8 CA         -4.0640    8.8630   15.6000 C.3       6 GLL5        0.0000 
      9 CA         -5.4600    8.8545   16.7230 C.3       2 GLC5        0.0000 
     10 CA         -6.8560    8.8460   17.8460 C.3       4 GLP5        0.0000 
     11 CA          0.1230    4.9900   16.0400 C.3       2 GLC5        0.0000 
     12 CA         -1.6920    5.0660   14.9720 C.3       6 GLL5        0.0000 
     13 CA          1.9380    4.9140   17.1080 C.3       4 GLP5        0.0000 
     14 N           1.5195    2.6630   13.4505 N.am      1 SEC2        0.0000 
     15 N           0.3600    3.3020   13.6680 N.am      5 SEL2        0.0000 
     16 N           2.6790    2.0240   13.2330 N.am      3 SEP2        0.0000 
     17 N           0.9350    3.6145   14.9625 N.am      1 SEC2        0.0000 
     18 N           1.5100    3.9270   16.2570 N.am      3 SEP2        0.0000 
     19 CA         -0.6045    0.4250   10.9295 C.3       2 GLC5        0.0000 
     20 CA         -0.2380    2.0600   11.4230 C.3       6 GLL5        0.0000 
     21 CA         -0.9710   -1.2100   10.4360 C.3       4 GLP5        0.0000 
     22 CA          0.4660    1.2340   12.7025 C.3       2 GLC5        0.0000 
     23 CA          1.1700    0.4080   13.9820 C.3       4 GLP5        0.0000 
     24 CA          0.2910    3.6200   10.8120 C.3       2 GLC5        0.0000 
     25 CA          0.8200    5.1800   10.2010 C.3       4 GLP5        0.0000 
     26 CA         -3.9422   10.9115   12.6165 C.3       2 GLC5        0.0000 
     27 CA         -3.2090   11.0430   14.5710 C.3       6 GLL5        0.0000 
     28 CA         -4.5680   10.1520   10.9050 C.3       4 GLP5        0.0000 
     29 CA         -3.1560   11.4245   16.4069 C.3       2 GLC5        0.0000 
     30 CA         -3.4240   12.2990   14.0850 C.3       6 GLL5        0.0000 
     31 CA         -3.3440   11.2860   18.4680 C.3       4 GLP5        0.0000 
     32 CA         -4.9372   11.2405   12.5580 C.3       2 GLC5        0.0000 
     33 CA         -4.7620   12.7170   14.0030 C.3       6 GLL5        0.0000 
     34 CA         -4.7575   10.3038   12.9375 C.3       2 GLC5        0.0000 
     35 CA         -4.2730   10.2460   15.0040 C.3       6 GLL5        0.0000 
     36 CA         -6.1158   11.0798   16.3439 C.3       2 GLC5        0.0000 
     37 CA         -7.2270   11.3850   17.8470 C.3       4 GLP5        0.0000 
     38 CA         -3.9247   10.4726   16.8765 C.3       2 GLC5        0.0000 
     39 CA         -5.6210   10.6650   14.9360 C.3       6 GLL5        0.0000 
     40 CA         -2.1857    3.5152   16.0945 C.3       2 GLC5        0.0000 
     41 CA         -2.7130    5.6450   15.7540 C.3       6 GLL5        0.0000 
     42 CA         -2.1690    1.6750   16.8260 C.3       4 GLP5        0.0000 
     43 CA         -3.1665    3.1515   16.1015 C.3       2 GLC5        0.0000 
     44 CA         -4.2980    4.0670   14.9880 C.3       6 GLL5        0.0000 
     45 CA         -2.4000    2.6835   15.5177 C.3       2 GLC5        0.0000 
     46 CA         -3.2960    3.4500   14.2240 C.3       6 GLL5        0.0000 
@<TRIPOS>BOND
@<TRIPOS>SUBSTRUCTURE
     1 SEC2       14 GROUP        1 X    SEC  0     ROOT SEC X 2
     2 GLC5        1 GROUP        1 X    GLC  0     **** GLC X 6
     3 SEP2       16 GROUP        1 Y    SEP  0     ROOT SEP Y 9
     4 GLP5        3 GROUP        1 Y    GLP  0     **** GLP Y 13
     5 SEL2       15 GROUP        1 Z    SEL  0     ROOT SEL Z 16
     6 GLL5        2 GROUP        1 Z    GLL  0     **** GLL Z 20
@<TRIPOS>SET

