#    Name: 4fal_0T0_1_ligand
#    Modification time : Mon Mar 24 19:11:57 2014

@<TRIPOS>MOLECULE
4fal_0T0_1_ligand
   41    43     1     0     0
SMALL
NO_CHARGES


@<TRIPOS>ATOM
      1 CAN        -1.6800    9.0750   14.7370 C.3       1 0T0402      0.0000 
      2 CAM        -1.8150   10.6110   14.6420 C.3       1 0T0402      0.0000 
      3 CAT        -3.2090   11.0430   14.5710 C.ar      1 0T0402      0.0000 
      4 CAJ        -3.4240   12.2990   14.0850 C.ar      1 0T0402      0.0000 
      5 CAE        -4.7620   12.7170   14.0030 C.ar      1 0T0402      0.0000 
      6 CAF        -5.8510   11.9410   14.4190 C.ar      1 0T0402      0.0000 
      7 CAK        -5.6210   10.6650   14.9360 C.ar      1 0T0402      0.0000 
      8 CAU        -4.2730   10.2460   15.0040 C.ar      1 0T0402      0.0000 
      9 CAO        -4.0640    8.8630   15.6000 C.3       1 0T0402      0.0000 
     10 NAV        -2.7460    8.2720   15.3580 N.pl3     1 0T0402      0.0000 
     11 SAW        -2.3070    7.0900   16.6470 S.o2      1 0T0402      0.0000 
     12 OAC        -0.8640    7.1130   16.9840 O.2       1 0T0402      0.0000 
     13 OAD        -3.1150    7.1690   17.8940 O.2       1 0T0402      0.0000 
     14 CAS        -2.7130    5.6450   15.7540 C.ar      1 0T0402      0.0000 
     15 CAL        -1.6920    5.0660   14.9720 C.ar      1 0T0402      0.0000 
     16 CAI        -4.0300    5.1890   15.7660 C.ar      1 0T0402      0.0000 
     17 CAG        -4.2980    4.0670   14.9880 C.ar      1 0T0402      0.0000 
     18 CAH        -3.2960    3.4500   14.2240 C.ar      1 0T0402      0.0000 
     19 CAR        -1.9660    3.9340   14.1950 C.ar      1 0T0402      0.0000 
     20 CAQ        -0.8710    3.2810   13.3500 C.2       1 0T0402      0.0000 
     21 OAB         0.3600    3.3020   13.6680 O.2       1 0T0402      0.0000 
     22 NAP        -1.3410    2.6370   12.2580 N.am      1 0T0402      0.0000 
     23 CAA        -0.2380    2.0600   11.4230 C.3       1 0T0402      0.0000 
     24 H          -0.6931    8.8648   15.2593 H         1 0T0402      0.0000 
     25 H          -1.4854    8.6977   13.6831 H         1 0T0402      0.0000 
     26 H          -1.2549   10.9405   13.7528 H         1 0T0402      0.0000 
     27 H          -1.3126   11.0448   15.5208 H         1 0T0402      0.0000 
     28 H          -2.6776   12.9083   13.7957 H         1 0T0402      0.0000 
     29 H          -4.9567   13.6717   13.6045 H         1 0T0402      0.0000 
     30 H          -6.8009   12.3060   14.3442 H         1 0T0402      0.0000 
     31 H          -6.3643   10.0728   15.2439 H         1 0T0402      0.0000 
     32 H          -4.8632    8.1937   15.2020 H         1 0T0402      0.0000 
     33 H          -4.2589    8.9291   16.6967 H         1 0T0402      0.0000 
     34 H          -0.7552    5.4755   14.9756 H         1 0T0402      0.0000 
     35 H          -4.7415    5.6434   16.3039 H         1 0T0402      0.0000 
     36 H          -5.2569    3.6748   14.9691 H         1 0T0402      0.0000 
     37 H          -3.5320    2.6118   13.6604 H         1 0T0402      0.0000 
     38 H          -2.2572    2.5203   11.9819 H         1 0T0402      0.0000 
     39 H           0.3903    2.7668   11.0978 H         1 0T0402      0.0000 
     40 H           0.3072    1.3963   11.9351 H         1 0T0402      0.0000 
     41 H          -0.5916    1.5881   10.6154 H         1 0T0402      0.0000 
@<TRIPOS>BOND
     1    2    1 1    
     2   10    1 1    
     3   24    1 1    
     4   25    1 1    
     5    3    2 1    
     6   26    2 1    
     7   27    2 1    
     8    4    3 ar   
     9    8    3 ar   
    10    5    4 ar   
    11   28    4 1    
    12    6    5 ar   
    13   29    5 1    
    14    7    6 ar   
    15   30    6 1    
    16    8    7 ar   
    17   31    7 1    
    18    9    8 1    
    19   10    9 1    
    20   32    9 1    
    21   33    9 1    
    22   11   10 1    
    23   12   11 2    
    24   13   11 2    
    25   14   11 1    
    26   15   14 ar   
    27   16   14 ar   
    28   19   15 ar   
    29   34   15 1    
    30   17   16 ar   
    31   35   16 1    
    32   18   17 ar   
    33   36   17 1    
    34   19   18 ar   
    35   37   18 1    
    36   20   19 1    
    37   21   20 2    
    38   22   20 am   
    39   23   22 1    
    40   38   22 1    
    41   39   23 1    
    42   40   23 1    
    43   41   23 1    
@<TRIPOS>SUBSTRUCTURE
     1 0T0402      1 GROUP   
@<TRIPOS>SET

