#    Name: 3mjw_WYF_1_INTS_M
#    Modification time : Mon Mar 24 23:17:00 2014

@<TRIPOS>MOLECULE
3mjw_WYF_1_INTS_M
   80     0     9     0     0
SMALL
NO_CHARGES


@<TRIPOS>ATOM
      1 CA         43.9045   10.8425   28.7070 C.3       3 GLC5        0.0000 
      2 CA         45.3880   11.9050   29.1070 C.3       9 GLL5        0.0000 
      3 CA         42.4210    9.7800   28.3070 C.3       6 GLP5        0.0000 
      4 CA         44.6660   10.5500   30.2770 C.3       3 GLC5        0.0000 
      5 CA         43.9440    9.1950   31.4470 C.3       6 GLP5        0.0000 
      6 CA         45.7635   12.8375   27.1455 C.3       3 GLC5        0.0000 
      7 CA         46.1390   13.7700   25.1840 C.3       6 GLP5        0.0000 
      8 CA         44.1710   13.1420   28.1940 C.3       3 GLC5        0.0000 
      9 CA         42.9540   14.3790   27.2810 C.3       6 GLP5        0.0000 
     10 N          48.1475   11.3430   28.8195 N.am      2 SEC2        0.0000 
     11 N          46.7750   12.1310   29.2790 N.am      8 SEL2        0.0000 
     12 N          49.5200   10.5550   28.3600 N.am      5 SEP2        0.0000 
     13 CA         48.2770   11.5135   30.2745 C.3       3 GLC5        0.0000 
     14 CA         47.1320   13.2910   29.9040 C.3       9 GLL5        0.0000 
     15 CA         49.4220    9.7360   30.6450 C.3       6 GLP5        0.0000 
     16 N          40.5715   15.3070   35.4850 N.am      2 SEC2        0.0000 
     17 N          41.8450   15.3170   34.4690 N.am      8 SEL2        0.0000 
     18 N          39.2980   15.2970   36.5010 N.am      5 SEP2        0.0000 
     19 CA         49.7630   12.6660   30.5375 C.3       3 GLC5        0.0000 
     20 CA         48.3420   13.9580   29.7030 C.3       9 GLL5        0.0000 
     21 CA         51.1840   11.3740   31.3720 C.3       6 GLP5        0.0000 
     22 CA         48.7975   12.7860   27.9150 C.3       3 GLC5        0.0000 
     23 CA         49.2530   11.6140   26.1270 C.3       6 GLP5        0.0000 
     24 CA         48.3035   16.3770   29.3290 C.3       3 GLC5        0.0000 
     25 CA         48.6140   15.1470   30.3950 C.3       9 GLL5        0.0000 
     26 CA         47.9930   17.6070   28.2630 C.3       6 GLP5        0.0000 
     27 N          40.4740   11.2160   28.9620 N.am      2 SEC2        0.0000 
     28 N          39.9650   10.8420   30.1340 N.am      8 SEL2        0.0000 
     29 N          40.9830   11.5900   27.7900 N.am      5 SEP2        0.0000 
     30 N          39.5405   12.4180   29.6260 N.am      2 SEC2        0.0000 
     31 N          39.1160   13.9940   29.1180 N.am      5 SEP2        0.0000 
     32 O          38.6285   10.5930   30.6100 O.2       1 ALC1        0.0000 
     33 O          39.9650   10.8420   30.1340 O.2       7 ALL1        0.0000 
     34 O          37.2920   10.3440   31.0860 O.2       4 ALP1        0.0000 
     35 N          39.3395   14.4795   35.2550 N.am      2 SEC2        0.0000 
     36 N          39.3810   13.6620   34.0090 N.am      8 SEL2        0.0000 
     37 O          38.0085   14.1155   33.2390 O.2       1 ALC1        0.0000 
     38 O          39.3810   13.6620   34.0090 O.2       7 ALL1        0.0000 
     39 O          36.6360   14.5690   32.4690 O.2       4 ALP1        0.0000 
     40 CA         48.3625   17.6770   30.2305 C.3       3 GLC5        0.0000 
     41 CA         48.7320   17.7470   32.1980 C.3       9 GLL5        0.0000 
     42 CA         48.0770   17.6360   35.5515 C.3       3 GLC5        0.0000 
     43 CA         48.7980   18.4140   33.5710 C.3       9 GLL5        0.0000 
     44 CA         47.3560   16.8580   37.5320 C.3       6 GLP5        0.0000 
     45 CA         46.5550   16.6930   35.2050 C.3       3 GLC5        0.0000 
     46 CA         46.2790   18.0240   33.7330 C.3       9 GLL5        0.0000 
     47 CA         46.8310   15.3620   36.6770 C.3       6 GLP5        0.0000 
     48 CA         40.0460   13.1245   35.1580 C.3       3 GLC5        0.0000 
     49 CA         40.1140   13.1960   32.9600 C.3       9 GLL5        0.0000 
     50 CA         39.9780   13.0530   37.3560 C.3       6 GLP5        0.0000 
     51 CA         41.2750   10.3125   32.0500 C.3       3 GLC5        0.0000 
     52 CA         40.4510   11.7880   31.0030 C.3       9 GLL5        0.0000 
     53 CA         42.0990    8.8370   33.0970 C.3       6 GLP5        0.0000 
     54 CA         46.7315   12.8785   32.1930 C.3       3 GLC5        0.0000 
     55 CA         46.1820   13.7890   30.8180 C.3       9 GLL5        0.0000 
     56 CA         46.8060   12.2170   34.0250 C.3       6 GLP5        0.0000 
     57 CA         46.9237   13.7673   32.7180 C.3       3 GLC5        0.0000 
     58 CA         47.6480   15.6480   31.2900 C.3       9 GLL5        0.0000 
     59 CA         49.4075   16.4922   33.4718 C.3       3 GLC5        0.0000 
     60 CA         50.0500   14.9040   34.0590 C.3       6 GLP5        0.0000 
     61 CA         46.0519   15.6534   34.7743 C.3       3 GLC5        0.0000 
     62 CA         45.7250   15.7670   32.5040 C.3       9 GLL5        0.0000 
     63 CA         43.2403   15.9543   31.1755 C.3       3 GLC5        0.0000 
     64 CA         44.4390   15.5670   33.0910 C.3       9 GLL5        0.0000 
     65 CA         42.5430   16.7480   29.4420 C.3       6 GLP5        0.0000 
     66 CA         45.5325   13.7138   33.3936 C.3       3 GLC5        0.0000 
     67 CA         43.4360   14.7540   32.7270 C.3       9 GLL5        0.0000 
     68 CA         40.8155   11.1040   33.4648 C.3       3 GLC5        0.0000 
     69 CA         41.7580    9.4970   34.4150 C.3       6 GLP5        0.0000 
     70 CA         42.9495   10.9880   31.3505 C.3       3 GLC5        0.0000 
     71 CA         41.7330   12.3050   30.8070 C.3       9 GLL5        0.0000 
     72 CA         39.4696   13.1650   30.6367 C.3       3 GLC5        0.0000 
     73 CA         38.0520   14.1740   30.1020 C.3       6 GLP5        0.0000 
     74 CA         41.6578   13.7479   29.6405 C.3       3 GLC5        0.0000 
     75 CA         41.6810   14.8440   27.9780 C.3       6 GLP5        0.0000 
     76 CA         39.9254   14.3390   31.6648 C.3       3 GLC5        0.0000 
     77 CA         42.1770   13.2570   31.7010 C.3       9 GLL5        0.0000 
     78 CA         38.3880   15.3270   31.0500 C.3       6 GLP5        0.0000 
     79 CA         46.7032   15.6496   29.4949 C.3       3 GLC5        0.0000 
     80 CA         46.4060   16.7870   28.1290 C.3       6 GLP5        0.0000 
@<TRIPOS>BOND
@<TRIPOS>SUBSTRUCTURE
     1 ALC1       32 GROUP        1 X    ALC  0     ROOT ALC X 1
     2 SEC2       10 GROUP        1 X    SEC  0     **** SEC X 2
     3 GLC5        1 GROUP        1 X    GLC  0     **** GLC X 6
     4 ALP1       34 GROUP        1 Y    ALP  0     ROOT ALP Y 8
     5 SEP2       12 GROUP        1 Y    SEP  0     **** SEP Y 9
     6 GLP5        3 GROUP        1 Y    GLP  0     **** GLP Y 13
     7 ALL1       33 GROUP        1 Z    ALL  0     ROOT ALL Z 15
     8 SEL2       11 GROUP        1 Z    SEL  0     **** SEL Z 16
     9 GLL5        2 GROUP        1 Z    GLL  0     **** GLL Z 20
@<TRIPOS>SET

