#    Name: 3mjw_WYF_1_ligand
#    Modification time : Mon Mar 24 23:17:00 2014

@<TRIPOS>MOLECULE
3mjw_WYF_1_ligand
   45    49     1     0     0
SMALL
NO_CHARGES


@<TRIPOS>ATOM
      1 C1         45.3880   11.9050   29.1070 C.3       1 WYF1        0.0000 
      2 N1         47.6490   16.7800   32.0760 N.pl3     1 WYF1        0.0000 
      3 O1         46.7750   12.1310   29.2790 O.3       1 WYF1        0.0000 
      4 C2         47.1320   13.2910   29.9040 C.ar      1 WYF1        0.0000 
      5 N2         47.4470   18.9580   33.9470 N.4       1 WYF1        0.0000 
      6 O2         41.8450   15.3170   34.4690 O.2       1 WYF1        0.0000 
      7 C3         48.3420   13.9580   29.7030 C.ar      1 WYF1        0.0000 
      8 O3         43.4080   13.8710   31.6590 O.3       1 WYF1        0.0000 
      9 C4         48.6140   15.1470   30.3950 C.ar      1 WYF1        0.0000 
     10 O4         39.9650   10.8420   30.1340 O.3       1 WYF1        0.0000 
     11 C5         47.6480   15.6480   31.2900 C.ar      1 WYF1        0.0000 
     12 O5         39.3810   13.6620   34.0090 O.3       1 WYF1        0.0000 
     13 C6         46.4350   14.9870   31.5320 C.ar      1 WYF1        0.0000 
     14 C7         46.1820   13.7890   30.8180 C.ar      1 WYF1        0.0000 
     15 C8         45.7250   15.7670   32.5040 C.2       1 WYF1        0.0000 
     16 C9         46.4880   16.8780   32.8000 C.2       1 WYF1        0.0000 
     17 C10        48.7320   17.7470   32.1980 C.3       1 WYF1        0.0000 
     18 C11        48.7980   18.4140   33.5710 C.3       1 WYF1        0.0000 
     19 C12        46.2790   18.0240   33.7330 C.3       1 WYF1        0.0000 
     20 C13        44.4390   15.5670   33.0910 C.2       1 WYF1        0.0000 
     21 C14        43.4360   14.7540   32.7270 C.2       1 WYF1        0.0000 
     22 C15        42.1640   14.6900   33.4860 C.2       1 WYF1        0.0000 
     23 C16        41.3830   13.6940   32.7560 C.ar      1 WYF1        0.0000 
     24 C17        40.1140   13.1960   32.9600 C.ar      1 WYF1        0.0000 
     25 C18        39.6320   12.2260   32.0690 C.ar      1 WYF1        0.0000 
     26 C19        40.4510   11.7880   31.0030 C.ar      1 WYF1        0.0000 
     27 C20        41.7330   12.3050   30.8070 C.ar      1 WYF1        0.0000 
     28 C21        42.1770   13.2570   31.7010 C.ar      1 WYF1        0.0000 
     29 H          49.0356   13.5795   29.0480 H         1 WYF1        0.0000 
     30 H          49.4901   15.6401   30.2557 H         1 WYF1        0.0000 
     31 H          45.3041   13.2859   30.9695 H         1 WYF1        0.0000 
     32 H          48.6297   18.5460   31.4373 H         1 WYF1        0.0000 
     33 H          49.7106   17.2633   32.0084 H         1 WYF1        0.0000 
     34 H          49.1190   17.6785   34.3062 H         1 WYF1        0.0000 
     35 H          49.5264   19.2219   33.5368 H         1 WYF1        0.0000 
     36 H          45.4035   18.6295   33.3784 H         1 WYF1        0.0000 
     37 H          45.9561   17.6283   34.7320 H         1 WYF1        0.0000 
     38 H          44.2722   16.1945   33.9845 H         1 WYF1        0.0000 
     39 H          38.6971   11.8358   32.1850 H         1 WYF1        0.0000 
     40 H          42.3074   11.9887   30.0373 H         1 WYF1        0.0000 
     41 H          45.2078   11.0375   28.6433 H         1 WYF1        0.0000 
     42 H          44.9052   11.8753   29.9822 H         1 WYF1        0.0000 
     43 H          44.9595   12.6243   28.5601 H         1 WYF1        0.0000 
     44 H          39.0457   10.6325   30.4673 H         1 WYF1        0.0000 
     45 H          38.4312   13.6236   33.6982 H         1 WYF1        0.0000 
@<TRIPOS>BOND
     1    3    1 1    
     2   41    1 1    
     3   42    1 1    
     4   43    1 1    
     5   11    2 1    
     6   16    2 1    
     7   17    2 1    
     8    4    3 1    
     9    7    4 ar   
    10   14    4 ar   
    11   18    5 1    
    12   19    5 1    
    13   22    6 2    
    14    9    7 ar   
    15   29    7 1    
    16   21    8 1    
    17   28    8 1    
    18   11    9 ar   
    19   30    9 1    
    20   26   10 1    
    21   44   10 1    
    22   13   11 ar   
    23   24   12 1    
    24   45   12 1    
    25   14   13 ar   
    26   15   13 1    
    27   31   14 1    
    28   16   15 2    
    29   20   15 1    
    30   19   16 1    
    31   18   17 1    
    32   32   17 1    
    33   33   17 1    
    34   34   18 1    
    35   35   18 1    
    36   36   19 1    
    37   37   19 1    
    38   21   20 2    
    39   38   20 1    
    40   22   21 1    
    41   23   22 1    
    42   24   23 ar   
    43   28   23 ar   
    44   25   24 ar   
    45   26   25 ar   
    46   39   25 1    
    47   27   26 ar   
    48   28   27 ar   
    49   40   27 1    
@<TRIPOS>SUBSTRUCTURE
     1 WYF1        1 GROUP   
@<TRIPOS>SET

