#    Name: 2gna_GDU_2_INTS_M
#    Modification time : Tue Mar 25 14:50:25 2014

@<TRIPOS>MOLECULE
2gna_GDU_2_INTS_M
   52     0     9     0     0
SMALL
NO_CHARGES


@<TRIPOS>ATOM
      1 O          42.9650   55.1175   -5.2035 O.2       1 ALC1        0.0000 
      2 O          41.8690   55.7670   -4.6240 O.2       7 ALL1        0.0000 
      3 O          44.0610   54.4680   -5.7830 O.2       4 ALP1        0.0000 
      4 CA         41.1460   53.6905   -3.5860 C.3       3 GLC5        0.0000 
      5 CA         39.6310   55.1800   -3.8510 C.3       9 GLL5        0.0000 
      6 CA         42.6610   52.2010   -3.3210 C.3       6 GLP5        0.0000 
      7 N          43.2300   58.1150   -5.2120 N.am      2 SEC2        0.0000 
      8 N          42.9390   57.5210   -3.6790 N.am      8 SEL2        0.0000 
      9 N          43.5210   58.7090   -6.7450 N.am      5 SEP2        0.0000 
     10 CA         42.0925   57.5125   -0.7665 C.3       3 GLC5        0.0000 
     11 CA         40.8890   58.1390   -1.9260 C.3       9 GLL5        0.0000 
     12 CA         43.2960   56.8860    0.3930 C.3       6 GLP5        0.0000 
     13 CA         40.2335   59.2325   -4.4140 C.3       3 GLC5        0.0000 
     14 CA         39.8910   59.2290   -2.2020 C.3       9 GLL5        0.0000 
     15 CA         40.5760   59.2360   -6.6260 C.3       6 GLP5        0.0000 
     16 N          41.2450   60.3495   -4.0780 N.am      2 SEC2        0.0000 
     17 N          40.4900   60.2240   -3.0260 N.am      8 SEL2        0.0000 
     18 N          42.0000   60.4750   -5.1300 N.am      5 SEP2        0.0000 
     19 O          39.0105   60.4510   -3.3680 O.2       1 ALC1        0.0000 
     20 O          40.4900   60.2240   -3.0260 O.2       7 ALL1        0.0000 
     21 O          37.5310   60.6780   -3.7100 O.2       4 ALP1        0.0000 
     22 CA         40.3570   60.1525    1.5940 C.3       3 GLC5        0.0000 
     23 CA         39.8710   58.6740    0.1020 C.3       9 GLL5        0.0000 
     24 CA         40.8430   61.6310    3.0860 C.3       6 GLP5        0.0000 
     25 CA         41.5835   57.7800    0.2475 C.3       3 GLC5        0.0000 
     26 CA         39.3290   56.0645    0.8560 C.3       3 GLC5        0.0000 
     27 CA         38.6140   58.0320    0.6440 C.3       9 GLL5        0.0000 
     28 CA         40.0440   54.0970    1.0680 C.3       6 GLP5        0.0000 
     29 N          37.4670   54.1860    1.8965 N.am      2 SEC2        0.0000 
     30 N          37.0080   55.5360    2.5270 N.am      8 SEL2        0.0000 
     31 N          37.9260   52.8360    1.2660 N.am      5 SEP2        0.0000 
     32 CA         30.0320   55.3465   -1.9155 C.3       3 GLC5        0.0000 
     33 CA         31.6130   55.8840   -0.8540 C.3       9 GLL5        0.0000 
     34 CA         28.4510   54.8090   -2.9770 C.3       6 GLP5        0.0000 
     35 N          32.8215   53.4700    5.4990 N.am      2 SEC2        0.0000 
     36 N          33.0680   54.2510    4.2840 N.am      8 SEL2        0.0000 
     37 N          32.5750   52.6890    6.7140 N.am      5 SEP2        0.0000 
     38 N          29.9315   53.7050    4.2875 N.am      2 SEC2        0.0000 
     39 N          30.6770   53.1020    3.0720 N.am      8 SEL2        0.0000 
     40 N          29.1860   54.3080    5.5030 N.am      5 SEP2        0.0000 
     41 O          30.9115   51.5270    3.1385 O.2       1 ALC1        0.0000 
     42 O          30.6770   53.1020    3.0720 O.2       7 ALL1        0.0000 
     43 O          31.1460   49.9520    3.2050 O.2       4 ALP1        0.0000 
     44 CA         41.3390   60.9757   -1.5812 C.3       3 GLC5        0.0000 
     45 CA         39.5330   59.7780   -0.8690 C.3       9 GLL5        0.0000 
     46 CA         42.9660   62.4480   -1.6270 C.3       6 GLP5        0.0000 
     47 CA         30.1040   54.5947    3.6717 C.3       3 GLC5        0.0000 
     48 CA         32.2670   54.8790    3.2910 C.3       9 GLL5        0.0000 
     49 CA         28.2220   54.8520    4.5120 C.3       6 GLP5        0.0000 
     50 CA         34.0195   53.5954    2.8946 C.3       3 GLC5        0.0000 
     51 CA         31.7050   53.7960    2.3720 C.3       9 GLL5        0.0000 
     52 CA         35.8350   52.6040    3.1480 C.3       6 GLP5        0.0000 
@<TRIPOS>BOND
@<TRIPOS>SUBSTRUCTURE
     1 ALC1        1 GROUP        1 X    ALC  0     ROOT ALC X 1
     2 SEC2        7 GROUP        1 X    SEC  0     **** SEC X 2
     3 GLC5        4 GROUP        1 X    GLC  0     **** GLC X 6
     4 ALP1        3 GROUP        1 Y    ALP  0     ROOT ALP Y 8
     5 SEP2        9 GROUP        1 Y    SEP  0     **** SEP Y 9
     6 GLP5        6 GROUP        1 Y    GLP  0     **** GLP Y 13
     7 ALL1        2 GROUP        1 Z    ALL  0     ROOT ALL Z 15
     8 SEL2        8 GROUP        1 Z    SEL  0     **** SEL Z 16
     9 GLL5        5 GROUP        1 Z    GLL  0     **** GLL Z 20
@<TRIPOS>SET

