#    Name: 2gna_GDU_2_ligand
#    Modification time : Tue Mar 25 14:50:25 2014

@<TRIPOS>MOLECULE
2gna_GDU_2_ligand
   58    60     1     0     0
SMALL
NO_CHARGES


@<TRIPOS>ATOM
      1 N1         40.8440   57.0330   -2.9020 N.am      1 GDU335      0.0000 
      2 C2         41.9470   56.8210   -3.7290 C.2       1 GDU335      0.0000 
      3 N3         41.8690   55.7670   -4.6240 N.am      1 GDU335      0.0000 
      4 C4         40.7860   54.9000   -4.7690 C.2       1 GDU335      0.0000 
      5 C5         39.6310   55.1800   -3.8510 C.2       1 GDU335      0.0000 
      6 C6         39.7400   56.2230   -2.9860 C.2       1 GDU335      0.0000 
      7 O2         42.9390   57.5210   -3.6790 O.2       1 GDU335      0.0000 
      8 O4         40.7800   53.9830   -5.5800 O.2       1 GDU335      0.0000 
      9 C1D        40.8890   58.1390   -1.9260 C.3       1 GDU335      0.0000 
     10 C2D        39.8910   59.2290   -2.2020 C.3       1 GDU335      0.0000 
     11 O2D        40.4900   60.2240   -3.0260 O.3       1 GDU335      0.0000 
     12 C3D        39.5330   59.7780   -0.8690 C.3       1 GDU335      0.0000 
     13 C4D        39.8710   58.6740    0.1020 C.3       1 GDU335      0.0000 
     14 O4D        40.6260   57.6820   -0.5950 O.3       1 GDU335      0.0000 
     15 O3D        40.3700   60.8920   -0.5710 O.3       1 GDU335      0.0000 
     16 C5D        38.6140   58.0320    0.6440 C.3       1 GDU335      0.0000 
     17 O5D        37.9430   57.4050   -0.4230 O.3       1 GDU335      0.0000 
     18 PA         36.3450   57.6500   -0.5260 P.3       1 GDU335      0.0000 
     19 O1A        35.8300   59.1000   -0.0360 O.co2     1 GDU335      0.0000 
     20 O2A        36.0000   57.3110   -2.0690 O.co2     1 GDU335      0.0000 
     21 O3A        35.7330   56.4100    0.2910 O.3       1 GDU335      0.0000 
     22 PB         35.6640   56.1680    1.8830 P.3       1 GDU335      0.0000 
     23 O1B        37.0080   55.5360    2.5270 O.co2     1 GDU335      0.0000 
     24 O2B        35.2730   57.6280    2.4760 O.co2     1 GDU335      0.0000 
     25 O3B        34.3240   55.2480    2.0550 O.3       1 GDU335      0.0000 
     26 C1'        33.1390   55.8760    2.5300 C.3       1 GDU335      0.0000 
     27 C2'        32.2670   54.8790    3.2910 C.3       1 GDU335      0.0000 
     28 C3'        31.7050   53.7960    2.3720 C.3       1 GDU335      0.0000 
     29 C4'        31.1150   54.3890    1.0930 C.3       1 GDU335      0.0000 
     30 C5'        32.1650   55.2770    0.4220 C.3       1 GDU335      0.0000 
     31 C6'        31.6130   55.8840   -0.8540 C.3       1 GDU335      0.0000 
     32 O2'        33.0680   54.2510    4.2840 O.3       1 GDU335      0.0000 
     33 O3'        30.6770   53.1020    3.0720 O.3       1 GDU335      0.0000 
     34 O4'        29.9740   55.1880    1.4350 O.3       1 GDU335      0.0000 
     35 O5'        32.5240   56.3490    1.3110 O.3       1 GDU335      0.0000 
     36 O6'        32.6630   55.9160   -1.8150 O.3       1 GDU335      0.0000 
     37 H          42.7109   55.6000   -5.2615 H         1 GDU335      0.0000 
     38 H          38.8324   54.5776   -3.9246 H         1 GDU335      0.0000 
     39 H          38.9250   56.4270   -2.3346 H         1 GDU335      0.0000 
     40 H          41.8861   58.6025   -1.9483 H         1 GDU335      0.0000 
     41 H          39.0283   58.7898   -2.6476 H         1 GDU335      0.0000 
     42 H          38.5134   59.9887   -0.8167 H         1 GDU335      0.0000 
     43 H          40.4332   59.0845    0.9164 H         1 GDU335      0.0000 
     44 H          38.0085   58.8159    1.1093 H         1 GDU335      0.0000 
     45 H          38.9071   57.3211    1.4227 H         1 GDU335      0.0000 
     46 H          33.3834   56.6995    3.1653 H         1 GDU335      0.0000 
     47 H          31.4464   55.4108    3.7366 H         1 GDU335      0.0000 
     48 H          32.5054   53.1286    2.1024 H         1 GDU335      0.0000 
     49 H          30.8616   53.5952    0.4306 H         1 GDU335      0.0000 
     50 H          33.0186   54.6765    0.1782 H         1 GDU335      0.0000 
     51 H          31.2432   56.8833   -0.6219 H         1 GDU335      0.0000 
     52 H          30.7753   55.2702   -1.1868 H         1 GDU335      0.0000 
     53 H          39.7280   60.6466   -3.5167 H         1 GDU335      0.0000 
     54 H          40.8726   61.0714   -1.4167 H         1 GDU335      0.0000 
     55 H          33.8999   53.9698    3.8055 H         1 GDU335      0.0000 
     56 H          30.9210   52.1350    2.9980 H         1 GDU335      0.0000 
     57 H          29.6116   54.7769    2.2715 H         1 GDU335      0.0000 
     58 H          33.4967   56.0625   -1.2825 H         1 GDU335      0.0000 
@<TRIPOS>BOND
     1    2    1 1    
     2    6    1 1    
     3    9    1 1    
     4    3    2 1    
     5    7    2 2    
     6    4    3 1    
     7   37    3 1    
     8    5    4 1    
     9    8    4 2    
    10    6    5 2    
    11   38    5 1    
    12   39    6 1    
    13   10    9 1    
    14   14    9 1    
    15   40    9 1    
    16   11   10 1    
    17   12   10 1    
    18   41   10 1    
    19   53   11 1    
    20   13   12 1    
    21   15   12 1    
    22   42   12 1    
    23   14   13 1    
    24   16   13 1    
    25   43   13 1    
    26   54   15 1    
    27   17   16 1    
    28   44   16 1    
    29   45   16 1    
    30   18   17 1    
    31   19   18 ar   
    32   20   18 ar   
    33   21   18 1    
    34   22   21 1    
    35   23   22 ar   
    36   24   22 ar   
    37   25   22 1    
    38   26   25 1    
    39   27   26 1    
    40   35   26 1    
    41   46   26 1    
    42   28   27 1    
    43   32   27 1    
    44   47   27 1    
    45   29   28 1    
    46   33   28 1    
    47   48   28 1    
    48   30   29 1    
    49   34   29 1    
    50   49   29 1    
    51   31   30 1    
    52   35   30 1    
    53   50   30 1    
    54   36   31 1    
    55   51   31 1    
    56   52   31 1    
    57   55   32 1    
    58   56   33 1    
    59   57   34 1    
    60   58   36 1    
@<TRIPOS>SUBSTRUCTURE
     1 GDU335      1 GROUP   
@<TRIPOS>SET

