#    Name: 3nw9_637_1_INTS_M
#    Modification time : Tue Mar 25 02:47:33 2014

@<TRIPOS>MOLECULE
3nw9_637_1_INTS_M
  103     0    12     0     0
SMALL
NO_CHARGES


@<TRIPOS>ATOM
      1 CA         -3.1030   22.0040   12.6810 C.3       4 GLC5        0.0000 
      2 CA         -4.5520   21.3580   13.8700 C.3      12 GLL5        0.0000 
      3 CA         -1.6540   22.6500   11.4920 C.3       8 GLP5        0.0000 
      4 CA         -4.1830   20.6370   11.8135 C.3       4 GLC5        0.0000 
      5 CA         -3.8140   19.9160    9.7570 C.3       8 GLP5        0.0000 
      6 O          -5.2010   22.9475   15.9605 O.2       1 ALC1        0.0000 
      7 O          -5.6940   21.8020   15.9520 O.2       9 ALL1        0.0000 
      8 O          -4.7080   24.0930   15.9690 O.2       5 ALP1        0.0000 
      9 CA         -3.5985   21.3910   17.6310 C.3       4 GLC5        0.0000 
     10 CA         -3.6080   20.4670   15.8680 C.3      12 GLL5        0.0000 
     11 CA         -3.5890   22.3150   19.3940 C.3       8 GLP5        0.0000 
     12 O          -2.7900   22.7435   15.6860 O.2       1 ALC1        0.0000 
     13 O          -2.8750   21.6380   16.2560 O.2       9 ALL1        0.0000 
     14 O          -2.7050   23.8490   15.1160 O.2       5 ALP1        0.0000 
     15 CA         -2.2820   21.2810   13.0640 C.3       4 GLC5        0.0000 
     16 CA         -2.9100   19.9120   14.6360 C.3      12 GLL5        0.0000 
     17 CA         -9.1920   19.9545   10.6830 C.3       4 GLC5        0.0000 
     18 CA         -8.7350   21.6300    9.2800 C.3      12 GLL5        0.0000 
     19 CA         -9.6490   18.2790   12.0860 C.3       8 GLP5        0.0000 
     20 CA         -8.8220   19.6600    8.4130 C.3       4 GLC5        0.0000 
     21 CA         -8.9090   17.6900    7.5460 C.3       8 GLP5        0.0000 
     22 CA         -7.3440   22.7880   13.0895 C.3       4 GLC5        0.0000 
     23 CA         -6.1200   22.1500   11.9970 C.3      12 GLL5        0.0000 
     24 CA         -8.5680   23.4260   14.1820 C.3       8 GLP5        0.0000 
     25 CA         -2.0065   14.9945   12.1880 C.3       4 GLC5        0.0000 
     26 CA         -2.8960   16.2620   13.5590 C.3      12 GLL5        0.0000 
     27 CA         -1.1170   13.7270   10.8170 C.3       8 GLP5        0.0000 
     28 CA         -0.0820   11.8540   13.3970 C.3       4 GLC5        0.0000 
     29 CA         -0.3160   13.7300   14.4410 C.3      12 GLL5        0.0000 
     30 CA          0.1520    9.9780   12.3530 C.3       8 GLP5        0.0000 
     31 CA         -0.7600   11.0785   14.0965 C.3       4 GLC5        0.0000 
     32 CA         -0.3280   12.5350   15.1860 C.3      12 GLL5        0.0000 
     33 CA         -1.1920    9.6220   13.0070 C.3       8 GLP5        0.0000 
     34 CA          3.5885   11.0005   14.8485 C.3       4 GLC5        0.0000 
     35 CA          2.0970   12.2920   14.9480 C.3      12 GLL5        0.0000 
     36 CA          5.0800    9.7090   14.7490 C.3       8 GLP5        0.0000 
     37 CA          0.8785    9.7630   14.1135 C.3       4 GLC5        0.0000 
     38 CA          1.6050    9.5480   15.8740 C.3      12 GLL5        0.0000 
     39 CA          3.3425    9.6285   15.3115 C.3       4 GLC5        0.0000 
     40 CA          3.4650    8.0780   16.4870 C.3       4 GLC5        0.0000 
     41 CA          1.5960    8.3670   16.6280 C.3      12 GLL5        0.0000 
     42 CA          5.3340    7.7890   16.3460 C.3       8 GLP5        0.0000 
     43 Zn          1.9480   15.3925   12.7365 Zn        3 ZIC7        0.0000 
     44 Zn          1.0200   15.3210   13.2110 Zn       11 ZIL7        0.0000 
     45 Zn          2.8760   15.4640   12.2620 Zn        7 ZIP7        0.0000 
     46 N           0.2405   15.2140   11.9610 N.am      2 SEC2        0.0000 
     47 N           1.0200   15.3210   13.2110 N.am     10 SEL2        0.0000 
     48 N          -0.5390   15.1070   10.7110 N.am      6 SEP2        0.0000 
     49 Zn          3.0890   14.7110   12.9960 Zn        3 ZIC7        0.0000 
     50 Zn          3.3020   13.9580   13.7300 Zn       11 ZIL7        0.0000 
     51 N           3.3860   13.0740   12.7015 N.am      2 SEC2        0.0000 
     52 N           3.3020   13.9580   13.7300 N.am     10 SEL2        0.0000 
     53 N           3.4700   12.1900   11.6730 N.am      6 SEP2        0.0000 
     54 O           4.0170   13.9020   14.6665 O.2       1 ALC1        0.0000 
     55 O           3.3020   13.9580   13.7300 O.2       9 ALL1        0.0000 
     56 O           4.7320   13.8460   15.6030 O.2       5 ALP1        0.0000 
     57 N          -8.0090   24.4050    9.0860 N.am      2 SEC2        0.0000 
     58 N          -7.3920   23.5200   10.1170 N.am     10 SEL2        0.0000 
     59 N          -8.6260   25.2900    8.0550 N.am      6 SEP2        0.0000 
     60 CA         -5.4145   25.2805   12.1790 C.3       4 GLC5        0.0000 
     61 CA         -6.4840   24.1120   10.9600 C.3      12 GLL5        0.0000 
     62 CA         -4.3450   26.4490   13.3980 C.3       8 GLP5        0.0000 
     63 CA         -7.6490   24.4495   12.3140 C.3       4 GLC5        0.0000 
     64 CA         -8.8140   24.7870   13.6680 C.3       8 GLP5        0.0000 
     65 CA         -8.2325   24.9970   10.4520 C.3       4 GLC5        0.0000 
     66 CA         -9.9810   25.8820    9.9440 C.3       8 GLP5        0.0000 
     67 CA         -6.7275   24.2585    8.7400 C.3       4 GLC5        0.0000 
     68 CA         -6.9710   24.4050    6.5200 C.3       8 GLP5        0.0000 
     69 N          -6.1895   24.5640   12.9255 N.am      2 SEC2        0.0000 
     70 N          -5.8100   23.4560   11.9050 N.am     10 SEL2        0.0000 
     71 N          -6.5690   25.6720   13.9460 N.am      6 SEP2        0.0000 
     72 CA         -3.0445   18.9657   12.4420 C.3       4 GLC5        0.0000 
     73 CA         -3.2600   18.4530   14.5480 C.3      12 GLL5        0.0000 
     74 CA         -3.0040   18.7490   10.2920 C.3       8 GLP5        0.0000 
     75 CA         -9.0938   23.9017    9.8410 C.3       4 GLC5        0.0000 
     76 CA         -7.6780   22.2130   10.1960 C.3      12 GLL5        0.0000 
     77 CA         -7.5888   23.1632    8.1290 C.3       4 GLC5        0.0000 
     78 CA         -6.7482   21.1183    8.6960 C.3       4 GLC5        0.0000 
     79 CA         -5.2900   20.3150    7.6540 C.3       8 GLP5        0.0000 
     80 CA         -5.1840   20.8615   10.6695 C.3       4 GLC5        0.0000 
     81 CA         -6.9880   21.4640   11.1670 C.3      12 GLL5        0.0000 
     82 CA         -8.6511   21.9929   11.8543 C.3       4 GLC5        0.0000 
     83 CA         -9.7050   22.2930   13.2560 C.3       8 GLP5        0.0000 
     84 CA         -2.4777   18.3926   16.4350 C.3       4 GLC5        0.0000 
     85 CA         -1.6960   17.4640   17.9700 C.3       8 GLP5        0.0000 
     86 CA         -1.7348   16.5403   15.4488 C.3       4 GLC5        0.0000 
     87 CA         -0.7360   16.1020   17.2510 C.3       8 GLP5        0.0000 
     88 CA         -2.8688   17.8637   11.9692 C.3       4 GLC5        0.0000 
     89 CA         -2.5710   17.6950   13.7340 C.3      12 GLL5        0.0000 
     90 CA         -4.8574   16.8275   13.6785 C.3       4 GLC5        0.0000 
     91 CA         -6.8090   16.4870   13.5070 C.3       8 GLP5        0.0000 
     92 CA         -0.5290   14.6173   16.0322 C.3       4 GLC5        0.0000 
     93 CA         -0.4130   13.8373   12.4975 C.3       4 GLC5        0.0000 
     94 CA          1.6585   13.6680   16.4030 C.3       4 GLC5        0.0000 
     95 CA          0.8530   11.8320   15.4240 C.3      12 GLL5        0.0000 
     96 CA          1.8420   15.2740   17.6200 C.3       8 GLP5        0.0000 
     97 CA         -0.4402   10.0897   14.8802 C.3       4 GLC5        0.0000 
     98 CA          0.7630   10.5780   16.2320 C.3      12 GLL5        0.0000 
     99 CA          1.8832    7.7108   14.8335 C.3       4 GLC5        0.0000 
    100 CA          2.1660    6.4640   13.4160 C.3       8 GLP5        0.0000 
    101 CA          1.6650   14.5490   15.8420 C.3       4 GLC5        0.0000 
    102 CA          2.0780   13.4830   14.2130 C.3      12 GLL5        0.0000 
    103 CA          0.9643   11.3752   13.5263 C.3       4 GLC5        0.0000 
@<TRIPOS>BOND
@<TRIPOS>SUBSTRUCTURE
     1 ALC1        6 GROUP        1 X    ALC  0     ROOT ALC X 1
     2 SEC2       46 GROUP        1 X    SEC  0     **** SEC X 2
     3 ZIC7       43 GROUP        1 X    ZIC  0     **** ZIC X 5
     4 GLC5        1 GROUP        1 X    GLC  0     **** GLC X 6
     5 ALP1        8 GROUP        1 Y    ALP  0     ROOT ALP Y 8
     6 SEP2       48 GROUP        1 Y    SEP  0     **** SEP Y 9
     7 ZIP7       45 GROUP        1 Y    ZIP  0     **** ZIP Y 12
     8 GLP5        3 GROUP        1 Y    GLP  0     **** GLP Y 13
     9 ALL1        7 GROUP        1 Z    ALL  0     ROOT ALL Z 15
    10 SEL2       47 GROUP        1 Z    SEL  0     **** SEL Z 16
    11 ZIL7       44 GROUP        1 Z    ZIL  0     **** ZIL Z 19
    12 GLL5        2 GROUP        1 Z    GLL  0     **** GLL Z 20
@<TRIPOS>SET

