#    Name: 3nw9_637_1_ligand
#    Modification time : Tue Mar 25 02:47:33 2014

@<TRIPOS>MOLECULE
3nw9_637_1_ligand
   61    65     1     0     0
SMALL
NO_CHARGES


@<TRIPOS>ATOM
      1 C1         -4.5520   21.3580   13.8700 C.3       1 637228      0.0000 
      2 C2         -4.9640   20.7930   15.2380 C.3       1 637228      0.0000 
      3 O3         -5.6940   21.8020   15.9520 O.3       1 637228      0.0000 
      4 C4         -3.6080   20.4670   15.8680 C.3       1 637228      0.0000 
      5 O5         -2.8750   21.6380   16.2560 O.3       1 637228      0.0000 
      6 C6         -2.9100   19.9120   14.6360 C.3       1 637228      0.0000 
      7 C7         -8.7350   21.6300    9.2800 C.3       1 637228      0.0000 
      8 N8         -7.0700   20.1570   11.5080 N.2       1 637228      0.0000 
      9 C9         -6.2490   19.9830   12.4920 C.2       1 637228      0.0000 
     10 N10        -5.6170   21.1970   12.8620 N.pl3     1 637228      0.0000 
     11 C11        -6.1200   22.1500   11.9970 C.ar      1 637228      0.0000 
     12 C12        -6.9880   21.4640   11.1670 C.ar      1 637228      0.0000 
     13 O13        -3.3990   20.6230   13.4490 O.3       1 637228      0.0000 
     14 C14        -3.2600   18.4530   14.5480 C.2       1 637228      0.0000 
     15 C15        -2.5710   17.6950   13.7340 C.2       1 637228      0.0000 
     16 C16        -2.8960   16.2620   13.5590 C.3       1 637228      0.0000 
     17 N17        -1.5760   15.6450   13.6800 N.am      1 637228      0.0000 
     18 C18        -1.6050   14.3830   14.2030 C.2       1 637228      0.0000 
     19 O19        -2.6650   13.8920   14.6020 O.2       1 637228      0.0000 
     20 C20        -0.3160   13.7300   14.4410 C.ar      1 637228      0.0000 
     21 C21        -0.3280   12.5350   15.1860 C.ar      1 637228      0.0000 
     22 C22         0.8530   11.8320   15.4240 C.ar      1 637228      0.0000 
     23 C23         2.0970   12.2920   14.9480 C.ar      1 637228      0.0000 
     24 C24         0.7630   10.5780   16.2320 C.ar      1 637228      0.0000 
     25 C25        -0.1400   10.5370   17.2750 C.ar      1 637228      0.0000 
     26 C26        -0.1850    9.3640   18.0230 C.ar      1 637228      0.0000 
     27 C27         1.6050    9.5480   15.8740 C.ar      1 637228      0.0000 
     28 C28         1.5960    8.3670   16.6280 C.ar      1 637228      0.0000 
     29 C29         0.6690    8.3320   17.6380 C.ar      1 637228      0.0000 
     30 F30         0.7100    7.1280   18.3450 F         1 637228      0.0000 
     31 C31         0.8980   14.1650   13.9150 C.ar      1 637228      0.0000 
     32 O32         1.0200   15.3210   13.2110 O.3       1 637228      0.0000 
     33 C33         2.0780   13.4830   14.2130 C.ar      1 637228      0.0000 
     34 O34         3.3020   13.9580   13.7300 O.3       1 637228      0.0000 
     35 C35        -7.6780   22.2130   10.1960 C.ar      1 637228      0.0000 
     36 N38        -7.3920   23.5200   10.1170 N.ar      1 637228      0.0000 
     37 C39        -6.4840   24.1120   10.9600 C.ar      1 637228      0.0000 
     38 N40        -5.8100   23.4560   11.9050 N.ar      1 637228      0.0000 
     39 H          -4.3103   22.3952   13.9996 H         1 637228      0.0000 
     40 H          -5.4925   19.9025   15.0730 H         1 637228      0.0000 
     41 H          -3.7010   19.7290   16.5634 H         1 637228      0.0000 
     42 H          -1.8626   20.0244   14.7541 H         1 637228      0.0000 
     43 H          -6.0422   19.1459   12.9679 H         1 637228      0.0000 
     44 H          -4.0266   18.1500   15.1420 H         1 637228      0.0000 
     45 H          -1.7689   18.0344   13.1678 H         1 637228      0.0000 
     46 H          -3.3066   16.0941   12.5907 H         1 637228      0.0000 
     47 H          -3.5418   15.9339   14.3397 H         1 637228      0.0000 
     48 H          -0.7759   16.1309   13.3990 H         1 637228      0.0000 
     49 H          -1.2212   12.1812   15.5565 H         1 637228      0.0000 
     50 H           2.9422   11.7929   15.1275 H         1 637228      0.0000 
     51 H          -0.7414   11.3172   17.4896 H         1 637228      0.0000 
     52 H          -0.8075    9.2644   18.8087 H         1 637228      0.0000 
     53 H           2.2319    9.6337   15.0709 H         1 637228      0.0000 
     54 H           2.2217    7.6181   16.4333 H         1 637228      0.0000 
     55 H          -6.3196   25.1597   10.8385 H         1 637228      0.0000 
     56 H          -8.3689   20.8924    8.7127 H         1 637228      0.0000 
     57 H          -9.5038   21.2501    9.7945 H         1 637228      0.0000 
     58 H          -9.1095   22.3189    8.6593 H         1 637228      0.0000 
     59 H          -4.9984   22.4414   16.2797 H         1 637228      0.0000 
     60 H          -3.0342   22.2979   15.5217 H         1 637228      0.0000 
     61 H           3.7428   14.3861   14.5189 H         1 637228      0.0000 
@<TRIPOS>BOND
     1    2    1 1    
     2   10    1 1    
     3   13    1 1    
     4   39    1 1    
     5    3    2 1    
     6    4    2 1    
     7   40    2 1    
     8   59    3 1    
     9    5    4 1    
    10    6    4 1    
    11   41    4 1    
    12   60    5 1    
    13   13    6 1    
    14   14    6 1    
    15   42    6 1    
    16   35    7 1    
    17   56    7 1    
    18   57    7 1    
    19   58    7 1    
    20    9    8 2    
    21   12    8 1    
    22   10    9 1    
    23   43    9 1    
    24   11   10 1    
    25   12   11 ar   
    26   38   11 ar   
    27   35   12 ar   
    28   15   14 2    
    29   44   14 1    
    30   16   15 1    
    31   45   15 1    
    32   17   16 1    
    33   46   16 1    
    34   47   16 1    
    35   18   17 am   
    36   48   17 1    
    37   19   18 2    
    38   20   18 1    
    39   21   20 ar   
    40   31   20 ar   
    41   22   21 ar   
    42   49   21 1    
    43   23   22 ar   
    44   24   22 1    
    45   33   23 ar   
    46   50   23 1    
    47   25   24 ar   
    48   27   24 ar   
    49   26   25 ar   
    50   51   25 1    
    51   29   26 ar   
    52   52   26 1    
    53   28   27 ar   
    54   53   27 1    
    55   29   28 ar   
    56   54   28 1    
    57   30   29 1    
    58   32   31 1    
    59   33   31 ar   
    60   34   33 1    
    61   61   34 1    
    62   36   35 ar   
    63   37   36 ar   
    64   38   37 ar   
    65   55   37 1    
@<TRIPOS>SUBSTRUCTURE
     1 637228      1 GROUP   
@<TRIPOS>SET

