#    Name: 1sg9_SAM_1_INTS_M
#    Modification time : Tue Mar 25 02:27:00 2014

@<TRIPOS>MOLECULE
1sg9_SAM_1_INTS_M
   69     0     9     0     0
SMALL
NO_CHARGES


@<TRIPOS>ATOM
      1 O          23.7725   50.6780   68.5205 O.2       1 ALC1        0.0000 
      2 O          23.9500   49.3950   67.9910 O.2       7 ALL1        0.0000 
      3 O          23.5950   51.9610   69.0500 O.2       4 ALP1        0.0000 
      4 O          24.2295   50.0375   66.6055 O.2       1 ALC1        0.0000 
      5 O          24.5090   50.6800   65.2200 O.2       4 ALP1        0.0000 
      6 N          22.9485   46.2305   68.2685 N.am      2 SEC2        0.0000 
      7 N          23.7740   46.9980   67.0030 N.am      8 SEL2        0.0000 
      8 N          22.1230   45.4630   69.5340 N.am      5 SEP2        0.0000 
      9 CA         26.0165   47.5555   72.3335 C.3       3 GLC5        0.0000 
     10 CA         24.6790   48.8040   72.2680 C.3       9 GLL5        0.0000 
     11 CA         27.3540   46.3070   72.3990 C.3       6 GLP5        0.0000 
     12 CA         25.6150   48.9755   73.9035 C.3       3 GLC5        0.0000 
     13 CA         26.5510   49.1470   75.5390 C.3       6 GLP5        0.0000 
     14 CA         24.7370   46.0375   71.9825 C.3       3 GLC5        0.0000 
     15 CA         23.6970   47.3290   72.5550 C.3       9 GLL5        0.0000 
     16 CA         25.7770   44.7460   71.4100 C.3       6 GLP5        0.0000 
     17 CA         23.2250   45.9245   73.4435 C.3       3 GLC5        0.0000 
     18 CA         22.7530   44.5200   74.3320 C.3       6 GLP5        0.0000 
     19 CA         21.4910   49.9225   72.7750 C.3       3 GLC5        0.0000 
     20 CA         23.6860   50.1350   72.8090 C.3       9 GLL5        0.0000 
     21 CA         19.2960   49.7100   72.7410 C.3       6 GLP5        0.0000 
     22 CA         22.0320   50.4500   74.0380 C.3       3 GLC5        0.0000 
     23 CA         20.3780   50.7650   75.2670 C.3       6 GLP5        0.0000 
     24 CA         23.5655   52.7260   71.3810 C.3       3 GLC5        0.0000 
     25 CA         24.3470   51.4990   72.6360 C.3       9 GLL5        0.0000 
     26 CA         22.7840   53.9530   70.1260 C.3       6 GLP5        0.0000 
     27 CA         26.0450   50.4295   74.5515 C.3       3 GLC5        0.0000 
     28 CA         25.5390   51.7120   73.5640 C.3       9 GLL5        0.0000 
     29 O          26.4375   53.1510   71.7130 O.2       1 ALC1        0.0000 
     30 O          26.6190   51.8960   72.5990 O.2       7 ALL1        0.0000 
     31 O          26.2560   54.4060   70.8270 O.2       4 ALP1        0.0000 
     32 CA         25.3610   51.3265   75.3320 C.3       3 GLC5        0.0000 
     33 CA         25.3360   53.0390   74.2770 C.3       9 GLL5        0.0000 
     34 CA         25.3860   49.6140   76.3870 C.3       6 GLP5        0.0000 
     35 O          26.6580   54.7630   73.4930 O.2       1 ALC1        0.0000 
     36 O          26.4080   53.9340   74.4210 O.2       7 ALL1        0.0000 
     37 O          26.9080   55.5920   72.5650 O.2       4 ALP1        0.0000 
     38 CA         23.4265   53.7675   71.8530 C.3       3 GLC5        0.0000 
     39 CA         24.0690   53.5820   73.5800 C.3       9 GLL5        0.0000 
     40 CA         20.5380   58.6965   74.9700 C.3       3 GLC5        0.0000 
     41 CA         20.6070   56.7480   74.7080 C.3       9 GLL5        0.0000 
     42 CA         20.4690   60.6450   75.2320 C.3       6 GLP5        0.0000 
     43 N          19.9615   58.5265   73.0410 N.am      2 SEC2        0.0000 
     44 N          20.7340   57.4570   73.5240 N.am      8 SEL2        0.0000 
     45 N          19.1890   59.5960   72.5580 N.am      5 SEP2        0.0000 
     46 CA         20.3205   56.7265   71.4315 C.3       3 GLC5        0.0000 
     47 CA         21.6690   57.0610   72.6370 C.3       9 GLL5        0.0000 
     48 CA         18.9720   56.3920   70.2260 C.3       6 GLP5        0.0000 
     49 CA         22.2265   55.5070   71.3815 C.3       3 GLC5        0.0000 
     50 CA         23.5145   57.3675   71.8120 C.3       3 GLC5        0.0000 
     51 CA         25.3600   57.6740   70.9870 C.3       6 GLP5        0.0000 
     52 CA         22.6870   57.8400   74.1565 C.3       3 GLC5        0.0000 
     53 CA         23.7050   58.6190   75.6760 C.3       6 GLP5        0.0000 
     54 CA         21.2985   58.8955   73.2055 C.3       3 GLC5        0.0000 
     55 CA         20.9280   60.7300   73.7740 C.3       6 GLP5        0.0000 
     56 CA         19.8560   58.2505   72.1590 C.3       3 GLC5        0.0000 
     57 CA         18.0430   59.4400   71.6810 C.3       6 GLP5        0.0000 
     58 CA         22.5770   54.6460   72.0340 C.3       3 GLC5        0.0000 
     59 CA         22.3700   55.3390   73.9420 C.3       9 GLL5        0.0000 
     60 CA         26.5308   50.1230   68.9370 C.3       3 GLC5        0.0000 
     61 CA         25.3650   48.1920   69.6280 C.3       9 GLL5        0.0000 
     62 CA         27.8080   51.8950   68.9740 C.3       6 GLP5        0.0000 
     63 CA         25.7976   47.2615   70.4935 C.3       3 GLC5        0.0000 
     64 CA         26.6670   45.8120   71.2910 C.3       6 GLP5        0.0000 
     65 CA         24.7013   50.2155   74.5547 C.3       3 GLC5        0.0000 
     66 CA         25.1048   55.1363   75.0087 C.3       3 GLC5        0.0000 
     67 CA         25.5070   56.9620   76.0890 C.3       6 GLP5        0.0000 
     68 CA         22.7045   57.1912   75.0300 C.3       3 GLC5        0.0000 
     69 CA         21.4690   55.6280   74.9440 C.3       9 GLL5        0.0000 
@<TRIPOS>BOND
@<TRIPOS>SUBSTRUCTURE
     1 ALC1        1 GROUP        1 X    ALC  0     ROOT ALC X 1
     2 SEC2        6 GROUP        1 X    SEC  0     **** SEC X 2
     3 GLC5        9 GROUP        1 X    GLC  0     **** GLC X 6
     4 ALP1        3 GROUP        1 Y    ALP  0     ROOT ALP Y 8
     5 SEP2        8 GROUP        1 Y    SEP  0     **** SEP Y 9
     6 GLP5       11 GROUP        1 Y    GLP  0     **** GLP Y 13
     7 ALL1        2 GROUP        1 Z    ALL  0     ROOT ALL Z 15
     8 SEL2        7 GROUP        1 Z    SEL  0     **** SEL Z 16
     9 GLL5       10 GROUP        1 Z    GLL  0     **** GLL Z 20
@<TRIPOS>SET

