#    Name: 1sg9_SAM_1_ligand
#    Modification time : Tue Mar 25 02:27:00 2014

@<TRIPOS>MOLECULE
1sg9_SAM_1_ligand
   50    52     1     0     0
SMALL
NO_CHARGES


@<TRIPOS>ATOM
      1 N          23.9500   49.3950   67.9910 N.4       1 SAM301      0.0000 
      2 CA         25.1420   48.5100   68.1720 C.3       1 SAM301      0.0000 
      3 C          24.8790   47.1940   67.5320 C.2       1 SAM301      0.0000 
      4 O          23.7740   46.9980   67.0030 O.co2     1 SAM301      0.0000 
      5 OXT        25.8540   46.3730   67.6170 O.co2     1 SAM301      0.0000 
      6 CB         25.3650   48.1920   69.6280 C.3       1 SAM301      0.0000 
      7 CG         24.6030   49.0710   70.4920 C.3       1 SAM301      0.0000 
      8 SD         24.6790   48.8040   72.2680 S.3       1 SAM301      0.0000 
      9 CE         23.6970   47.3290   72.5550 C.3       1 SAM301      0.0000 
     10 C5'        23.6860   50.1350   72.8090 C.3       1 SAM301      0.0000 
     11 C4'        24.3470   51.4990   72.6360 C.3       1 SAM301      0.0000 
     12 O4'        23.4070   52.4580   73.0710 O.3       1 SAM301      0.0000 
     13 C3'        25.5390   51.7120   73.5640 C.3       1 SAM301      0.0000 
     14 O3'        26.6190   51.8960   72.5990 O.3       1 SAM301      0.0000 
     15 C2'        25.3360   53.0390   74.2770 C.3       1 SAM301      0.0000 
     16 O2'        26.4080   53.9340   74.4210 O.3       1 SAM301      0.0000 
     17 C1'        24.0690   53.5820   73.5800 C.3       1 SAM301      0.0000 
     18 N9         23.0590   54.2320   74.3750 N.pl3     1 SAM301      0.0000 
     19 C8         22.5540   53.9220   75.6110 C.2       1 SAM301      0.0000 
     20 N7         21.5960   54.7290   76.0020 N.2       1 SAM301      0.0000 
     21 C5         21.4690   55.6280   74.9440 C.ar      1 SAM301      0.0000 
     22 C6         20.6070   56.7480   74.7080 C.ar      1 SAM301      0.0000 
     23 N6         19.6620   57.1390   75.6030 N.pl3     1 SAM301      0.0000 
     24 N1         20.7340   57.4570   73.5240 N.ar      1 SAM301      0.0000 
     25 C2         21.6690   57.0610   72.6370 C.ar      1 SAM301      0.0000 
     26 N3         22.5230   56.0220   72.7510 N.ar      1 SAM301      0.0000 
     27 C4         22.3700   55.3390   73.9420 C.ar      1 SAM301      0.0000 
     28 H          26.0110   48.9428   67.7630 H         1 SAM301      0.0000 
     29 H          26.4449   48.2753   69.8412 H         1 SAM301      0.0000 
     30 H          25.0868   47.1378   69.8008 H         1 SAM301      0.0000 
     31 H          23.5048   49.0447   70.3193 H         1 SAM301      0.0000 
     32 H          24.8915   50.1428   70.4251 H         1 SAM301      0.0000 
     33 H          23.4841   49.9021   73.8455 H         1 SAM301      0.0000 
     34 H          22.7816   50.0369   72.2244 H         1 SAM301      0.0000 
     35 H          24.6332   51.6516   71.6412 H         1 SAM301      0.0000 
     36 H          25.6712   50.9354   74.1829 H         1 SAM301      0.0000 
     37 H          24.9271   52.7271   75.3051 H         1 SAM301      0.0000 
     38 H          24.3785   54.2081   72.7541 H         1 SAM301      0.0000 
     39 H          22.9037   53.1471   76.1410 H         1 SAM301      0.0000 
     40 H          19.1297   57.9485   75.3554 H         1 SAM301      0.0000 
     41 H          19.5824   56.5827   76.4302 H         1 SAM301      0.0000 
     42 H          21.7448   57.6499   71.7178 H         1 SAM301      0.0000 
     43 H          23.1010   48.8689   67.9408 H         1 SAM301      0.0000 
     44 H          23.8496   50.0421   68.7468 H         1 SAM301      0.0000 
     45 H          24.0114   49.9333   67.1505 H         1 SAM301      0.0000 
     46 H          24.0621   46.5383   72.0635 H         1 SAM301      0.0000 
     47 H          23.6689   47.0843   73.5242 H         1 SAM301      0.0000 
     48 H          22.7505   47.4489   72.2554 H         1 SAM301      0.0000 
     49 H          26.4337   52.7796   72.1688 H         1 SAM301      0.0000 
     50 H          26.7081   54.1305   73.4875 H         1 SAM301      0.0000 
@<TRIPOS>BOND
     1    2    1 1    
     2   43    1 1    
     3   44    1 1    
     4   45    1 1    
     5    3    2 1    
     6    6    2 1    
     7   28    2 1    
     8    4    3 ar   
     9    5    3 ar   
    10    7    6 1    
    11   29    6 1    
    12   30    6 1    
    13    8    7 1    
    14   31    7 1    
    15   32    7 1    
    16    9    8 1    
    17   10    8 1    
    18   46    9 1    
    19   47    9 1    
    20   48    9 1    
    21   11   10 1    
    22   33   10 1    
    23   34   10 1    
    24   12   11 1    
    25   13   11 1    
    26   35   11 1    
    27   17   12 1    
    28   14   13 1    
    29   15   13 1    
    30   36   13 1    
    31   49   14 1    
    32   16   15 1    
    33   17   15 1    
    34   37   15 1    
    35   50   16 1    
    36   18   17 1    
    37   38   17 1    
    38   19   18 1    
    39   27   18 1    
    40   20   19 2    
    41   39   19 1    
    42   21   20 1    
    43   22   21 ar   
    44   27   21 ar   
    45   23   22 1    
    46   24   22 ar   
    47   40   23 1    
    48   41   23 1    
    49   25   24 ar   
    50   26   25 ar   
    51   42   25 1    
    52   27   26 ar   
@<TRIPOS>SUBSTRUCTURE
     1 SAM301      1 GROUP   
@<TRIPOS>SET

