#    Name: 1bxk_NAD_2_INTS_M
#    Modification time : Mon Mar 24 19:55:30 2014

@<TRIPOS>MOLECULE
1bxk_NAD_2_INTS_M
  104     0     9     0     0
SMALL
NO_CHARGES


@<TRIPOS>ATOM
      1 N          45.0210   47.5000   29.1065 N.am      2 SEC2        0.0000 
      2 N          44.3270   47.1710   27.8270 N.am      8 SEL2        0.0000 
      3 N          45.7150   47.8290   30.3860 N.am      5 SEP2        0.0000 
      4 CA         44.7440   44.0940   26.3010 C.3       3 GLC5        0.0000 
      5 CA         43.4310   43.4560   27.9870 C.3       9 GLL5        0.0000 
      6 CA         46.0570   44.7320   24.6150 C.3       6 GLP5        0.0000 
      7 CA         44.2430   41.6670   30.1855 C.3       3 GLC5        0.0000 
      8 CA         44.4380   42.4920   28.5480 C.3       9 GLL5        0.0000 
      9 CA         44.0480   40.8420   31.8230 C.3       6 GLP5        0.0000 
     10 O          46.8430   41.6470   29.6720 O.2       1 ALC1        0.0000 
     11 O          46.8760   42.6830   28.6400 O.2       7 ALL1        0.0000 
     12 O          46.8100   40.6110   30.7040 O.2       4 ALP1        0.0000 
     13 CA         45.9245   40.1020   25.1920 C.3       3 GLC5        0.0000 
     14 CA         45.7320   41.1480   26.9500 C.3       9 GLL5        0.0000 
     15 CA         46.1170   39.0560   23.4340 C.3       6 GLP5        0.0000 
     16 N          47.8930   40.0900   25.8265 N.am      2 SEC2        0.0000 
     17 N          47.0300   40.5500   26.8670 N.am      8 SEL2        0.0000 
     18 N          48.7560   39.6300   24.7860 N.am      5 SEP2        0.0000 
     19 N          46.8250   40.9360   25.4125 N.am      2 SEC2        0.0000 
     20 N          46.6200   41.3220   23.9580 N.am      5 SEP2        0.0000 
     21 O          47.5090   39.9725   28.0115 O.2       1 ALC1        0.0000 
     22 O          47.0300   40.5500   26.8670 O.2       7 ALL1        0.0000 
     23 O          47.9880   39.3950   29.1560 O.2       4 ALP1        0.0000 
     24 CA         44.4195   40.5580   29.8090 C.3       3 GLC5        0.0000 
     25 CA         44.7910   40.2740   27.7950 C.3       9 GLL5        0.0000 
     26 CA         43.0265   39.5200   28.9260 C.3       3 GLC5        0.0000 
     27 CA         41.2620   38.7660   30.0570 C.3       6 GLP5        0.0000 
     28 CA         44.0170   33.8960   27.2480 C.3       3 GLC5        0.0000 
     29 CA         43.1020   35.8170   26.6370 C.3       9 GLL5        0.0000 
     30 CA         44.9320   31.9750   27.8590 C.3       6 GLP5        0.0000 
     31 CA         41.6925   35.0040   27.5925 C.3       3 GLC5        0.0000 
     32 CA         40.2830   34.1910   28.5480 C.3       6 GLP5        0.0000 
     33 O          42.6530   33.7055   25.7955 O.2       1 ALC1        0.0000 
     34 O          42.3930   35.1380   25.7170 O.2       7 ALL1        0.0000 
     35 O          42.9130   32.2730   25.8740 O.2       4 ALP1        0.0000 
     36 O          41.4230   35.7895   24.6040 O.2       1 ALC1        0.0000 
     37 O          40.4530   36.4410   23.4910 O.2       4 ALP1        0.0000 
     38 N          43.1765   33.8515   28.2465 N.am      2 SEC2        0.0000 
     39 N          43.6170   35.2190   27.7570 N.am      8 SEL2        0.0000 
     40 N          42.7360   32.4840   28.7360 N.am      5 SEP2        0.0000 
     41 CA         45.8060   36.5910   29.8360 C.3       3 GLC5        0.0000 
     42 CA         44.3120   35.9720   28.6510 C.3       9 GLL5        0.0000 
     43 CA         47.3000   37.2100   31.0210 C.3       6 GLP5        0.0000 
     44 CA         45.7130   35.5175   27.7350 C.3       3 GLC5        0.0000 
     45 CA         47.1140   35.0630   26.8190 C.3       6 GLP5        0.0000 
     46 CA         44.6220   33.9735   28.2550 C.3       3 GLC5        0.0000 
     47 CA         42.9240   35.0560   29.6865 C.3       3 GLC5        0.0000 
     48 CA         41.5360   34.1400   30.7220 C.3       6 GLP5        0.0000 
     49 CA         42.7870   37.3690   29.3540 C.3       3 GLC5        0.0000 
     50 N          46.0715   36.8170   28.7080 N.am      2 SEC2        0.0000 
     51 N          44.5700   37.2630   28.5900 N.am      8 SEL2        0.0000 
     52 N          47.5730   36.3710   28.8260 N.am      5 SEP2        0.0000 
     53 CA         45.4120   36.7970   26.4875 C.3       3 GLC5        0.0000 
     54 CA         44.0310   37.8490   27.4820 C.3       9 GLL5        0.0000 
     55 CA         46.7930   35.7450   25.4930 C.3       6 GLP5        0.0000 
     56 N          42.8965   48.1905   31.3245 N.am      2 SEC2        0.0000 
     57 N          42.1640   47.5010   30.3680 N.am      8 SEL2        0.0000 
     58 N          43.6290   48.8800   32.2810 N.am      5 SEP2        0.0000 
     59 CA         40.2240   45.7050   32.7180 C.3       3 GLC5        0.0000 
     60 CA         40.0660   46.2110   30.7520 C.3       9 GLL5        0.0000 
     61 CA         40.3820   45.1990   34.6840 C.3       6 GLP5        0.0000 
     62 CA         39.4435   44.3100   32.2075 C.3       3 GLC5        0.0000 
     63 CA         38.6710   45.6750   30.8030 C.3       9 GLL5        0.0000 
     64 CA         40.2160   42.9450   33.6120 C.3       6 GLP5        0.0000 
     65 CA         37.2240   45.6205   32.1995 C.3       3 GLC5        0.0000 
     66 CA         35.7770   45.5660   33.5960 C.3       6 GLP5        0.0000 
     67 CA         37.9575   43.5425   28.3275 C.3       3 GLC5        0.0000 
     68 CA         38.0040   45.0210   29.5540 C.3       9 GLL5        0.0000 
     69 CA         37.9110   42.0640   27.1010 C.3       6 GLP5        0.0000 
     70 N          35.8260   43.3925   29.6440 N.am      2 SEC2        0.0000 
     71 N          37.1110   43.9670   29.9730 N.am      8 SEL2        0.0000 
     72 N          34.5410   42.8180   29.3150 N.am      5 SEP2        0.0000 
     73 N          35.1910   44.2715   28.8625 N.am      2 SEC2        0.0000 
     74 N          35.8410   45.7250   28.4100 N.am      8 SEL2        0.0000 
     75 CA         38.1055   48.3715   31.1505 C.3       3 GLC5        0.0000 
     76 CA         36.7110   46.9280   30.3330 C.3       9 GLL5        0.0000 
     77 CA         39.5000   49.8150   31.9680 C.3       6 GLP5        0.0000 
     78 CA         36.2440   46.2470   31.9645 C.3       3 GLC5        0.0000 
     79 N          37.9865   53.8360   29.3840 N.am      2 SEC2        0.0000 
     80 N          38.0250   52.5500   28.5290 N.am      8 SEL2        0.0000 
     81 N          37.9480   55.1220   30.2390 N.am      5 SEP2        0.0000 
     82 CA         45.6124   44.1150   29.1871 C.3       3 GLC5        0.0000 
     83 CA         46.3800   45.4870   30.3680 C.3       6 GLP5        0.0000 
     84 CA         45.9002   43.2810   25.9812 C.3       3 GLC5        0.0000 
     85 CA         45.7550   42.5120   27.7450 C.3       9 GLL5        0.0000 
     86 CA         47.6148   42.6205   27.3577 C.3       3 GLC5        0.0000 
     87 CA         49.4860   43.4110   27.3680 C.3       6 GLP5        0.0000 
     88 CA         44.4565   35.7812   25.6167 C.3       3 GLC5        0.0000 
     89 CA         43.2960   37.2180   26.5100 C.3       9 GLL5        0.0000 
     90 CA         45.7140   35.0450   24.6600 C.3       6 GLP5        0.0000 
     91 CA         42.4627   38.1497   28.5265 C.3       3 GLC5        0.0000 
     92 CA         41.3900   37.0627   25.9953 C.3       3 GLC5        0.0000 
     93 CA         39.5810   37.6080   25.4170 C.3       6 GLP5        0.0000 
     94 CA         39.4342   47.8790   31.3727 C.3       3 GLC5        0.0000 
     95 CA         38.4180   49.7640   30.6690 C.3       3 GLC5        0.0000 
     96 CA         37.4190   49.0530   29.5080 C.3       9 GLL5        0.0000 
     97 CA         35.7150   50.7855   30.9965 C.3       3 GLC5        0.0000 
     98 CA         37.2530   50.3730   29.2320 C.3       9 GLL5        0.0000 
     99 CA         34.8390   50.8880   32.7480 C.3       6 GLP5        0.0000 
    100 CA         33.5145   48.8558   29.0083 C.3       3 GLC5        0.0000 
    101 CA         34.8670   50.1320   29.6780 C.3       9 GLL5        0.0000 
    102 CA         32.0990   48.2480   28.1540 C.3       6 GLP5        0.0000 
    103 CA         34.8845   50.1757   31.3053 C.3       3 GLC5        0.0000 
    104 CA         34.9930   48.7950   30.0470 C.3       9 GLL5        0.0000 
@<TRIPOS>BOND
@<TRIPOS>SUBSTRUCTURE
     1 ALC1       10 GROUP        1 X    ALC  0     ROOT ALC X 1
     2 SEC2        1 GROUP        1 X    SEC  0     **** SEC X 2
     3 GLC5        4 GROUP        1 X    GLC  0     **** GLC X 6
     4 ALP1       12 GROUP        1 Y    ALP  0     ROOT ALP Y 8
     5 SEP2        3 GROUP        1 Y    SEP  0     **** SEP Y 9
     6 GLP5        6 GROUP        1 Y    GLP  0     **** GLP Y 13
     7 ALL1       11 GROUP        1 Z    ALL  0     ROOT ALL Z 15
     8 SEL2        2 GROUP        1 Z    SEL  0     **** SEL Z 16
     9 GLL5        5 GROUP        1 Z    GLL  0     **** GLL Z 20
@<TRIPOS>SET

