#    Name: 1bxk_NAD_2_ligand
#    Modification time : Mon Mar 24 19:55:30 2014

@<TRIPOS>MOLECULE
1bxk_NAD_2_ligand
   70    74     1     0     0
SMALL
NO_CHARGES


@<TRIPOS>ATOM
      1 PA         43.3310   46.0380   27.5620 P.3       1 NAD780      0.0000 
      2 O1A        43.1800   45.9060   26.1220 O.co2     1 NAD780      0.0000 
      3 O2A        44.3270   47.1710   27.8270 O.co2     1 NAD780      0.0000 
      4 O5B        43.9850   44.7430   28.2320 O.3       1 NAD780      0.0000 
      5 C5B        43.4310   43.4560   27.9870 C.3       1 NAD780      0.0000 
      6 C4B        44.4380   42.4920   28.5480 C.3       1 NAD780      0.0000 
      7 O4B        43.8620   41.1400   28.4080 O.3       1 NAD780      0.0000 
      8 C3B        45.7550   42.5120   27.7450 C.3       1 NAD780      0.0000 
      9 O3B        46.8760   42.6830   28.6400 O.3       1 NAD780      0.0000 
     10 C2B        45.7320   41.1480   26.9500 C.3       1 NAD780      0.0000 
     11 O2B        47.0300   40.5500   26.8670 O.3       1 NAD780      0.0000 
     12 C1B        44.7910   40.2740   27.7950 C.3       1 NAD780      0.0000 
     13 N9A        44.1130   39.1860   27.0670 N.pl3     1 NAD780      0.0000 
     14 C8A        43.4410   39.2510   25.8810 C.2       1 NAD780      0.0000 
     15 N7A        42.8050   38.1200   25.5740 N.2       1 NAD780      0.0000 
     16 C5A        43.2960   37.2180   26.5100 C.ar      1 NAD780      0.0000 
     17 C6A        43.1020   35.8170   26.6370 C.ar      1 NAD780      0.0000 
     18 N6A        42.3930   35.1380   25.7170 N.pl3     1 NAD780      0.0000 
     19 N1A        43.6170   35.2190   27.7570 N.ar      1 NAD780      0.0000 
     20 C2A        44.3120   35.9720   28.6510 C.ar      1 NAD780      0.0000 
     21 N3A        44.5700   37.2630   28.5900 N.ar      1 NAD780      0.0000 
     22 C4A        44.0310   37.8490   27.4820 C.ar      1 NAD780      0.0000 
     23 O3         41.9130   46.2180   28.1370 O.3       1 NAD780      0.0000 
     24 PN         41.3840   47.4160   29.1610 P.3       1 NAD780      0.0000 
     25 O1N        41.4120   48.6030   28.2760 O.co2     1 NAD780      0.0000 
     26 O2N        42.1640   47.5010   30.3680 O.co2     1 NAD780      0.0000 
     27 O5D        39.9930   46.9540   29.5420 O.3       1 NAD780      0.0000 
     28 C5D        40.0660   46.2110   30.7520 C.3       1 NAD780      0.0000 
     29 C4D        38.6710   45.6750   30.8030 C.3       1 NAD780      0.0000 
     30 O4D        37.8110   46.7890   31.1880 O.3       1 NAD780      0.0000 
     31 C3D        38.0040   45.0210   29.5540 C.3       1 NAD780      0.0000 
     32 O3D        37.1110   43.9670   29.9730 O.3       1 NAD780      0.0000 
     33 C2D        37.0950   46.1820   29.0450 C.3       1 NAD780      0.0000 
     34 O2D        35.8410   45.7250   28.4100 O.3       1 NAD780      0.0000 
     35 C1D        36.7110   46.9280   30.3330 C.3       1 NAD780      0.0000 
     36 N1N        36.3250   48.3320   29.9600 N.pl3     1 NAD780      0.0000 
     37 C2N        37.4190   49.0530   29.5080 C.ar      1 NAD780      0.0000 
     38 C3N        37.2530   50.3730   29.2320 C.ar      1 NAD780      0.0000 
     39 C7N        38.2890   51.4130   28.7560 C.2       1 NAD780      0.0000 
     40 O7N        38.0250   52.5500   28.5290 O.2       1 NAD780      0.0000 
     41 N7N        39.5570   50.9500   28.5970 N.am      1 NAD780      0.0000 
     42 C4N        35.9290   50.9930   29.2580 C.ar      1 NAD780      0.0000 
     43 C5N        34.8670   50.1320   29.6780 C.ar      1 NAD780      0.0000 
     44 C6N        34.9930   48.7950   30.0470 C.ar      1 NAD780      0.0000 
     45 H          43.3137   43.2598   26.9319 H         1 NAD780      0.0000 
     46 H          42.4922   43.3147   28.5010 H         1 NAD780      0.0000 
     47 H          44.6377   42.7043   29.5607 H         1 NAD780      0.0000 
     48 H          45.6648   43.2993   27.0213 H         1 NAD780      0.0000 
     49 H          45.2690   41.3311   26.0214 H         1 NAD780      0.0000 
     50 H          45.4297   39.8264   28.5898 H         1 NAD780      0.0000 
     51 H          43.4362   40.0702   25.3127 H         1 NAD780      0.0000 
     52 H          42.2688   34.1610   25.8903 H         1 NAD780      0.0000 
     53 H          42.0534   35.6709   24.9419 H         1 NAD780      0.0000 
     54 H          44.6978   35.4248   29.5222 H         1 NAD780      0.0000 
     55 H          40.2334   46.8319   31.5967 H         1 NAD780      0.0000 
     56 H          40.7497   45.4014   30.6872 H         1 NAD780      0.0000 
     57 H          38.5999   44.9354   31.6293 H         1 NAD780      0.0000 
     58 H          38.6903   44.7903   28.8569 H         1 NAD780      0.0000 
     59 H          37.6566   46.8270   28.4444 H         1 NAD780      0.0000 
     60 H          35.8333   46.4077   30.7162 H         1 NAD780      0.0000 
     61 H          38.3242   48.5909   29.3892 H         1 NAD780      0.0000 
     62 H          40.2396   51.6244   28.3156 H         1 NAD780      0.0000 
     63 H          39.6953   49.9758   28.7755 H         1 NAD780      0.0000 
     64 H          35.7966   51.9240   29.0053 H         1 NAD780      0.0000 
     65 H          33.8952   50.5671   29.7064 H         1 NAD780      0.0000 
     66 H          34.2527   48.2333   30.3343 H         1 NAD780      0.0000 
     67 H          46.7937   41.9388   29.3029 H         1 NAD780      0.0000 
     68 H          47.0078   39.7920   27.5189 H         1 NAD780      0.0000 
     69 H          36.9288   44.1510   30.9389 H         1 NAD780      0.0000 
     70 H          35.7955   44.7449   28.6031 H         1 NAD780      0.0000 
@<TRIPOS>BOND
     1    2    1 ar   
     2    3    1 ar   
     3    4    1 1    
     4   23    1 1    
     5    5    4 1    
     6    6    5 1    
     7   45    5 1    
     8   46    5 1    
     9    7    6 1    
    10    8    6 1    
    11   47    6 1    
    12   12    7 1    
    13    9    8 1    
    14   10    8 1    
    15   48    8 1    
    16   67    9 1    
    17   11   10 1    
    18   12   10 1    
    19   49   10 1    
    20   68   11 1    
    21   13   12 1    
    22   50   12 1    
    23   14   13 1    
    24   22   13 1    
    25   15   14 2    
    26   51   14 1    
    27   16   15 1    
    28   17   16 ar   
    29   22   16 ar   
    30   18   17 1    
    31   19   17 ar   
    32   52   18 1    
    33   53   18 1    
    34   20   19 ar   
    35   21   20 ar   
    36   54   20 1    
    37   22   21 ar   
    38   24   23 1    
    39   25   24 ar   
    40   26   24 ar   
    41   27   24 1    
    42   28   27 1    
    43   29   28 1    
    44   55   28 1    
    45   56   28 1    
    46   30   29 1    
    47   31   29 1    
    48   57   29 1    
    49   35   30 1    
    50   32   31 1    
    51   33   31 1    
    52   58   31 1    
    53   69   32 1    
    54   34   33 1    
    55   35   33 1    
    56   59   33 1    
    57   70   34 1    
    58   36   35 1    
    59   60   35 1    
    60   37   36 ar   
    61   44   36 ar   
    62   38   37 ar   
    63   61   37 1    
    64   39   38 1    
    65   42   38 ar   
    66   40   39 2    
    67   41   39 am   
    68   62   41 1    
    69   63   41 1    
    70   43   42 ar   
    71   64   42 1    
    72   44   43 ar   
    73   65   43 1    
    74   66   44 1    
@<TRIPOS>SUBSTRUCTURE
     1 NAD780      1 GROUP   
@<TRIPOS>SET

