#    Name: 3sxj_SAM_2_INTS_M
#    Modification time : Mon Mar 24 18:45:40 2014

@<TRIPOS>MOLECULE
3sxj_SAM_2_INTS_M
   74     0    12     0     0
SMALL
NO_CHARGES


@<TRIPOS>ATOM
      1 O         -12.3465  -21.2710   12.5520 O.2       1 ALC1        0.0000 
      2 O         -11.5100  -20.4670   11.8530 O.2       9 ALL1        0.0000 
      3 O         -13.1830  -22.0750   13.2510 O.2       5 ALP1        0.0000 
      4 O         -11.4755  -19.2850   12.6510 O.2       1 ALC1        0.0000 
      5 O         -11.4410  -18.1030   13.4490 O.2       5 ALP1        0.0000 
      6 CA        -11.8920  -22.5040   11.4885 C.3       4 GLC5        0.0000 
      7 CA        -11.9120  -20.5510   10.4410 C.3      12 GLL5        0.0000 
      8 CA        -11.8720  -24.4570   12.5360 C.3       8 GLP5        0.0000 
      9 NZ         -9.2715  -18.1580    9.6650 N.4       3 LYC4        0.0000 
     10 NZ        -10.6410  -18.5530   10.2510 N.4      11 LYL4        0.0000 
     11 NZ         -7.5480  -18.2740    7.9100 N.4       7 LYP4        0.0000 
     12 N          -9.2715  -18.1580    9.6650 N.am      2 SEC2        0.0000 
     13 N         -10.6410  -18.5530   10.2510 N.am     10 SEL2        0.0000 
     14 N          -7.9020  -17.7630    9.0790 N.am      6 SEP2        0.0000 
     15 NZ         -9.7495  -19.3550    7.8065 N.4       3 LYC4        0.0000 
     16 NZ        -11.0900  -19.6850    8.3850 N.4      11 LYL4        0.0000 
     17 N          -9.7495  -19.3550    7.8065 N.am      2 SEC2        0.0000 
     18 N         -11.0900  -19.6850    8.3850 N.am     10 SEL2        0.0000 
     19 N          -8.4090  -19.0250    7.2280 N.am      6 SEP2        0.0000 
     20 N         -12.0035  -19.2700    7.1475 N.am      2 SEC2        0.0000 
     21 N         -12.9170  -18.8550    5.9100 N.am      6 SEP2        0.0000 
     22 CA        -13.1530  -17.1800    9.4930 C.3       4 GLC5        0.0000 
     23 CA        -13.7580  -18.8710   10.7670 C.3      12 GLL5        0.0000 
     24 CA        -12.5480  -15.4890    8.2190 C.3       8 GLP5        0.0000 
     25 CA        -15.3400  -18.8745    8.7480 C.3       4 GLC5        0.0000 
     26 CA        -15.5380  -18.4690   10.6320 C.3      12 GLL5        0.0000 
     27 CA        -15.1420  -19.2800    6.8640 C.3       8 GLP5        0.0000 
     28 CA        -14.0225  -16.0980    9.5520 C.3       4 GLC5        0.0000 
     29 CA        -15.4970  -16.7070   10.8850 C.3      12 GLL5        0.0000 
     30 CA        -16.2925  -16.0135   12.5690 C.3       4 GLC5        0.0000 
     31 CA        -17.0880  -15.3200   14.2530 C.3       8 GLP5        0.0000 
     32 CA        -16.7595  -17.1620   13.1940 C.3       4 GLC5        0.0000 
     33 CA        -16.4310  -19.0040   12.1350 C.3      12 GLL5        0.0000 
     34 CA        -15.3045  -21.7965   13.7400 C.3       4 GLC5        0.0000 
     35 CA        -16.3810  -20.5190   12.3230 C.3      12 GLL5        0.0000 
     36 CA        -14.2280  -23.0740   15.1570 C.3       8 GLP5        0.0000 
     37 CA        -17.8935  -22.2945    9.5105 C.3       4 GLC5        0.0000 
     38 CA        -17.2130  -21.2410   11.2590 C.3      12 GLL5        0.0000 
     39 CA        -18.5740  -23.3480    7.7620 C.3       8 GLP5        0.0000 
     40 O         -16.5250  -23.3705   11.6825 O.2       1 ALC1        0.0000 
     41 O         -16.5450  -22.4310   10.8290 O.2       9 ALL1        0.0000 
     42 O         -16.5050  -24.3100   12.5360 O.2       5 ALP1        0.0000 
     43 O         -17.7945  -23.5385   12.0090 O.2       1 ALC1        0.0000 
     44 O         -19.0840  -22.7670   11.4820 O.2       9 ALL1        0.0000 
     45 O         -18.4420  -24.0660   11.3130 O.2       1 ALC1        0.0000 
     46 O         -17.8000  -25.3650   11.1440 O.2       5 ALP1        0.0000 
     47 CA        -16.0320  -22.5110   14.2635 C.3       4 GLC5        0.0000 
     48 CA        -17.8360  -21.9480   13.3700 C.3      12 GLL5        0.0000 
     49 CA        -19.9410  -25.3315   18.4805 C.3       4 GLC5        0.0000 
     50 CA        -20.0380  -23.3680   17.4550 C.3      12 GLL5        0.0000 
     51 CA        -19.8440  -27.2950   19.5060 C.3       8 GLP5        0.0000 
     52 CA        -18.9750  -23.2075   18.8830 C.3       4 GLC5        0.0000 
     53 CA        -17.9120  -23.0470   20.3110 C.3       8 GLP5        0.0000 
     54 CA        -17.3590  -25.7825   15.4425 C.3       4 GLC5        0.0000 
     55 CA        -18.1360  -24.5800   16.9280 C.3      12 GLL5        0.0000 
     56 CA        -16.5820  -26.9850   13.9570 C.3       8 GLP5        0.0000 
     57 CA        -19.6555  -25.1195   15.7115 C.3       4 GLC5        0.0000 
     58 CA        -21.1750  -25.6590   14.4950 C.3       8 GLP5        0.0000 
     59 CA        -18.9900  -25.9375   18.2170 C.3       4 GLC5        0.0000 
     60 CA        -18.0240  -23.8135   18.6195 C.3       4 GLC5        0.0000 
     61 N         -18.4485  -25.2140   14.9465 N.am      2 SEC2        0.0000 
     62 N         -17.9330  -23.8760   15.8300 N.am     10 SEL2        0.0000 
     63 N         -18.9640  -26.5520   14.0630 N.am      6 SEP2        0.0000 
     64 CA        -13.4250  -22.2747    9.9707 C.3       4 GLC5        0.0000 
     65 CA        -13.4160  -20.2960   10.3280 C.3      12 GLL5        0.0000 
     66 CA        -14.1860  -24.1260    9.5570 C.3       8 GLP5        0.0000 
     67 CA        -14.3645  -19.4318    8.7058 C.3       4 GLC5        0.0000 
     68 CA        -15.3090  -19.5143   13.9050 C.3       4 GLC5        0.0000 
     69 CA        -14.2120  -19.2670   15.5810 C.3       8 GLP5        0.0000 
     70 CA        -18.0700  -21.9357   16.9138 C.3       4 GLC5        0.0000 
     71 CA        -19.8580  -22.6060   16.3090 C.3      12 GLL5        0.0000 
     72 CA        -16.8240  -21.1250   17.9280 C.3       8 GLP5        0.0000 
     73 CA        -20.2680  -24.2980   15.3405 C.3       4 GLC5        0.0000 
     74 CA        -18.7740  -22.8870   15.4900 C.3      12 GLL5        0.0000 
@<TRIPOS>BOND
@<TRIPOS>SUBSTRUCTURE
     1 ALC1        1 GROUP        1 X    ALC  0     ROOT ALC X 1
     2 SEC2       12 GROUP        1 X    SEC  0     **** SEC X 2
     3 LYC4        9 GROUP        1 X    LYC  0     **** LYC X 4
     4 GLC5        6 GROUP        1 X    GLC  0     **** GLC X 6
     5 ALP1        3 GROUP        1 Y    ALP  0     ROOT ALP Y 8
     6 SEP2       14 GROUP        1 Y    SEP  0     **** SEP Y 9
     7 LYP4       11 GROUP        1 Y    LYP  0     **** LYP Y 11
     8 GLP5        8 GROUP        1 Y    GLP  0     **** GLP Y 13
     9 ALL1        2 GROUP        1 Z    ALL  0     ROOT ALL Z 15
    10 SEL2       13 GROUP        1 Z    SEL  0     **** SEL Z 16
    11 LYL4       10 GROUP        1 Z    LYL  0     **** LYL Z 18
    12 GLL5        7 GROUP        1 Z    GLL  0     **** GLL Z 20
@<TRIPOS>SET

