#    Name: 3sxj_SAM_2_ligand
#    Modification time : Mon Mar 24 18:45:40 2014

@<TRIPOS>MOLECULE
3sxj_SAM_2_ligand
   50    52     1     0     0
SMALL
NO_CHARGES


@<TRIPOS>ATOM
      1 N         -11.5100  -20.4670   11.8530 N.4       1 SAM258      0.0000 
      2 CA        -11.9120  -20.5510   10.4410 C.3       1 SAM258      0.0000 
      3 C         -11.1480  -19.5070    9.6210 C.2       1 SAM258      0.0000 
      4 O         -10.6410  -18.5530   10.2510 O.co2     1 SAM258      0.0000 
      5 OXT       -11.0900  -19.6850    8.3850 O.co2     1 SAM258      0.0000 
      6 CB        -13.4160  -20.2960   10.3280 C.3       1 SAM258      0.0000 
      7 CG        -13.7580  -18.8710   10.7670 C.3       1 SAM258      0.0000 
      8 SD        -15.5380  -18.4690   10.6320 S.3       1 SAM258      0.0000 
      9 CE        -15.4970  -16.7070   10.8850 C.3       1 SAM258      0.0000 
     10 C5'       -16.4310  -19.0040   12.1350 C.3       1 SAM258      0.0000 
     11 C4'       -16.3810  -20.5190   12.3230 C.3       1 SAM258      0.0000 
     12 O4'       -16.9820  -20.8170   13.5940 O.3       1 SAM258      0.0000 
     13 C3'       -17.2130  -21.2410   11.2590 C.3       1 SAM258      0.0000 
     14 O3'       -16.5450  -22.4310   10.8290 O.3       1 SAM258      0.0000 
     15 C2'       -18.4840  -21.5920   12.0330 C.3       1 SAM258      0.0000 
     16 O2'       -19.0840  -22.7670   11.4820 O.3       1 SAM258      0.0000 
     17 C1'       -17.8360  -21.9480   13.3700 C.3       1 SAM258      0.0000 
     18 N9        -18.8220  -22.0370   14.4700 N.pl3     1 SAM258      0.0000 
     19 C8        -19.8920  -21.2580   14.6340 C.2       1 SAM258      0.0000 
     20 N7        -20.5240  -21.5960   15.7540 N.2       1 SAM258      0.0000 
     21 C5        -19.8580  -22.6060   16.3090 C.ar      1 SAM258      0.0000 
     22 C6        -20.0380  -23.3680   17.4550 C.ar      1 SAM258      0.0000 
     23 N6        -21.0730  -23.1390   18.2610 N.pl3     1 SAM258      0.0000 
     24 N1        -19.1620  -24.3450   17.7300 N.ar      1 SAM258      0.0000 
     25 C2        -18.1360  -24.5800   16.9280 C.ar      1 SAM258      0.0000 
     26 N3        -17.9330  -23.8760   15.8300 N.ar      1 SAM258      0.0000 
     27 C4        -18.7740  -22.8870   15.4900 C.ar      1 SAM258      0.0000 
     28 H         -11.6983  -21.5234   10.0453 H         1 SAM258      0.0000 
     29 H         -13.9484  -21.0036   10.9599 H         1 SAM258      0.0000 
     30 H         -13.7274  -20.4377    9.2953 H         1 SAM258      0.0000 
     31 H         -13.3107  -18.1110   10.1509 H         1 SAM258      0.0000 
     32 H         -13.5656  -18.6828   11.8086 H         1 SAM258      0.0000 
     33 H         -17.4142  -18.6236   11.9569 H         1 SAM258      0.0000 
     34 H         -15.9242  -18.4573   12.9014 H         1 SAM258      0.0000 
     35 H         -15.3809  -20.8539   12.2774 H         1 SAM258      0.0000 
     36 H         -17.4508  -20.5677   10.5001 H         1 SAM258      0.0000 
     37 H         -19.0696  -20.7717   12.1383 H         1 SAM258      0.0000 
     38 H         -17.2769  -22.8277   13.2548 H         1 SAM258      0.0000 
     39 H         -20.1687  -20.5450   14.0206 H         1 SAM258      0.0000 
     40 H         -21.1441  -23.7299   19.0646 H         1 SAM258      0.0000 
     41 H         -21.6859  -22.3967   17.9901 H         1 SAM258      0.0000 
     42 H         -17.4556  -25.3594   17.1767 H         1 SAM258      0.0000 
     43 H         -11.9936  -21.1361   12.4173 H         1 SAM258      0.0000 
     44 H         -10.5316  -20.6364   11.9713 H         1 SAM258      0.0000 
     45 H         -11.7002  -19.5649   12.2403 H         1 SAM258      0.0000 
     46 H         -14.9567  -16.4598   11.6893 H         1 SAM258      0.0000 
     47 H         -15.0954  -16.2289   10.1039 H         1 SAM258      0.0000 
     48 H         -16.4132  -16.3298   11.0201 H         1 SAM258      0.0000 
     49 H         -16.2003  -22.8518   11.6681 H         1 SAM258      0.0000 
     50 H         -18.3629  -23.4595   11.5022 H         1 SAM258      0.0000 
@<TRIPOS>BOND
     1    2    1 1    
     2   43    1 1    
     3   44    1 1    
     4   45    1 1    
     5    3    2 1    
     6    6    2 1    
     7   28    2 1    
     8    4    3 ar   
     9    5    3 ar   
    10    7    6 1    
    11   29    6 1    
    12   30    6 1    
    13    8    7 1    
    14   31    7 1    
    15   32    7 1    
    16    9    8 1    
    17   10    8 1    
    18   46    9 1    
    19   47    9 1    
    20   48    9 1    
    21   11   10 1    
    22   33   10 1    
    23   34   10 1    
    24   12   11 1    
    25   13   11 1    
    26   35   11 1    
    27   17   12 1    
    28   14   13 1    
    29   15   13 1    
    30   36   13 1    
    31   49   14 1    
    32   16   15 1    
    33   17   15 1    
    34   37   15 1    
    35   50   16 1    
    36   18   17 1    
    37   38   17 1    
    38   19   18 1    
    39   27   18 1    
    40   20   19 2    
    41   39   19 1    
    42   21   20 1    
    43   22   21 ar   
    44   27   21 ar   
    45   23   22 1    
    46   24   22 ar   
    47   40   23 1    
    48   41   23 1    
    49   25   24 ar   
    50   26   25 ar   
    51   42   25 1    
    52   27   26 ar   
@<TRIPOS>SUBSTRUCTURE
     1 SAM258      1 GROUP   
@<TRIPOS>SET

