#    Name: 1xud_PB4_1_INTS_M
#    Modification time : Tue Mar 25 10:41:44 2014

@<TRIPOS>MOLECULE
1xud_PB4_1_INTS_M
   87     0     9     0     0
SMALL
NO_CHARGES


@<TRIPOS>ATOM
      1 CA        -11.3745   25.9820   46.2520 C.3       3 GLC5        0.0000 
      2 CA        -11.6020   27.3320   44.8470 C.3       9 GLL5        0.0000 
      3 CA        -11.1470   24.6320   47.6570 C.3       6 GLP5        0.0000 
      4 CA        -11.7560   27.1420   47.4505 C.3       3 GLC5        0.0000 
      5 CA        -11.0420   27.9400   45.9640 C.3       9 GLL5        0.0000 
      6 CA        -12.4700   26.3440   48.9370 C.3       6 GLP5        0.0000 
      7 CA        -12.5950   29.1015   47.0475 C.3       3 GLC5        0.0000 
      8 CA        -14.1480   30.2630   48.1310 C.3       6 GLP5        0.0000 
      9 CA        -10.4035   26.3115   46.8575 C.3       3 GLC5        0.0000 
     10 CA         -9.6600   27.9910   46.0580 C.3       9 GLL5        0.0000 
     11 CA         -7.7270   26.9760   45.6800 C.3       3 GLC5        0.0000 
     12 CA         -5.7940   25.9610   45.3020 C.3       6 GLP5        0.0000 
     13 CA         -4.8985   26.3180   52.7145 C.3       3 GLC5        0.0000 
     14 CA         -5.8050   27.9660   53.4540 C.3       9 GLL5        0.0000 
     15 CA         -3.9920   24.6700   51.9750 C.3       6 GLP5        0.0000 
     16 CA        -18.1690   22.5465   42.1195 C.3       3 GLC5        0.0000 
     17 CA        -18.2930   22.1760   44.2470 C.3       9 GLL5        0.0000 
     18 CA        -18.0450   22.9170   39.9920 C.3       6 GLP5        0.0000 
     19 CA         -6.3615   27.3920   46.9240 C.3       3 GLC5        0.0000 
     20 CA         -6.9290   28.8230   48.5460 C.3       9 GLL5        0.0000 
     21 CA         -5.3985   29.9290   47.7235 C.3       3 GLC5        0.0000 
     22 CA         -3.8680   31.0350   46.9010 C.3       6 GLP5        0.0000 
     23 CA        -16.2245   27.0345   42.1700 C.3       3 GLC5        0.0000 
     24 CA        -15.0110   26.0620   43.6260 C.3       9 GLL5        0.0000 
     25 CA        -17.4380   28.0070   40.7140 C.3       6 GLP5        0.0000 
     26 CA        -13.6010   24.4590   43.7130 C.3       3 GLC5        0.0000 
     27 CA        -12.1910   22.8560   43.8000 C.3       6 GLP5        0.0000 
     28 CA        -17.3395   23.5145   41.9870 C.3       3 GLC5        0.0000 
     29 CA        -16.6340   24.1120   43.9820 C.3       9 GLL5        0.0000 
     30 CA         -7.7565   25.3820   48.3255 C.3       3 GLC5        0.0000 
     31 CA         -7.9500   26.8380   49.8460 C.3       9 GLL5        0.0000 
     32 CA         -7.5630   23.9260   46.8050 C.3       6 GLP5        0.0000 
     33 CA         -6.0165   30.4190   51.4165 C.3       3 GLC5        0.0000 
     34 CA         -6.3860   28.3680   51.0050 C.3       9 GLL5        0.0000 
     35 CA         -5.6470   32.4700   51.8280 C.3       6 GLP5        0.0000 
     36 CA         -7.5910   26.3945   44.6115 C.3       3 GLC5        0.0000 
     37 CA         -9.3880   26.8280   43.9210 C.3       9 GLL5        0.0000 
     38 CA         -8.2755   26.5600   42.3045 C.3       3 GLC5        0.0000 
     39 CA         -7.1630   26.2920   40.6880 C.3       6 GLP5        0.0000 
     40 O          -6.5925   28.5150   46.2525 O.2       1 ALC1        0.0000 
     41 O          -7.7200   28.3150   47.3890 O.2       7 ALL1        0.0000 
     42 O          -5.4650   28.7150   45.1160 O.2       4 ALP1        0.0000 
     43 CA        -14.0880   23.8265   48.1820 C.3       3 GLC5        0.0000 
     44 CA        -15.7070   23.6950   46.6970 C.3       9 GLL5        0.0000 
     45 CA        -12.4690   23.9580   49.6670 C.3       6 GLP5        0.0000 
     46 CA        -13.8115   25.5355   47.4035 C.3       3 GLC5        0.0000 
     47 CA        -15.1530   24.7270   45.8700 C.3       9 GLL5        0.0000 
     48 N         -14.3280   29.2600   45.5790 N.am      2 SEC2        0.0000 
     49 N         -13.8830   27.9540   45.3680 N.am      8 SEL2        0.0000 
     50 N         -14.7730   30.5660   45.7900 N.am      5 SEP2        0.0000 
     51 N          -9.8850   30.3050   48.9105 N.am      2 SEC2        0.0000 
     52 N          -9.6150   29.3170   48.0770 N.am      8 SEL2        0.0000 
     53 N         -10.1550   31.2930   49.7440 N.am      5 SEP2        0.0000 
     54 CA         -8.1400   26.1955   55.0965 C.3       3 GLC5        0.0000 
     55 CA         -7.5890   25.5950   53.4450 C.3       9 GLL5        0.0000 
     56 CA         -8.6910   26.7960   56.7480 C.3       6 GLP5        0.0000 
     57 CA         -8.2155   24.3410   54.3355 C.3       3 GLC5        0.0000 
     58 CA         -8.8420   23.0870   55.2260 C.3       6 GLP5        0.0000 
     59 CA         -6.7505   24.5590   52.0515 C.3       3 GLC5        0.0000 
     60 CA         -5.9120   23.5230   50.6580 C.3       6 GLP5        0.0000 
     61 CA         -9.3080   26.8600   52.9740 C.3       3 GLC5        0.0000 
     62 CA        -11.0270   28.1250   52.5030 C.3       6 GLP5        0.0000 
     63 CA        -15.7435   21.0900   47.2875 C.3       3 GLC5        0.0000 
     64 CA        -17.2980   21.8280   46.9770 C.3       9 GLL5        0.0000 
     65 CA        -14.1890   20.3520   47.5980 C.3       6 GLP5        0.0000 
     66 CA        -12.1975   29.2295   44.4338 C.3       3 GLC5        0.0000 
     67 CA        -13.0730   30.8230   43.4620 C.3       6 GLP5        0.0000 
     68 CA        -15.9370   22.2005   43.5742 C.3       3 GLC5        0.0000 
     69 CA        -17.1890   23.0740   44.8160 C.3       9 GLL5        0.0000 
     70 CA        -14.1330   21.7760   42.6170 C.3       6 GLP5        0.0000 
     71 CA         -5.7807   26.3513   50.6647 C.3       3 GLC5        0.0000 
     72 CA         -7.0870   28.0030   49.8160 C.3       9 GLL5        0.0000 
     73 CA         -4.8250   24.5170   50.9190 C.3       6 GLP5        0.0000 
     74 CA        -15.1260   23.1545   43.4303 C.3       3 GLC5        0.0000 
     75 CA        -15.6040   24.9540   44.5050 C.3       9 GLL5        0.0000 
     76 CA         -9.8340   25.7608   49.7340 C.3       3 GLC5        0.0000 
     77 CA        -11.6330   25.0740   49.0380 C.3       6 GLP5        0.0000 
     78 CA         -6.9735   24.9853   50.5440 C.3       3 GLC5        0.0000 
     79 CA         -8.1200   26.0570   51.0140 C.3       9 GLL5        0.0000 
     80 CA         -8.2425   29.1448   50.6472 C.3       3 GLC5        0.0000 
     81 CA         -9.0060   30.6640   51.7810 C.3       6 GLP5        0.0000 
     82 CA         -8.6690   24.5667   52.2175 C.3       3 GLC5        0.0000 
     83 CA         -9.5680   22.8930   52.8330 C.3       6 GLP5        0.0000 
     84 CA         -5.9073   25.7583   51.5517 C.3       3 GLC5        0.0000 
     85 CA         -7.4200   26.4240   52.1900 C.3       9 GLL5        0.0000 
     86 CA         -7.7393   29.3178   51.6865 C.3       3 GLC5        0.0000 
     87 CA         -6.5590   27.5750   52.1790 C.3       9 GLL5        0.0000 
@<TRIPOS>BOND
@<TRIPOS>SUBSTRUCTURE
     1 ALC1       40 GROUP        1 X    ALC  0     ROOT ALC X 1
     2 SEC2       48 GROUP        1 X    SEC  0     **** SEC X 2
     3 GLC5        1 GROUP        1 X    GLC  0     **** GLC X 6
     4 ALP1       42 GROUP        1 Y    ALP  0     ROOT ALP Y 8
     5 SEP2       50 GROUP        1 Y    SEP  0     **** SEP Y 9
     6 GLP5        3 GROUP        1 Y    GLP  0     **** GLP Y 13
     7 ALL1       41 GROUP        1 Z    ALL  0     ROOT ALL Z 15
     8 SEL2       49 GROUP        1 Z    SEL  0     **** SEL Z 16
     9 GLL5        2 GROUP        1 Z    GLL  0     **** GLL Z 20
@<TRIPOS>SET

