#    Name: 1xud_PB4_1_ligand
#    Modification time : Tue Mar 25 10:41:44 2014

@<TRIPOS>MOLECULE
1xud_PB4_1_ligand
   50    52     1     0     0
SMALL
NO_CHARGES


@<TRIPOS>ATOM
      1 C1        -11.6020   27.3320   44.8470 C.ar      1 PB42001     0.0000 
      2 C2        -11.0420   27.9400   45.9640 C.ar      1 PB42001     0.0000 
      3 C3         -9.6600   27.9910   46.0580 C.ar      1 PB42001     0.0000 
      4 C7         -5.8050   27.9660   53.4540 C.3       1 PB42001     0.0000 
      5 C8        -18.2930   22.1760   44.2470 C.3       1 PB42001     0.0000 
      6 C9         -9.0580   28.6100   47.2290 C.2       1 PB42001     0.0000 
      7 C10        -6.9290   28.8230   48.5460 C.3       1 PB42001     0.0000 
      8 C11        -7.0870   28.0030   49.8160 C.ar      1 PB42001     0.0000 
      9 C12       -13.0640   27.2600   44.7390 C.2       1 PB42001     0.0000 
     10 C13       -15.0110   26.0620   43.6260 C.3       1 PB42001     0.0000 
     11 C14       -15.6040   24.9540   44.5050 C.ar      1 PB42001     0.0000 
     12 C15       -16.6340   24.1120   43.9820 C.ar      1 PB42001     0.0000 
     13 C16       -16.7340   22.8610   46.1670 C.ar      1 PB42001     0.0000 
     14 C19        -7.9500   26.8380   49.8460 C.ar      1 PB42001     0.0000 
     15 C20        -8.1200   26.0570   51.0140 C.ar      1 PB42001     0.0000 
     16 C21        -7.4200   26.4240   52.1900 C.ar      1 PB42001     0.0000 
     17 C22        -6.3860   28.3680   51.0050 C.ar      1 PB42001     0.0000 
     18 N1         -8.8310   27.4410   45.0490 N.ar      1 PB42001     0.0000 
     19 C5         -9.3880   26.8280   43.9210 C.ar      1 PB42001     0.0000 
     20 N2        -10.7790   26.7810   43.8380 N.ar      1 PB42001     0.0000 
     21 N3         -7.7200   28.3150   47.3890 N.am      1 PB42001     0.0000 
     22 N4        -13.5610   26.2960   43.8550 N.am      1 PB42001     0.0000 
     23 C6        -17.1890   23.0740   44.8160 C.ar      1 PB42001     0.0000 
     24 C17       -15.7070   23.6950   46.6970 C.ar      1 PB42001     0.0000 
     25 C18       -15.1530   24.7270   45.8700 C.ar      1 PB42001     0.0000 
     26 C4         -6.5590   27.5750   52.1790 C.ar      1 PB42001     0.0000 
     27 O1        -13.8830   27.9540   45.3680 O.2       1 PB42001     0.0000 
     28 O2         -9.6150   29.3170   48.0770 O.2       1 PB42001     0.0000 
     29 F1         -7.5890   25.5950   53.4450 F         1 PB42001     0.0000 
     30 F2        -17.2980   21.8280   46.9770 F         1 PB42001     0.0000 
     31 H         -11.6312   28.3361   46.6916 H         1 PB42001     0.0000 
     32 H          -5.8540   28.8517   48.2780 H         1 PB42001     0.0000 
     33 H          -7.2203   29.8695   48.7652 H         1 PB42001     0.0000 
     34 H         -15.5784   26.9917   43.8147 H         1 PB42001     0.0000 
     35 H         -15.1883   25.7941   42.5683 H         1 PB42001     0.0000 
     36 H         -16.9730   24.2375   43.0409 H         1 PB42001     0.0000 
     37 H          -8.4489   26.5827   48.9820 H         1 PB42001     0.0000 
     38 H          -8.7306   25.2504   51.0101 H         1 PB42001     0.0000 
     39 H          -5.7788   29.1727   51.0150 H         1 PB42001     0.0000 
     40 H          -8.8045   26.4366   43.1984 H         1 PB42001     0.0000 
     41 H          -7.2089   27.7291   46.7134 H         1 PB42001     0.0000 
     42 H         -12.9116   25.6946   43.3139 H         1 PB42001     0.0000 
     43 H         -15.3723   23.5644   47.6391 H         1 PB42001     0.0000 
     44 H         -14.4125   25.3312   46.2453 H         1 PB42001     0.0000 
     45 H          -5.1929   27.2375   53.7617 H         1 PB42001     0.0000 
     46 H          -5.2438   28.7825   53.3180 H         1 PB42001     0.0000 
     47 H          -6.4299   28.1624   54.2096 H         1 PB42001     0.0000 
     48 H         -17.9837   21.6734   43.4397 H         1 PB42001     0.0000 
     49 H         -18.6009   21.4979   44.9143 H         1 PB42001     0.0000 
     50 H         -19.0970   22.7040   43.9733 H         1 PB42001     0.0000 
@<TRIPOS>BOND
     1    2    1 ar   
     2    9    1 1    
     3   20    1 ar   
     4    3    2 ar   
     5   31    2 1    
     6    6    3 1    
     7   18    3 ar   
     8   26    4 1    
     9   45    4 1    
    10   46    4 1    
    11   47    4 1    
    12   23    5 1    
    13   48    5 1    
    14   49    5 1    
    15   50    5 1    
    16   21    6 am   
    17   28    6 2    
    18    8    7 1    
    19   21    7 1    
    20   32    7 1    
    21   33    7 1    
    22   14    8 ar   
    23   17    8 ar   
    24   22    9 am   
    25   27    9 2    
    26   11   10 1    
    27   22   10 1    
    28   34   10 1    
    29   35   10 1    
    30   12   11 ar   
    31   25   11 ar   
    32   23   12 ar   
    33   36   12 1    
    34   23   13 ar   
    35   24   13 ar   
    36   30   13 1    
    37   15   14 ar   
    38   37   14 1    
    39   16   15 ar   
    40   38   15 1    
    41   26   16 ar   
    42   29   16 1    
    43   26   17 ar   
    44   39   17 1    
    45   19   18 ar   
    46   20   19 ar   
    47   40   19 1    
    48   41   21 1    
    49   42   22 1    
    50   25   24 ar   
    51   43   24 1    
    52   44   25 1    
@<TRIPOS>SUBSTRUCTURE
     1 PB42001     1 GROUP   
@<TRIPOS>SET

