#    Name: 1LVG_1_CAVITY_N1_ALL.mol2
#    Modification time : Mon Mar 10 14:56:29 2014

@<TRIPOS>MOLECULE
1LVG_1_CAVITY_N1_ALL.mol2
  130     0     7     0     0
SMALL
NO_CHARGES


@<TRIPOS>ATOM
      1 O          87.2105  -29.5837   51.3022 O.2       2 ALA2        0.0000 
      2 CZ         88.2863  -29.0596   50.3977 C.ar      5 PHE5        0.0000 
      3 CZ         89.3620  -28.5355   49.4932 C.ar      5 PHE5        0.0000 
      4 OG         86.9695  -30.7222   50.3558 O.2       1 SER1        0.0000 
      5 CZ         88.0452  -30.1982   49.4513 C.ar      5 PHE5        0.0000 
      6 CZ         89.1210  -29.6741   48.5468 C.ar      5 PHE5        0.0000 
      7 CA         90.1967  -29.1500   47.6423 C.3       6 GLY6        0.0000 
      8 CZ         88.8799  -30.8127   47.6005 C.ar      5 PHE5        0.0000 
      9 CZ         89.9557  -30.2886   46.6960 C.ar      5 PHE5        0.0000 
     10 NZ         91.0314  -29.7645   45.7915 N.2       4 LYS4        0.0000 
     11 CA         90.7904  -30.9031   44.8451 C.3       6 GLY6        0.0000 
     12 O          86.4343  -27.6211   51.5162 O.2       2 ALA2        0.0000 
     13 CZ         87.5101  -27.0970   50.6117 C.ar      5 PHE5        0.0000 
     14 CZ         88.5858  -26.5729   49.7072 C.ar      5 PHE5        0.0000 
     15 CZ         89.6616  -26.0489   48.8027 C.ar      5 PHE5        0.0000 
     16 O          85.1176  -29.2837   51.4744 O.2       2 ALA2        0.0000 
     17 O          86.1933  -28.7597   50.5699 O.2       2 ALA2        0.0000 
     18 CZ         87.2691  -28.2356   49.6654 C.ar      5 PHE5        0.0000 
     19 CZ         88.3448  -27.7115   48.7609 C.ar      5 PHE5        0.0000 
     20 CA         89.4205  -27.1874   47.8564 C.3       6 GLY6        0.0000 
     21 OG         84.8765  -30.4223   50.5280 O.2       1 SER1        0.0000 
     22 OG         85.9523  -29.8982   49.6235 O.2       1 SER1        0.0000 
     23 OG         87.0280  -29.3741   48.7190 O.2       1 SER1        0.0000 
     24 DU         88.1038  -28.8501   47.8145 H         7 CUB7        0.0000 
     25 O          89.1795  -28.3260   46.9100 O.2       2 ALA2        0.0000 
     26 OG         86.7870  -30.5127   47.7727 O.2       1 SER1        0.0000 
     27 CZ         87.8628  -29.9886   46.8682 C.ar      5 PHE5        0.0000 
     28 O          88.9385  -29.4645   45.9637 O.2       2 ALA2        0.0000 
     29 CZ         87.6217  -31.1272   45.9218 C.ar      5 PHE5        0.0000 
     30 CA         88.6975  -30.6031   45.0173 C.3       6 GLY6        0.0000 
     31 CA         89.7732  -30.0790   44.1128 C.3       6 GLY6        0.0000 
     32 CA         88.4564  -31.7417   44.0710 C.3       6 GLY6        0.0000 
     33 NZ         84.3414  -27.3211   51.6884 N.2       4 LYS4        0.0000 
     34 CA         85.4172  -26.7971   50.7839 C.3       6 GLY6        0.0000 
     35 OD1        86.4929  -26.2730   49.8794 O.3       3 ASP3        0.0000 
     36 N          87.5686  -25.7489   48.9749 N.2       2 ALA2        0.0000 
     37 N          88.6444  -25.2248   48.0704 N.2       2 ALA2        0.0000 
     38 O          83.0246  -28.9838   51.6466 O.2       2 ALA2        0.0000 
     39 NZ         84.1004  -28.4597   50.7421 N.2       4 LYS4        0.0000 
     40 OD1        85.1761  -27.9356   49.8376 O.3       3 ASP3        0.0000 
     41 OD1        86.2519  -27.4116   48.9331 O.3       3 ASP3        0.0000 
     42 OD1        87.3276  -26.8875   48.0286 O.3       3 ASP3        0.0000 
     43 CA         88.4034  -26.3634   47.1241 C.3       6 GLY6        0.0000 
     44 O          82.7836  -30.1223   50.7002 O.2       2 ALA2        0.0000 
     45 OG         83.8594  -29.5983   49.7957 O.2       1 SER1        0.0000 
     46 OG         84.9351  -29.0742   48.8912 O.2       1 SER1        0.0000 
     47 NZ         86.0108  -28.5501   47.9867 N.2       4 LYS4        0.0000 
     48 NZ         87.0866  -28.0260   47.0822 N.2       4 LYS4        0.0000 
     49 O          82.5426  -31.2609   49.7538 O.2       2 ALA2        0.0000 
     50 OG         85.7698  -29.6887   47.0403 O.2       1 SER1        0.0000 
     51 N          86.8456  -29.1646   46.1358 N.2       2 ALA2        0.0000 
     52 NZ         82.0074  -28.1598   50.9142 N.2       4 LYS4        0.0000 
     53 NZ         83.0832  -27.6357   50.0097 N.2       4 LYS4        0.0000 
     54 OD1        84.1589  -27.1116   49.1052 O.3       3 ASP3        0.0000 
     55 CA         86.3104  -26.0634   47.2962 C.3       6 GLY6        0.0000 
     56 O          79.6149  -30.3465   51.7769 O.2       2 ALA2        0.0000 
     57 O          80.6907  -29.8224   50.8724 O.2       2 ALA2        0.0000 
     58 OG         81.7664  -29.2983   49.9679 O.2       1 SER1        0.0000 
     59 NZ         82.8422  -28.7742   49.0634 N.2       4 LYS4        0.0000 
     60 NZ         83.9179  -28.2502   48.1589 N.2       4 LYS4        0.0000 
     61 NZ         79.3739  -31.4850   50.8305 N.2       4 LYS4        0.0000 
     62 OG         80.4496  -30.9610   49.9260 O.2       1 SER1        0.0000 
     63 OG         81.5254  -30.4369   49.0215 O.2       1 SER1        0.0000 
     64 NZ         82.6011  -29.9128   48.1170 N.2       4 LYS4        0.0000 
     65 NZ         80.2086  -32.0995   48.9797 N.2       4 LYS4        0.0000 
     66 CZ         81.2844  -31.5754   48.0752 C.ar      5 PHE5        0.0000 
     67 OG         82.3601  -31.0514   47.1707 O.2       1 SER1        0.0000 
     68 OG         83.4358  -30.5273   46.2662 O.2       1 SER1        0.0000 
     69 CZ         81.0433  -32.7140   47.1288 C.ar      5 PHE5        0.0000 
     70 CZ         82.1191  -32.1899   46.2243 C.ar      5 PHE5        0.0000 
     71 OG         83.1948  -31.6658   45.3198 O.2       1 SER1        0.0000 
     72 OG         78.5977  -29.5224   51.0446 O.2       1 SER1        0.0000 
     73 DU         77.2810  -31.1851   51.0027 H         7 CUB7        0.0000 
     74 OG         78.3567  -30.6610   50.0982 O.2       1 SER1        0.0000 
     75 NZ         78.1157  -31.7996   49.1518 N.2       4 LYS4        0.0000 
     76 OG         79.1914  -31.2755   48.2473 O.2       1 SER1        0.0000 
     77 OG         80.2672  -30.7514   47.3428 O.2       1 SER1        0.0000 
     78 NZ         81.3429  -30.2273   46.4383 N.2       4 LYS4        0.0000 
     79 NZ         78.9504  -32.4140   47.3010 N.2       4 LYS4        0.0000 
     80 N          80.0261  -31.8900   46.3965 N.2       2 ALA2        0.0000 
     81 CZ         81.1019  -31.3659   45.4920 C.ar      5 PHE5        0.0000 
     82 CA         76.2638  -30.3611   50.2704 C.3       6 GLY6        0.0000 
     83 NZ         76.0227  -31.4996   49.3240 N.2       4 LYS4        0.0000 
     84 NZ         77.0985  -30.9755   48.4195 N.2       4 LYS4        0.0000 
     85 OG         78.1742  -30.4515   47.5150 O.2       1 SER1        0.0000 
     86 OG         79.2500  -29.9274   46.6105 O.2       1 SER1        0.0000 
     87 NZ         80.3257  -29.4033   45.7060 N.2       4 LYS4        0.0000 
     88 NZ         77.9332  -31.5900   46.5687 N.2       4 LYS4        0.0000 
     89 CZ         79.0089  -31.0659   45.6642 C.ar      5 PHE5        0.0000 
     90 NZ         77.6922  -32.7286   45.6223 N.2       4 LYS4        0.0000 
     91 CA         75.2466  -29.5370   49.5381 C.3       6 GLY6        0.0000 
     92 DU         75.0056  -30.6756   48.5917 H         7 CUB7        0.0000 
     93 CA         76.0813  -30.1515   47.6872 C.3       6 GLY6        0.0000 
     94 CA         77.1570  -29.6274   46.7827 C.3       6 GLY6        0.0000 
     95 CA         78.2328  -29.1034   45.8782 C.3       6 GLY6        0.0000 
     96 NZ         74.7645  -31.8141   47.6454 N.2       4 LYS4        0.0000 
     97 NZ         75.8403  -31.2901   46.7409 N.2       4 LYS4        0.0000 
     98 DU         76.9160  -30.7660   45.8364 H         7 CUB7        0.0000 
     99 CZ         77.9918  -30.2419   44.9319 C.ar      5 PHE5        0.0000 
    100 NZ         75.5992  -32.4286   45.7945 N.2       4 LYS4        0.0000 
    101 CZ         76.6750  -31.9045   44.8900 C.ar      5 PHE5        0.0000 
    102 CA         75.3582  -33.5672   44.8481 C.3       6 GLY6        0.0000 
    103 CZ         76.4340  -33.0431   43.9436 C.ar      5 PHE5        0.0000 
    104 N          76.1929  -34.1817   42.9973 N.2       2 ALA2        0.0000 
    105 CA         73.9884  -29.8516   47.8594 C.3       6 GLY6        0.0000 
    106 N          75.0641  -29.3275   46.9549 N.2       2 ALA2        0.0000 
    107 OD1        73.7473  -30.9901   46.9130 O.3       3 ASP3        0.0000 
    108 CA         74.8231  -30.4660   46.0085 C.3       6 GLY6        0.0000 
    109 N          75.8988  -29.9420   45.1040 N.2       2 ALA2        0.0000 
    110 CA         76.9746  -29.4179   44.1995 C.3       6 GLY6        0.0000 
    111 OD1        74.5820  -31.6046   45.0622 O.3       3 ASP3        0.0000 
    112 CZ         75.6578  -31.0805   44.1577 C.ar      5 PHE5        0.0000 
    113 CZ         76.7335  -30.5564   43.2532 C.ar      5 PHE5        0.0000 
    114 CA         74.3410  -32.7432   44.1158 C.3       6 GLY6        0.0000 
    115 CZ         75.4168  -32.2191   43.2113 C.ar      5 PHE5        0.0000 
    116 CZ         76.4925  -31.6950   42.3068 C.ar      5 PHE5        0.0000 
    117 CA         74.1000  -33.8817   43.1695 C.3       6 GLY6        0.0000 
    118 CZ         75.1757  -33.3576   42.2650 C.ar      5 PHE5        0.0000 
    119 CA         73.8590  -35.0203   42.2231 C.3       6 GLY6        0.0000 
    120 N          74.9347  -34.4962   41.3186 N.2       2 ALA2        0.0000 
    121 CA         73.6179  -36.1588   41.2768 C.3       6 GLY6        0.0000 
    122 CA         73.8059  -29.6420   45.2762 C.3       6 GLY6        0.0000 
    123 O          74.8816  -29.1179   44.3717 O.2       2 ALA2        0.0000 
    124 CA         73.5649  -30.7806   44.3299 C.3       6 GLY6        0.0000 
    125 CZ         74.6406  -30.2565   43.4254 C.ar      5 PHE5        0.0000 
    126 CZ         73.3238  -31.9191   43.3835 C.ar      5 PHE5        0.0000 
    127 CA         73.0828  -33.0577   42.4371 C.3       6 GLY6        0.0000 
    128 CZ         74.1585  -32.5336   41.5326 C.ar      5 PHE5        0.0000 
    129 CA         72.8418  -34.1963   41.4908 C.3       6 GLY6        0.0000 
    130 DU         73.9175  -33.6722   40.5863 H         7 CUB7        0.0000 
@<TRIPOS>BOND
@<TRIPOS>SUBSTRUCTURE
     1 SER1        4 GROUP   
     2 ALA2        1 GROUP   
     3 ASP3       35 GROUP   
     4 LYS4       10 GROUP   
     5 PHE5        2 GROUP   
     6 GLY6        7 GROUP   
     7 CUB7       24 GROUP   
@<TRIPOS>SET

