#    Name: 1LVG_1_CAVITY_N1_6.mol2
#    Modification time : Mon Mar 10 14:56:29 2014

@<TRIPOS>MOLECULE
1LVG_1_CAVITY_N1_6.mol2
   76     0     7     0     0
SMALL
NO_CHARGES


@<TRIPOS>ATOM
      1 O          87.2105  -29.5837   51.3022 O.2       2 ALA2        0.0000 
      2 CZ         88.2863  -29.0596   50.3977 C.ar      5 PHE5        0.0000 
      3 CZ         89.3620  -28.5355   49.4932 C.ar      5 PHE5        0.0000 
      4 OG         86.9695  -30.7222   50.3558 O.2       1 SER1        0.0000 
      5 CZ         88.0452  -30.1982   49.4513 C.ar      5 PHE5        0.0000 
      6 CZ         89.1210  -29.6741   48.5468 C.ar      5 PHE5        0.0000 
      7 CA         90.1967  -29.1500   47.6423 C.3       6 GLY6        0.0000 
      8 CZ         88.8799  -30.8127   47.6005 C.ar      5 PHE5        0.0000 
      9 CZ         89.9557  -30.2886   46.6960 C.ar      5 PHE5        0.0000 
     10 NZ         91.0314  -29.7645   45.7915 N.2       4 LYS4        0.0000 
     11 CA         90.7904  -30.9031   44.8451 C.3       6 GLY6        0.0000 
     12 O          86.4343  -27.6211   51.5162 O.2       2 ALA2        0.0000 
     13 CZ         87.5101  -27.0970   50.6117 C.ar      5 PHE5        0.0000 
     14 CZ         88.5858  -26.5729   49.7072 C.ar      5 PHE5        0.0000 
     15 CZ         89.6616  -26.0489   48.8027 C.ar      5 PHE5        0.0000 
     16 O          85.1176  -29.2837   51.4744 O.2       2 ALA2        0.0000 
     17 O          86.1933  -28.7597   50.5699 O.2       2 ALA2        0.0000 
     18 CZ         87.2691  -28.2356   49.6654 C.ar      5 PHE5        0.0000 
     19 CZ         88.3448  -27.7115   48.7609 C.ar      5 PHE5        0.0000 
     20 CA         89.4205  -27.1874   47.8564 C.3       6 GLY6        0.0000 
     21 OG         84.8765  -30.4223   50.5280 O.2       1 SER1        0.0000 
     22 OG         85.9523  -29.8982   49.6235 O.2       1 SER1        0.0000 
     23 OG         87.0280  -29.3741   48.7190 O.2       1 SER1        0.0000 
     24 DU         88.1038  -28.8501   47.8145 H         7 CUB7        0.0000 
     25 O          89.1795  -28.3260   46.9100 O.2       2 ALA2        0.0000 
     26 OG         86.7870  -30.5127   47.7727 O.2       1 SER1        0.0000 
     27 CZ         87.8628  -29.9886   46.8682 C.ar      5 PHE5        0.0000 
     28 O          88.9385  -29.4645   45.9637 O.2       2 ALA2        0.0000 
     29 CZ         87.6217  -31.1272   45.9218 C.ar      5 PHE5        0.0000 
     30 CA         88.6975  -30.6031   45.0173 C.3       6 GLY6        0.0000 
     31 CA         89.7732  -30.0790   44.1128 C.3       6 GLY6        0.0000 
     32 CA         88.4564  -31.7417   44.0710 C.3       6 GLY6        0.0000 
     33 NZ         84.3414  -27.3211   51.6884 N.2       4 LYS4        0.0000 
     34 CA         85.4172  -26.7971   50.7839 C.3       6 GLY6        0.0000 
     35 OD1        86.4929  -26.2730   49.8794 O.3       3 ASP3        0.0000 
     36 N          87.5686  -25.7489   48.9749 N.2       2 ALA2        0.0000 
     37 N          88.6444  -25.2248   48.0704 N.2       2 ALA2        0.0000 
     38 O          83.0246  -28.9838   51.6466 O.2       2 ALA2        0.0000 
     39 NZ         84.1004  -28.4597   50.7421 N.2       4 LYS4        0.0000 
     40 OD1        85.1761  -27.9356   49.8376 O.3       3 ASP3        0.0000 
     41 OD1        86.2519  -27.4116   48.9331 O.3       3 ASP3        0.0000 
     42 OD1        87.3276  -26.8875   48.0286 O.3       3 ASP3        0.0000 
     43 CA         88.4034  -26.3634   47.1241 C.3       6 GLY6        0.0000 
     44 O          82.7836  -30.1223   50.7002 O.2       2 ALA2        0.0000 
     45 OG         83.8594  -29.5983   49.7957 O.2       1 SER1        0.0000 
     46 OG         84.9351  -29.0742   48.8912 O.2       1 SER1        0.0000 
     47 NZ         86.0108  -28.5501   47.9867 N.2       4 LYS4        0.0000 
     48 NZ         87.0866  -28.0260   47.0822 N.2       4 LYS4        0.0000 
     49 O          82.5426  -31.2609   49.7538 O.2       2 ALA2        0.0000 
     50 OG         85.7698  -29.6887   47.0403 O.2       1 SER1        0.0000 
     51 N          86.8456  -29.1646   46.1358 N.2       2 ALA2        0.0000 
     52 NZ         82.0074  -28.1598   50.9142 N.2       4 LYS4        0.0000 
     53 NZ         83.0832  -27.6357   50.0097 N.2       4 LYS4        0.0000 
     54 OD1        84.1589  -27.1116   49.1052 O.3       3 ASP3        0.0000 
     55 CA         86.3104  -26.0634   47.2962 C.3       6 GLY6        0.0000 
     56 O          79.6149  -30.3465   51.7769 O.2       2 ALA2        0.0000 
     57 O          80.6907  -29.8224   50.8724 O.2       2 ALA2        0.0000 
     58 OG         81.7664  -29.2983   49.9679 O.2       1 SER1        0.0000 
     59 NZ         82.8422  -28.7742   49.0634 N.2       4 LYS4        0.0000 
     60 NZ         83.9179  -28.2502   48.1589 N.2       4 LYS4        0.0000 
     61 NZ         79.3739  -31.4850   50.8305 N.2       4 LYS4        0.0000 
     62 OG         80.4496  -30.9610   49.9260 O.2       1 SER1        0.0000 
     63 OG         81.5254  -30.4369   49.0215 O.2       1 SER1        0.0000 
     64 NZ         82.6011  -29.9128   48.1170 N.2       4 LYS4        0.0000 
     65 NZ         80.2086  -32.0995   48.9797 N.2       4 LYS4        0.0000 
     66 CZ         81.2844  -31.5754   48.0752 C.ar      5 PHE5        0.0000 
     67 OG         82.3601  -31.0514   47.1707 O.2       1 SER1        0.0000 
     68 OG         83.4358  -30.5273   46.2662 O.2       1 SER1        0.0000 
     69 CZ         81.0433  -32.7140   47.1288 C.ar      5 PHE5        0.0000 
     70 CZ         82.1191  -32.1899   46.2243 C.ar      5 PHE5        0.0000 
     71 OG         83.1948  -31.6658   45.3198 O.2       1 SER1        0.0000 
     72 OG         79.1914  -31.2755   48.2473 O.2       1 SER1        0.0000 
     73 OG         80.2672  -30.7514   47.3428 O.2       1 SER1        0.0000 
     74 NZ         81.3429  -30.2273   46.4383 N.2       4 LYS4        0.0000 
     75 N          80.0261  -31.8900   46.3965 N.2       2 ALA2        0.0000 
     76 CZ         81.1019  -31.3659   45.4920 C.ar      5 PHE5        0.0000 
@<TRIPOS>BOND
@<TRIPOS>SUBSTRUCTURE
     1 SER1        4 GROUP   
     2 ALA2        1 GROUP   
     3 ASP3       35 GROUP   
     4 LYS4       10 GROUP   
     5 PHE5        2 GROUP   
     6 GLY6        7 GROUP   
     7 CUB7       24 GROUP   
@<TRIPOS>SET

