#    Name: 1lvg_5GP_1_INTS_M
#    Modification time : Tue Mar 25 11:17:12 2014

@<TRIPOS>MOLECULE
1lvg_5GP_1_INTS_M
   68     0    12     0     0
SMALL
NO_CHARGES


@<TRIPOS>ATOM
      1 NZ         85.6360  -32.7980   52.1425 N.4       3 LYC4        0.0000 
      2 NZ         86.2380  -31.6250   51.8040 N.4      11 LYL4        0.0000 
      3 NZ         83.7740  -34.3310   52.2620 N.4       7 LYP4        0.0000 
      4 NZ         86.7570  -31.2670   53.0930 N.4       3 LYC4        0.0000 
      5 NZ         87.2720  -29.6470   54.7810 N.4       7 LYP4        0.0000 
      6 N          85.6360  -32.7980   52.1425 N.am      2 SEC2        0.0000 
      7 N          86.2380  -31.6250   51.8040 N.am     10 SEL2        0.0000 
      8 N          85.0340  -33.9710   52.4810 N.am      6 SEP2        0.0000 
      9 N          87.3985  -32.1415   51.6135 N.am      2 SEC2        0.0000 
     10 N          88.5590  -32.6580   51.4230 N.am      6 SEP2        0.0000 
     11 N          86.7570  -31.2670   53.0930 N.am      2 SEC2        0.0000 
     12 N          87.2760  -30.9090   54.3820 N.am      6 SEP2        0.0000 
     13 NZ         83.6460  -32.4435   50.9220 N.4       3 LYC4        0.0000 
     14 NZ         84.3380  -31.3630   50.2460 N.4      11 LYL4        0.0000 
     15 N          83.6460  -32.4435   50.9220 N.am      2 SEC2        0.0000 
     16 N          84.3380  -31.3630   50.2460 N.am     10 SEL2        0.0000 
     17 N          82.9540  -33.5240   51.5980 N.am      6 SEP2        0.0000 
     18 N          84.5240  -31.7560   49.0410 N.am      2 SEC2        0.0000 
     19 N          84.7100  -32.1490   47.8360 N.am      6 SEP2        0.0000 
     20 NZ         84.3730  -30.2420   52.9390 N.4       3 LYC4        0.0000 
     21 NZ         84.9030  -29.5340   51.8470 N.4      11 LYL4        0.0000 
     22 NZ         82.5650  -31.3180   54.0710 N.4       7 LYP4        0.0000 
     23 NZ         85.7745  -29.1275   52.9545 N.4       3 LYC4        0.0000 
     24 N          84.3730  -30.2420   52.9390 N.am      2 SEC2        0.0000 
     25 N          84.9030  -29.5340   51.8470 N.am     10 SEL2        0.0000 
     26 N          83.8430  -30.9500   54.0310 N.am      6 SEP2        0.0000 
     27 N          85.7745  -29.1275   52.9545 N.am      2 SEC2        0.0000 
     28 N          86.6460  -28.7210   54.0620 N.am      6 SEP2        0.0000 
     29 CA         88.3890  -31.2175   47.3770 C.3       4 GLC5        0.0000 
     30 CA         88.2020  -29.0710   46.9230 C.3      12 GLL5        0.0000 
     31 CA         88.5760  -33.3640   47.8310 C.3       8 GLP5        0.0000 
     32 CA         89.7615  -27.7320   46.6685 C.3       4 GLC5        0.0000 
     33 CA         91.3210  -26.3930   46.4140 C.3       8 GLP5        0.0000 
     34 CA         87.1255  -33.0165   43.5085 C.3       4 GLC5        0.0000 
     35 CA         88.2780  -31.4630   44.2180 C.3      12 GLL5        0.0000 
     36 CA         85.9730  -34.5700   42.7990 C.3       8 GLP5        0.0000 
     37 CA         88.1665  -30.1995   42.6860 C.3       4 GLC5        0.0000 
     38 CA         88.0550  -28.9360   41.1540 C.3       8 GLP5        0.0000 
     39 N          87.3510  -33.1260   42.1360 N.am      2 SEC2        0.0000 
     40 N          88.6020  -32.8520   42.2630 N.am     10 SEL2        0.0000 
     41 N          86.1000  -33.4000   42.0090 N.am      6 SEP2        0.0000 
     42 O          91.5535  -31.0520   41.7855 O.2       1 ALC1        0.0000 
     43 O          90.1540  -31.2450   42.7850 O.2       9 ALL1        0.0000 
     44 O          92.9530  -30.8590   40.7860 O.2       5 ALP1        0.0000 
     45 O          90.6015  -31.5385   41.5095 O.2       1 ALC1        0.0000 
     46 O          91.0490  -31.8320   40.2340 O.2       5 ALP1        0.0000 
     47 O          92.3705  -30.2745   41.9600 O.2       1 ALC1        0.0000 
     48 O          91.7880  -29.6900   43.1340 O.2       9 ALL1        0.0000 
     49 O          92.2055  -28.6205   43.9560 O.2       1 ALC1        0.0000 
     50 O          92.6230  -27.5510   44.7780 O.2       5 ALP1        0.0000 
     51 N          89.8270  -28.2370   44.6425 N.am      2 SEC2        0.0000 
     52 N          90.0080  -29.7320   44.6750 N.am     10 SEL2        0.0000 
     53 N          89.6460  -26.7420   44.6100 N.am      6 SEP2        0.0000 
     54 CA         88.3030  -28.9610   44.0730 C.3       4 GLC5        0.0000 
     55 CA         88.8310  -30.4200   44.9320 C.3      12 GLL5        0.0000 
     56 CA         87.7750  -27.5020   43.2140 C.3       8 GLP5        0.0000 
     57 CA         89.4375  -28.9805   50.6098 C.3       4 GLC5        0.0000 
     58 CA         88.2620  -28.6190   49.2400 C.3      12 GLL5        0.0000 
     59 CA         90.9460  -28.9240   51.4460 C.3       8 GLP5        0.0000 
     60 CA         88.4710  -30.9635   49.9643 C.3       4 GLC5        0.0000 
     61 CA         89.0130  -32.8900   50.1550 C.3       8 GLP5        0.0000 
     62 CA         85.6735  -26.3272   47.5872 C.3       4 GLC5        0.0000 
     63 CA         87.4270  -27.5380   48.5180 C.3      12 GLL5        0.0000 
     64 CA         84.1180  -24.7940   47.3030 C.3       8 GLP5        0.0000 
     65 CA         87.6958  -28.0645   45.1440 C.3       4 GLC5        0.0000 
     66 CA         87.0310  -28.1830   47.2250 C.3      12 GLL5        0.0000 
     67 CA         89.5027  -32.2557   45.3535 C.3       4 GLC5        0.0000 
     68 CA         90.4510  -33.5700   46.1320 C.3       8 GLP5        0.0000 
@<TRIPOS>BOND
@<TRIPOS>SUBSTRUCTURE
     1 ALC1       42 GROUP        1 X    ALC  0     ROOT ALC X 1
     2 SEC2        6 GROUP        1 X    SEC  0     **** SEC X 2
     3 LYC4        1 GROUP        1 X    LYC  0     **** LYC X 4
     4 GLC5       29 GROUP        1 X    GLC  0     **** GLC X 6
     5 ALP1       44 GROUP        1 Y    ALP  0     ROOT ALP Y 8
     6 SEP2        8 GROUP        1 Y    SEP  0     **** SEP Y 9
     7 LYP4        3 GROUP        1 Y    LYP  0     **** LYP Y 11
     8 GLP5       31 GROUP        1 Y    GLP  0     **** GLP Y 13
     9 ALL1       43 GROUP        1 Z    ALL  0     ROOT ALL Z 15
    10 SEL2        7 GROUP        1 Z    SEL  0     **** SEL Z 16
    11 LYL4        2 GROUP        1 Z    LYL  0     **** LYL Z 18
    12 GLL5       30 GROUP        1 Z    GLL  0     **** GLL Z 20
@<TRIPOS>SET

