#    Name: 1lvg_5GP_1_ligand
#    Modification time : Tue Mar 25 11:17:12 2014

@<TRIPOS>MOLECULE
1lvg_5GP_1_ligand
   36    38     1     0     0
SMALL
NO_CHARGES


@<TRIPOS>ATOM
      1 P          85.4460  -30.6950   50.9940 P.3       1 5GP1202     0.0000 
      2 O1P        86.2380  -31.6250   51.8040 O.co2     1 5GP1202     0.0000 
      3 O2P        84.3380  -31.3630   50.2460 O.co2     1 5GP1202     0.0000 
      4 O3P        84.9030  -29.5340   51.8470 O.co2     1 5GP1202     0.0000 
      5 O5'        86.3010  -29.9120   49.9430 O.3       1 5GP1202     0.0000 
      6 C5'        87.5960  -29.4550   50.3070 C.3       1 5GP1202     0.0000 
      7 C4'        88.2620  -28.6190   49.2400 C.3       1 5GP1202     0.0000 
      8 O4'        88.8600  -29.4380   48.1410 O.3       1 5GP1202     0.0000 
      9 C3'        87.4270  -27.5380   48.5180 C.3       1 5GP1202     0.0000 
     10 O3'        88.1460  -26.3160   48.2540 O.3       1 5GP1202     0.0000 
     11 C2'        87.0310  -28.1830   47.2250 C.3       1 5GP1202     0.0000 
     12 O2'        86.7610  -27.2600   46.1870 O.3       1 5GP1202     0.0000 
     13 C1'        88.2020  -29.0710   46.9230 C.3       1 5GP1202     0.0000 
     14 N9         87.9600  -30.1720   45.9620 N.pl3     1 5GP1202     0.0000 
     15 C8         86.9380  -31.0850   45.8300 C.2       1 5GP1202     0.0000 
     16 N7         87.0570  -31.8960   44.8060 N.2       1 5GP1202     0.0000 
     17 C5         88.2780  -31.4630   44.2180 C.2       1 5GP1202     0.0000 
     18 C6         88.9490  -31.9540   43.0300 C.2       1 5GP1202     0.0000 
     19 O6         88.6020  -32.8520   42.2630 O.2       1 5GP1202     0.0000 
     20 N1         90.1540  -31.2450   42.7850 N.am      1 5GP1202     0.0000 
     21 C2         90.6300  -30.2090   43.5720 C.2       1 5GP1202     0.0000 
     22 N2         91.7880  -29.6900   43.1340 N.pl3     1 5GP1202     0.0000 
     23 N3         90.0080  -29.7320   44.6750 N.2       1 5GP1202     0.0000 
     24 C4         88.8310  -30.4200   44.9320 C.2       1 5GP1202     0.0000 
     25 H          88.2740  -30.3088   50.5390 H         1 5GP1202     0.0000 
     26 H          87.5608  -28.8460   51.2399 H         1 5GP1202     0.0000 
     27 H          89.1249  -28.0682   49.7033 H         1 5GP1202     0.0000 
     28 H          86.5358  -27.3773   49.0939 H         1 5GP1202     0.0000 
     29 H          86.1864  -28.8351   47.4369 H         1 5GP1202     0.0000 
     30 H          88.9516  -28.3515   46.3815 H         1 5GP1202     0.0000 
     31 H          86.1726  -31.1020   46.4866 H         1 5GP1202     0.0000 
     32 H          90.7176  -31.5380   41.9402 H         1 5GP1202     0.0000 
     33 H          91.9405  -28.7223   43.3350 H         1 5GP1202     0.0000 
     34 H          92.3947  -30.3174   42.6459 H         1 5GP1202     0.0000 
     35 H          87.5898  -25.8289   47.5807 H         1 5GP1202     0.0000 
     36 H          87.0020  -26.3666   46.5662 H         1 5GP1202     0.0000 
@<TRIPOS>BOND
     1    2    1 ar   
     2    3    1 ar   
     3    4    1 ar   
     4    5    1 1    
     5    6    5 1    
     6    7    6 1    
     7   25    6 1    
     8   26    6 1    
     9    8    7 1    
    10    9    7 1    
    11   27    7 1    
    12   13    8 1    
    13   10    9 1    
    14   11    9 1    
    15   28    9 1    
    16   35   10 1    
    17   12   11 1    
    18   13   11 1    
    19   29   11 1    
    20   36   12 1    
    21   14   13 1    
    22   30   13 1    
    23   15   14 1    
    24   24   14 1    
    25   16   15 2    
    26   31   15 1    
    27   17   16 1    
    28   18   17 1    
    29   24   17 2    
    30   19   18 2    
    31   20   18 am   
    32   21   20 1    
    33   32   20 1    
    34   22   21 1    
    35   23   21 2    
    36   33   22 1    
    37   34   22 1    
    38   24   23 1    
@<TRIPOS>SUBSTRUCTURE
     1 5GP1202     1 GROUP   
@<TRIPOS>SET

