#    Name: 3lqs_PSZ_1_INTS_M
#    Modification time : Mon Mar 24 22:09:01 2014

@<TRIPOS>MOLECULE
3lqs_PSZ_1_INTS_M
   69     0    12     0     0
SMALL
NO_CHARGES


@<TRIPOS>ATOM
      1 CA         52.5105   16.7555   14.0345 C.3       4 GLC5        0.0000 
      2 CA         50.6580   16.5040   14.7470 C.3      12 GLL5        0.0000 
      3 CA         54.3630   17.0070   13.3220 C.3       8 GLP5        0.0000 
      4 CA         51.7810   19.2510   16.4190 C.3       4 GLC5        0.0000 
      5 CA         50.9230   18.1000   15.2180 C.3      12 GLL5        0.0000 
      6 CA         52.6390   20.4020   17.6200 C.3       8 GLP5        0.0000 
      7 CA         52.7810   17.9265   14.9075 C.3       4 GLC5        0.0000 
      8 CA         54.6390   17.7530   14.5970 C.3       8 GLP5        0.0000 
      9 CA         50.3195   19.8240   16.2955 C.3       4 GLC5        0.0000 
     10 CA         49.4130   18.7070   14.7370 C.3      12 GLL5        0.0000 
     11 CA         51.2260   20.9410   17.8540 C.3       8 GLP5        0.0000 
     12 O          47.3755   16.7890   12.5550 O.2       1 ALC1        0.0000 
     13 O          47.5260   17.7530   13.5840 O.2       9 ALL1        0.0000 
     14 O          47.2250   15.8250   11.5260 O.2       5 ALP1        0.0000 
     15 N          43.6530   16.2925   15.1775 N.am      2 SEC2        0.0000 
     16 N          44.3100   17.4180   14.5610 N.am     10 SEL2        0.0000 
     17 N          42.9960   15.1670   15.7940 N.am      6 SEP2        0.0000 
     18 CA         40.7785   16.7865   11.0170 C.3       4 GLC5        0.0000 
     19 CA         41.8360   17.0580   12.9150 C.3      12 GLL5        0.0000 
     20 CA         39.7210   16.5150    9.1190 C.3       8 GLP5        0.0000 
     21 CA         46.1625   18.2080   10.0370 C.3       4 GLC5        0.0000 
     22 CA         46.4110   20.0540   10.9030 C.3      12 GLL5        0.0000 
     23 CA         45.9140   16.3620    9.1710 C.3       8 GLP5        0.0000 
     24 CA         45.7035   21.9500   10.2090 C.3       4 GLC5        0.0000 
     25 CA         44.9960   23.8460    9.5150 C.3       8 GLP5        0.0000 
     26 CA         48.0425   19.0190   10.6630 C.3       4 GLC5        0.0000 
     27 CA         49.6740   17.9840   10.4230 C.3       8 GLP5        0.0000 
     28 N          48.6960   23.4185    9.2275 N.am      2 SEC2        0.0000 
     29 N          48.3430   22.2370   10.0150 N.am     10 SEL2        0.0000 
     30 N          49.0490   24.6000    8.4400 N.am      6 SEP2        0.0000 
     31 N          49.5935   22.3905    9.4555 N.am      2 SEC2        0.0000 
     32 N          50.8440   22.5440    8.8960 N.am      6 SEP2        0.0000 
     33 N          47.6740   21.8545    8.9110 N.am      2 SEC2        0.0000 
     34 N          47.0050   21.4720    7.8070 N.am      6 SEP2        0.0000 
     35 NZ         46.2620   24.2580   12.3935 N.4       3 LYC4        0.0000 
     36 NZ         47.4490   23.5230   11.9930 N.4      11 LYL4        0.0000 
     37 NZ         45.5060   25.2150   14.0350 N.4       7 LYP4        0.0000 
     38 N          46.2620   24.2580   12.3935 N.am      2 SEC2        0.0000 
     39 N          47.4490   23.5230   11.9930 N.am     10 SEL2        0.0000 
     40 N          45.0750   24.9930   12.7940 N.am      6 SEP2        0.0000 
     41 N          46.9845   24.0185   13.2680 N.am      2 SEC2        0.0000 
     42 N          46.5200   24.5140   14.5430 N.am      6 SEP2        0.0000 
     43 N          47.1490   24.4425   11.0150 N.am      2 SEC2        0.0000 
     44 N          46.8490   25.3620   10.0370 N.am      6 SEP2        0.0000 
     45 N          50.0745   20.9115   11.7030 N.am      2 SEC2        0.0000 
     46 N          48.8820   21.4270   12.2890 N.am     10 SEL2        0.0000 
     47 N          51.2670   20.3960   11.1170 N.am      6 SEP2        0.0000 
     48 N          50.0230   22.0610   12.5610 N.am      2 SEC2        0.0000 
     49 N          51.1640   22.6950   12.8330 N.am      6 SEP2        0.0000 
     50 CA         51.1575   20.0457   14.0058 C.3       4 GLC5        0.0000 
     51 CA         52.1470   21.6880   13.0340 C.3       8 GLP5        0.0000 
     52 CA         47.7600   15.7250   13.9053 C.3       4 GLC5        0.0000 
     53 CA         48.7340   17.6910   14.1480 C.3      12 GLL5        0.0000 
     54 CA         46.3890   14.2380   13.5980 C.3       8 GLP5        0.0000 
     55 CA         49.4874   17.7250   12.3914 C.3       4 GLC5        0.0000 
     56 CA         49.5280   16.7330   14.2770 C.3      12 GLL5        0.0000 
     57 CA         45.1097   16.4878   12.7933 C.3       4 GLC5        0.0000 
     58 CA         45.4130   18.7270   12.8280 C.3      12 GLL5        0.0000 
     59 CA         45.3880   14.6250   12.5080 C.3       8 GLP5        0.0000 
     60 CA         44.2870   20.1550   13.2929 C.3       4 GLC5        0.0000 
     61 CA         44.2500   17.9740   13.3290 C.3      12 GLL5        0.0000 
     62 CA         43.4310   21.9150   13.2910 C.3       8 GLP5        0.0000 
     63 CA         43.9167   16.0340   12.5945 C.3       4 GLC5        0.0000 
     64 CA         43.0550   17.8280   12.4470 C.3      12 GLL5        0.0000 
     65 CA         41.8372   19.4280   12.3845 C.3       4 GLC5        0.0000 
     66 CA         41.2290   21.4130   12.0880 C.3       8 GLP5        0.0000 
     67 CA         45.3244   17.7051   10.3027 C.3       4 GLC5        0.0000 
     68 CA         44.1160   19.0990   10.7260 C.3      12 GLL5        0.0000 
     69 CA         44.4945   20.7669   12.1443 C.3       4 GLC5        0.0000 
@<TRIPOS>BOND
@<TRIPOS>SUBSTRUCTURE
     1 ALC1       12 GROUP        1 X    ALC  0     ROOT ALC X 1
     2 SEC2       15 GROUP        1 X    SEC  0     **** SEC X 2
     3 LYC4       35 GROUP        1 X    LYC  0     **** LYC X 4
     4 GLC5        1 GROUP        1 X    GLC  0     **** GLC X 6
     5 ALP1       14 GROUP        1 Y    ALP  0     ROOT ALP Y 8
     6 SEP2       17 GROUP        1 Y    SEP  0     **** SEP Y 9
     7 LYP4       37 GROUP        1 Y    LYP  0     **** LYP Y 11
     8 GLP5        3 GROUP        1 Y    GLP  0     **** GLP Y 13
     9 ALL1       13 GROUP        1 Z    ALL  0     ROOT ALL Z 15
    10 SEL2       16 GROUP        1 Z    SEL  0     **** SEL Z 16
    11 LYL4       36 GROUP        1 Z    LYL  0     **** LYL Z 18
    12 GLL5        2 GROUP        1 Z    GLL  0     **** GLL Z 20
@<TRIPOS>SET

