#    Name: 3lqs_PSZ_1_ligand
#    Modification time : Mon Mar 24 22:09:01 2014

@<TRIPOS>MOLECULE
3lqs_PSZ_1_ligand
   36    37     1     0     0
SMALL
NO_CHARGES


@<TRIPOS>ATOM
      1 O1T        51.3820   14.2110   14.3630 O.co2     1 PSZ595      0.0000 
      2 C3A        51.5470   15.3170   14.9550 C.2       1 PSZ595      0.0000 
      3 O2T        52.5250   15.4690   15.7460 O.co2     1 PSZ595      0.0000 
      4 C2T        50.6580   16.5040   14.7470 C.2       1 PSZ595      0.0000 
      5 S          50.9230   18.1000   15.2180 S.3       1 PSZ595      0.0000 
      6 C5T        49.4130   18.7070   14.7370 C.2       1 PSZ595      0.0000 
      7 C4T        48.7340   17.6910   14.1480 C.2       1 PSZ595      0.0000 
      8 C3T        49.5280   16.7330   14.2770 C.2       1 PSZ595      0.0000 
      9 N4A        47.5260   17.7530   13.5840 N.pl3     1 PSZ595      0.0000 
     10 C4A        46.6590   18.9050   13.6930 C.3       1 PSZ595      0.0000 
     11 C4         45.4130   18.7270   12.8280 C.ar      1 PSZ595      0.0000 
     12 C3         44.2500   17.9740   13.3290 C.ar      1 PSZ595      0.0000 
     13 O3         44.3100   17.4180   14.5610 O.3       1 PSZ595      0.0000 
     14 C2         43.0550   17.8280   12.4470 C.ar      1 PSZ595      0.0000 
     15 C2A        41.8360   17.0580   12.9150 C.3       1 PSZ595      0.0000 
     16 N1         43.0710   18.3880   11.2220 N.ar      1 PSZ595      0.0000 
     17 C6         44.1160   19.0990   10.7260 C.ar      1 PSZ595      0.0000 
     18 C5         45.2940   19.2680   11.4580 C.ar      1 PSZ595      0.0000 
     19 C5A        46.4110   20.0540   10.9030 C.3       1 PSZ595      0.0000 
     20 O4P        46.5130   21.3900   11.4840 O.3       1 PSZ595      0.0000 
     21 P          47.8970   22.2020   11.4640 P.3       1 PSZ595      0.0000 
     22 O3P        48.3430   22.2370   10.0150 O.co2     1 PSZ595      0.0000 
     23 O1P        47.4490   23.5230   11.9930 O.co2     1 PSZ595      0.0000 
     24 O2P        48.8820   21.4270   12.2890 O.co2     1 PSZ595      0.0000 
     25 H          49.2676   19.5790   14.9259 H         1 PSZ595      0.0000 
     26 H          49.0570   15.7341   13.8048 H         1 PSZ595      0.0000 
     27 H          47.1443   16.9484   13.0234 H         1 PSZ595      0.0000 
     28 H          47.1704   19.8198   13.3659 H         1 PSZ595      0.0000 
     29 H          46.3322   19.0599   14.7297 H         1 PSZ595      0.0000 
     30 H          44.0549   19.5346    9.7809 H         1 PSZ595      0.0000 
     31 H          46.2905   20.1322    9.8009 H         1 PSZ595      0.0000 
     32 H          47.3618   19.5013   11.0635 H         1 PSZ595      0.0000 
     33 H          42.0575   16.1068   13.1300 H         1 PSZ595      0.0000 
     34 H          41.4370   17.4595   13.7394 H         1 PSZ595      0.0000 
     35 H          41.1175   17.0417   12.2197 H         1 PSZ595      0.0000 
     36 H          45.2251   17.6370   14.8993 H         1 PSZ595      0.0000 
@<TRIPOS>BOND
     1    2    1 ar   
     2    3    2 ar   
     3    4    2 1    
     4    5    4 1    
     5    8    4 2    
     6    6    5 1    
     7    7    6 2    
     8   25    6 1    
     9    8    7 1    
    10    9    7 1    
    11   26    8 1    
    12   10    9 1    
    13   27    9 1    
    14   11   10 1    
    15   28   10 1    
    16   29   10 1    
    17   12   11 ar   
    18   18   11 ar   
    19   13   12 1    
    20   14   12 ar   
    21   36   13 1    
    22   15   14 1    
    23   16   14 ar   
    24   33   15 1    
    25   34   15 1    
    26   35   15 1    
    27   17   16 ar   
    28   18   17 ar   
    29   30   17 1    
    30   19   18 1    
    31   20   19 1    
    32   31   19 1    
    33   32   19 1    
    34   21   20 1    
    35   22   21 ar   
    36   23   21 ar   
    37   24   21 ar   
@<TRIPOS>SUBSTRUCTURE
     1 PSZ595      1 GROUP   
@<TRIPOS>SET

