#    Name: 1ho5_ADN_2_INTS_M
#    Modification time : Tue Mar 25 05:38:14 2014

@<TRIPOS>MOLECULE
1ho5_ADN_2_INTS_M
   41     0     9     0     0
SMALL
NO_CHARGES


@<TRIPOS>ATOM
      1 N           7.4260   10.3715   33.5345 N.am      2 SEC2        0.0000 
      2 N           6.3010   11.1060   32.7540 N.am      8 SEL2        0.0000 
      3 N           8.5510    9.6370   34.3150 N.am      5 SEP2        0.0000 
      4 CA          5.8460   14.0430   32.6560 C.3       3 GLC5        0.0000 
      5 CA          5.8130   12.1630   33.5770 C.3       9 GLL5        0.0000 
      6 CA          5.8790   15.9230   31.7350 C.3       6 GLP5        0.0000 
      7 CA          5.3350    9.8235   35.9050 C.3       3 GLC5        0.0000 
      8 CA          5.7230   11.7060   35.0130 C.3       9 GLL5        0.0000 
      9 CA          4.9470    7.9410   36.7970 C.3       6 GLP5        0.0000 
     10 CA          4.9970   14.5845   34.9850 C.3       3 GLC5        0.0000 
     11 CA          5.2110   12.7570   35.9800 C.3       9 GLL5        0.0000 
     12 CA          4.7830   16.4120   33.9900 C.3       6 GLP5        0.0000 
     13 O           3.5655   13.6065   36.8900 O.2       1 ALC1        0.0000 
     14 O           3.7880   12.7920   35.9800 O.2       7 ALL1        0.0000 
     15 O           3.3430   14.4210   37.8000 O.2       4 ALP1        0.0000 
     16 CA          6.1465   13.6675   38.5925 C.3       3 GLC5        0.0000 
     17 CA          5.8070   12.3000   37.3130 C.3       9 GLL5        0.0000 
     18 CA          6.4860   15.0350   39.8720 C.3       6 GLP5        0.0000 
     19 O           3.5050   10.6960   37.9715 O.2       1 ALC1        0.0000 
     20 O           5.0830   11.2890   37.9830 O.2       7 ALL1        0.0000 
     21 O           1.9270   10.1030   37.9600 O.2       4 ALP1        0.0000 
     22 O           4.2415   11.9990   38.5715 O.2       1 ALC1        0.0000 
     23 O           3.4000   12.7090   39.1600 O.2       4 ALP1        0.0000 
     24 CA          9.0465   11.0020   36.5065 C.3       3 GLC5        0.0000 
     25 CA          7.1580   11.7350   36.8700 C.3       9 GLL5        0.0000 
     26 CA         10.9350   10.2690   36.1430 C.3       6 GLP5        0.0000 
     27 CA         11.1755   16.0945   39.4440 C.3       3 GLC5        0.0000 
     28 CA         11.0340   14.0410   38.6970 C.3       9 GLL5        0.0000 
     29 CA         11.3170   18.1480   40.1910 C.3       6 GLP5        0.0000 
     30 CA         12.1800   12.5540   39.1850 C.3       3 GLC5        0.0000 
     31 CA         13.3260   11.0670   39.6730 C.3       6 GLP5        0.0000 
     32 N          11.8100   13.1625   41.2595 N.am      2 SEC2        0.0000 
     33 N          11.0080   13.3580   39.8660 N.am      8 SEL2        0.0000 
     34 N          12.6120   12.9670   42.6530 N.am      5 SEP2        0.0000 
     35 CA         11.6845   11.7600   39.8650 C.3       3 GLC5        0.0000 
     36 CA         10.0430   12.4530   40.0570 C.3       9 GLL5        0.0000 
     37 CA          9.3275   13.3185   41.7980 C.3       3 GLC5        0.0000 
     38 CA          8.6120   14.1840   43.5390 C.3       6 GLP5        0.0000 
     39 CA          3.6270   11.2332   35.5392 C.3       3 GLC5        0.0000 
     40 CA          1.7870   10.2350   35.5820 C.3       6 GLP5        0.0000 
     41 CA          5.7148    9.9793   36.9442 C.3       3 GLC5        0.0000 
@<TRIPOS>BOND
@<TRIPOS>SUBSTRUCTURE
     1 ALC1       13 GROUP        1 X    ALC  0     ROOT ALC X 1
     2 SEC2        1 GROUP        1 X    SEC  0     **** SEC X 2
     3 GLC5        4 GROUP        1 X    GLC  0     **** GLC X 6
     4 ALP1       15 GROUP        1 Y    ALP  0     ROOT ALP Y 8
     5 SEP2        3 GROUP        1 Y    SEP  0     **** SEP Y 9
     6 GLP5        6 GROUP        1 Y    GLP  0     **** GLP Y 13
     7 ALL1       14 GROUP        1 Z    ALL  0     ROOT ALL Z 15
     8 SEL2        2 GROUP        1 Z    SEL  0     **** SEL Z 16
     9 GLL5        5 GROUP        1 Z    GLL  0     **** GLL Z 20
@<TRIPOS>SET

