#    Name: 1ho5_ADN_2_ligand
#    Modification time : Tue Mar 25 05:38:14 2014

@<TRIPOS>MOLECULE
1ho5_ADN_2_ligand
   32    34     1     0     0
SMALL
NO_CHARGES


@<TRIPOS>ATOM
      1 O5'         6.3010   11.1060   32.7540 O.3       1 ADN2604     0.0000 
      2 C5'         5.8130   12.1630   33.5770 C.3       1 ADN2604     0.0000 
      3 C4'         5.7230   11.7060   35.0130 C.3       1 ADN2604     0.0000 
      4 O4'         7.0520   11.3890   35.5000 O.3       1 ADN2604     0.0000 
      5 C3'         5.2110   12.7570   35.9800 C.3       1 ADN2604     0.0000 
      6 O3'         3.7880   12.7920   35.9800 O.3       1 ADN2604     0.0000 
      7 C2'         5.8070   12.3000   37.3130 C.3       1 ADN2604     0.0000 
      8 O2'         5.0830   11.2890   37.9830 O.3       1 ADN2604     0.0000 
      9 C1'         7.1580   11.7350   36.8700 C.3       1 ADN2604     0.0000 
     10 N9          8.2700   12.6720   37.0110 N.pl3     1 ADN2604     0.0000 
     11 C8          8.7140   13.5910   36.0930 C.2       1 ADN2604     0.0000 
     12 N7          9.7670   14.2600   36.4850 N.2       1 ADN2604     0.0000 
     13 C5         10.0290   13.7590   37.7530 C.ar      1 ADN2604     0.0000 
     14 C6         11.0340   14.0410   38.6970 C.ar      1 ADN2604     0.0000 
     15 N6         12.0080   14.9310   38.4990 N.pl3     1 ADN2604     0.0000 
     16 N1         11.0080   13.3580   39.8660 N.ar      1 ADN2604     0.0000 
     17 C2         10.0430   12.4530   40.0570 C.ar      1 ADN2604     0.0000 
     18 N3          9.0510   12.0930   39.2450 N.ar      1 ADN2604     0.0000 
     19 C4          9.1040   12.7910   38.0950 C.ar      1 ADN2604     0.0000 
     20 H           4.8125   12.4919   33.2595 H         1 ADN2604     0.0000 
     21 H           6.4738   13.0416   33.5386 H         1 ADN2604     0.0000 
     22 H           5.0994   10.8359   35.0890 H         1 ADN2604     0.0000 
     23 H           5.6669   13.6855   35.7186 H         1 ADN2604     0.0000 
     24 H           6.0130   13.1628   37.9009 H         1 ADN2604     0.0000 
     25 H           7.3503   10.8410   37.4577 H         1 ADN2604     0.0000 
     26 H           8.2496   13.7127   35.2113 H         1 ADN2604     0.0000 
     27 H          11.9785   15.4303   37.6331 H         1 ADN2604     0.0000 
     28 H          12.6800   15.0188   39.2343 H         1 ADN2604     0.0000 
     29 H          10.0748   11.9262   41.0349 H         1 ADN2604     0.0000 
     30 H           6.0702   11.3779   31.8198 H         1 ADN2604     0.0000 
     31 H           3.5517   13.7064   36.3087 H         1 ADN2604     0.0000 
     32 H           4.1554   11.6515   38.0728 H         1 ADN2604     0.0000 
@<TRIPOS>BOND
     1    2    1 1    
     2   30    1 1    
     3    3    2 1    
     4   20    2 1    
     5   21    2 1    
     6    4    3 1    
     7    5    3 1    
     8   22    3 1    
     9    9    4 1    
    10    6    5 1    
    11    7    5 1    
    12   23    5 1    
    13   31    6 1    
    14    8    7 1    
    15    9    7 1    
    16   24    7 1    
    17   32    8 1    
    18   10    9 1    
    19   25    9 1    
    20   11   10 1    
    21   19   10 1    
    22   12   11 2    
    23   26   11 1    
    24   13   12 1    
    25   14   13 ar   
    26   19   13 ar   
    27   15   14 1    
    28   16   14 ar   
    29   27   15 1    
    30   28   15 1    
    31   17   16 ar   
    32   18   17 ar   
    33   29   17 1    
    34   19   18 ar   
@<TRIPOS>SUBSTRUCTURE
     1 ADN2604     1 GROUP   
@<TRIPOS>SET

