#    Name: 3jqg_AX6_1_INTS_M
#    Modification time : Tue Mar 25 17:47:39 2014

@<TRIPOS>MOLECULE
3jqg_AX6_1_INTS_M
   43     0     6     0     0
SMALL
NO_CHARGES


@<TRIPOS>ATOM
      1 CA         10.6710  -10.5690   16.2265 C.3       2 GLC5        0.0000 
      2 CA          9.8370  -11.2870   14.4320 C.3       6 GLL5        0.0000 
      3 CA         11.5050   -9.8510   18.0210 C.3       4 GLP5        0.0000 
      4 CA          9.9045   -9.6885   16.5935 C.3       2 GLC5        0.0000 
      5 CA          8.3040   -9.5260   15.1660 C.3       6 GLL5        0.0000 
      6 CA          8.8125   -8.0305   14.0570 C.3       2 GLC5        0.0000 
      7 CA          9.3210   -6.5350   12.9480 C.3       4 GLP5        0.0000 
      8 CA          3.2780  -13.8440   18.4455 C.3       2 GLC5        0.0000 
      9 CA          3.6200  -14.3990   16.7080 C.3       6 GLL5        0.0000 
     10 CA          2.9360  -13.2890   20.1830 C.3       4 GLP5        0.0000 
     11 CA          2.4180  -15.4740   17.4030 C.3       2 GLC5        0.0000 
     12 CA          1.2160  -16.5490   18.0980 C.3       4 GLP5        0.0000 
     13 CA          8.4240  -15.1650   11.8650 C.3       2 GLC5        0.0000 
     14 CA          8.7380  -13.5180   13.1440 C.3       6 GLL5        0.0000 
     15 CA          8.1100  -16.8120   10.5860 C.3       4 GLP5        0.0000 
     16 CA         10.3020  -12.5320   15.9545 C.3       2 GLC5        0.0000 
     17 CA         10.3140  -12.9620   13.9050 C.3       6 GLL5        0.0000 
     18 CA         10.2900  -12.1020   18.0040 C.3       4 GLP5        0.0000 
     19 CA         10.1455  -14.9315   14.2460 C.3       2 GLC5        0.0000 
     20 CA          9.9770  -16.9010   14.5870 C.3       4 GLP5        0.0000 
     21 CA         11.6020   -7.1380   14.9740 C.3       2 GLC5        0.0000 
     22 CA         10.6100   -9.1220   14.9000 C.3       6 GLL5        0.0000 
     23 CA         12.5940   -5.1540   15.0480 C.3       4 GLP5        0.0000 
     24 CA         11.0575   -9.4865   16.4605 C.3       2 GLC5        0.0000 
     25 CA          9.9655   -7.8285   13.9240 C.3       2 GLC5        0.0000 
     26 O          11.7505   -7.0380   15.5285 O.2       1 ALC1        0.0000 
     27 O          11.6300   -8.2720   14.9750 O.2       5 ALL1        0.0000 
     28 O          11.8710   -5.8040   16.0820 O.2       3 ALP1        0.0000 
     29 O          12.6035   -9.4005   14.2110 O.2       1 ALC1        0.0000 
     30 O          13.5770  -10.5290   13.4470 O.2       3 ALP1        0.0000 
     31 O           7.0165   -7.9110   16.1440 O.2       1 ALC1        0.0000 
     32 O           7.0810   -9.0380   15.5110 O.2       5 ALL1        0.0000 
     33 O           6.9520   -6.7840   16.7770 O.2       3 ALP1        0.0000 
     34 CA          6.3792  -16.9708   15.8592 C.3       2 GLC5        0.0000 
     35 CA          6.9540  -15.0040   16.2550 C.3       6 GLL5        0.0000 
     36 CA          6.4610  -18.9380   15.6980 C.3       4 GLP5        0.0000 
     37 CA          5.5175  -15.9378   13.0752 C.3       2 GLC5        0.0000 
     38 CA          5.3490  -14.5400   14.5030 C.3       6 GLL5        0.0000 
     39 CA          5.1810  -17.5740   12.0620 C.3       4 GLP5        0.0000 
     40 CA          8.7188  -15.8310   15.2122 C.3       2 GLC5        0.0000 
     41 CA          7.9670  -14.5180   15.4200 C.3       6 GLL5        0.0000 
     42 CA          8.4426  -15.5136   13.5055 C.3       2 GLC5        0.0000 
     43 CA          9.0080  -17.2410   13.4890 C.3       4 GLP5        0.0000 
@<TRIPOS>BOND
@<TRIPOS>SUBSTRUCTURE
     1 ALC1       26 GROUP        1 X    ALC  0     ROOT ALC X 1
     2 GLC5        1 GROUP        1 X    GLC  0     **** GLC X 6
     3 ALP1       28 GROUP        1 Y    ALP  0     ROOT ALP Y 8
     4 GLP5        3 GROUP        1 Y    GLP  0     **** GLP Y 13
     5 ALL1       27 GROUP        1 Z    ALL  0     ROOT ALL Z 15
     6 GLL5        2 GROUP        1 Z    GLL  0     **** GLL Z 20
@<TRIPOS>SET

