#    Name: 3jqg_AX6_1_ligand
#    Modification time : Tue Mar 25 17:47:39 2014

@<TRIPOS>MOLECULE
3jqg_AX6_1_ligand
   32    33     1     0     0
SMALL
NO_CHARGES


@<TRIPOS>ATOM
      1 C4          9.8370  -11.2870   14.4320 C.ar      1 AX6270      0.0000 
      2 C5          8.5150  -10.8630   14.7560 C.ar      1 AX6270      0.0000 
      3 C6          8.3040   -9.5260   15.1660 C.ar      1 AX6270      0.0000 
      4 N1          9.3660   -8.6970   15.2120 N.ar      1 AX6270      0.0000 
      5 N3         10.8370  -10.4000   14.5120 N.ar      1 AX6270      0.0000 
      6 CAA         3.6200  -14.3990   16.7080 C.3       1 AX6270      0.0000 
      7 OAL         4.6220  -15.4440   16.5670 O.3       1 AX6270      0.0000 
      8 CAP         5.6410  -15.0030   15.7860 C.ar      1 AX6270      0.0000 
      9 CAG         5.3490  -14.5400   14.5030 C.ar      1 AX6270      0.0000 
     10 CAE         6.3590  -14.0630   13.6740 C.ar      1 AX6270      0.0000 
     11 CAF         6.9540  -15.0040   16.2550 C.ar      1 AX6270      0.0000 
     12 CAD         7.9670  -14.5180   15.4200 C.ar      1 AX6270      0.0000 
     13 CAO         7.6740  -14.0460   14.1260 C.ar      1 AX6270      0.0000 
     14 CAI         8.7380  -13.5180   13.1440 C.3       1 AX6270      0.0000 
     15 SAM        10.3140  -12.9620   13.9050 S.3       1 AX6270      0.0000 
     16 C2         10.6100   -9.1220   14.9000 C.ar      1 AX6270      0.0000 
     17 NAC        11.6300   -8.2720   14.9750 N.pl3     1 AX6270      0.0000 
     18 NAB         7.0810   -9.0380   15.5110 N.pl3     1 AX6270      0.0000 
     19 H           7.7425  -11.5130   14.6919 H         1 AX6270      0.0000 
     20 H           4.3732  -14.5522   14.1670 H         1 AX6270      0.0000 
     21 H           6.1341  -13.7244   12.7310 H         1 AX6270      0.0000 
     22 H           7.1743  -15.3506   17.1856 H         1 AX6270      0.0000 
     23 H           8.9418  -14.5039   15.7535 H         1 AX6270      0.0000 
     24 H           8.4237  -12.6306   12.6092 H         1 AX6270      0.0000 
     25 H           9.0818  -14.2674   12.4421 H         1 AX6270      0.0000 
     26 H          11.4150   -7.3552   15.3116 H         1 AX6270      0.0000 
     27 H          12.5200   -8.6263   14.6880 H         1 AX6270      0.0000 
     28 H           7.0442   -8.0655   15.7409 H         1 AX6270      0.0000 
     29 H           6.3272   -9.6950   15.5042 H         1 AX6270      0.0000 
     30 H           3.9985  -13.5763   17.1321 H         1 AX6270      0.0000 
     31 H           3.2418  -14.1253   15.8236 H         1 AX6270      0.0000 
     32 H           2.8522  -14.6949   17.2762 H         1 AX6270      0.0000 
@<TRIPOS>BOND
     1    2    1 ar   
     2    5    1 ar   
     3   15    1 1    
     4    3    2 ar   
     5   19    2 1    
     6    4    3 ar   
     7   18    3 1    
     8   16    4 ar   
     9   16    5 ar   
    10    7    6 1    
    11   30    6 1    
    12   31    6 1    
    13   32    6 1    
    14    8    7 1    
    15    9    8 ar   
    16   11    8 ar   
    17   10    9 ar   
    18   20    9 1    
    19   13   10 ar   
    20   21   10 1    
    21   12   11 ar   
    22   22   11 1    
    23   13   12 ar   
    24   23   12 1    
    25   14   13 1    
    26   15   14 1    
    27   24   14 1    
    28   25   14 1    
    29   17   16 1    
    30   26   17 1    
    31   27   17 1    
    32   28   18 1    
    33   29   18 1    
@<TRIPOS>SUBSTRUCTURE
     1 AX6270      1 GROUP   
@<TRIPOS>SET

