#    Name: 4H03_2_CAVITY_N1_ALL.mol2
#    Modification time : Tue Mar 11 01:09:03 2014

@<TRIPOS>MOLECULE
4H03_2_CAVITY_N1_ALL.mol2
  175     0     6     0     0
SMALL
NO_CHARGES


@<TRIPOS>ATOM
      1 N           7.4558  -15.5259   37.9871 N.2       2 ALA2        0.0000 
      2 CA          6.3969  -16.0227   37.0480 C.3       5 GLY6        0.0000 
      3 CA          8.5340  -13.7741   40.6364 C.3       5 GLY6        0.0000 
      4 N           7.2559  -15.4661   40.5768 N.2       2 ALA2        0.0000 
      5 N           7.4751  -14.2709   39.6973 N.2       2 ALA2        0.0000 
      6 CA          7.6944  -13.0758   38.8178 C.3       5 GLY6        0.0000 
      7 DU          6.1970  -15.9629   39.6377 H         6 CUB7        0.0000 
      8 DU          6.4162  -14.7677   38.7582 H         6 CUB7        0.0000 
      9 CA          6.6355  -13.5726   37.8787 C.3       5 GLY6        0.0000 
     10 DU          5.1381  -16.4597   38.6986 H         6 CUB7        0.0000 
     11 DU          5.3573  -15.2645   37.8191 H         6 CUB7        0.0000 
     12 O           5.5766  -14.0694   36.9396 O.2       2 ALA2        0.0000 
     13 N          -2.6754  -16.8487   28.5474 N.2       2 ALA2        0.0000 
     14 NZ         -3.9342  -17.2857   30.1980 N.2       3 LYS4        0.0000 
     15 NZ         -3.7150  -16.0905   29.3185 N.2       3 LYS4        0.0000 
     16 N          -3.4957  -14.8954   28.4390 N.2       2 ALA2        0.0000 
     17 DU          4.9576  -15.1450   42.9985 H         6 CUB7        0.0000 
     18 DU          5.1768  -13.9499   42.1190 H         6 CUB7        0.0000 
     19 O           5.3960  -12.7547   41.2395 O.2       2 ALA2        0.0000 
     20 N           3.4602  -18.0322   43.8184 N.2       2 ALA2        0.0000 
     21 DU          3.6794  -16.8370   42.9389 H         6 CUB7        0.0000 
     22 NZ          3.8987  -15.6418   42.0594 N.2       3 LYS4        0.0000 
     23 O           4.1179  -14.4467   41.1799 O.2       2 ALA2        0.0000 
     24 O           4.3371  -13.2515   40.3004 O.2       2 ALA2        0.0000 
     25 O           2.4013  -18.5290   42.8793 O.2       2 ALA2        0.0000 
     26 O           2.6205  -17.3338   41.9998 O.2       2 ALA2        0.0000 
     27 O           2.8398  -16.1386   41.1203 O.2       2 ALA2        0.0000 
     28 O           3.0590  -14.9435   40.2408 O.2       2 ALA2        0.0000 
     29 O           3.2782  -13.7483   39.3613 O.2       2 ALA2        0.0000 
     30 O           3.4975  -12.5531   38.4818 O.2       2 ALA2        0.0000 
     31 O           1.7809  -16.6355   40.1812 O.2       2 ALA2        0.0000 
     32 O           2.0001  -15.4403   39.3017 O.2       2 ALA2        0.0000 
     33 DU          2.2193  -14.2451   38.4222 H         6 CUB7        0.0000 
     34 O           2.4386  -13.0499   37.5427 O.2       2 ALA2        0.0000 
     35 O           2.6578  -11.8548   36.6633 O.2       2 ALA2        0.0000 
     36 DU          0.9412  -15.9371   38.3626 H         6 CUB7        0.0000 
     37 CZ          1.1604  -14.7419   37.4831 C.ar      4 PHE5        0.0000 
     38 CZ          1.3797  -13.5467   36.6036 C.ar      4 PHE5        0.0000 
     39 OG          1.5989  -12.3516   35.7242 O.2       1 SER1        0.0000 
     40 OG         -0.1177  -16.4339   37.4235 O.2       1 SER1        0.0000 
     41 CZ          0.1015  -15.2387   36.5440 C.ar      4 PHE5        0.0000 
     42 CZ          0.3208  -14.0436   35.6645 C.ar      4 PHE5        0.0000 
     43 OG          0.5400  -12.8484   34.7851 O.2       1 SER1        0.0000 
     44 OG         -1.1766  -16.9307   36.4844 O.2       1 SER1        0.0000 
     45 OG         -0.9574  -15.7355   35.6049 O.2       1 SER1        0.0000 
     46 CZ         -0.7381  -14.5404   34.7255 C.ar      4 PHE5        0.0000 
     47 OG         -0.5189  -13.3452   33.8460 O.2       1 SER1        0.0000 
     48 OG         -2.0163  -16.2323   34.6658 O.2       1 SER1        0.0000 
     49 CZ         -1.7970  -15.0372   33.7864 C.ar      4 PHE5        0.0000 
     50 CZ         -1.5778  -13.8420   32.9069 C.ar      4 PHE5        0.0000 
     51 NZ         -1.3586  -12.6468   32.0274 N.2       3 LYS4        0.0000 
     52 NZ         -3.0752  -16.7291   33.7267 N.2       3 LYS4        0.0000 
     53 NZ         -2.8560  -15.5340   32.8473 N.2       3 LYS4        0.0000 
     54 NZ         -2.6367  -14.3388   31.9678 N.2       3 LYS4        0.0000 
     55 NZ         -2.4175  -13.1436   31.0883 N.2       3 LYS4        0.0000 
     56 NZ         -4.1341  -17.2260   32.7876 N.2       3 LYS4        0.0000 
     57 NZ         -3.9149  -16.0308   31.9082 N.2       3 LYS4        0.0000 
     58 NZ         -3.6956  -14.8356   31.0287 N.2       3 LYS4        0.0000 
     59 NZ         -3.4764  -13.6404   30.1492 N.2       3 LYS4        0.0000 
     60 CA         -4.5353  -14.1372   29.2101 C.3       5 GLY6        0.0000 
     61 CZ         -8.6920  -14.0740   41.0514 C.ar      4 PHE5        0.0000 
     62 CZ         -9.7509  -14.5708   40.1123 C.ar      4 PHE5        0.0000 
     63 O          -2.4160  -16.1128   39.8452 O.2       2 ALA2        0.0000 
     64 O          -2.1968  -14.9177   38.9657 O.2       2 ALA2        0.0000 
     65 CA         -1.9776  -13.7225   38.0862 C.3       5 GLY6        0.0000 
     66 CZ         -3.6942  -17.8048   39.7856 C.ar      4 PHE5        0.0000 
     67 CZ         -3.4750  -16.6096   38.9061 C.ar      4 PHE5        0.0000 
     68 DU         -3.2557  -15.4145   38.0266 H         6 CUB7        0.0000 
     69 CA         -3.0365  -14.2193   37.1471 C.3       5 GLY6        0.0000 
     70 CZ         -4.7531  -18.3016   38.8465 C.ar      4 PHE5        0.0000 
     71 CZ         -4.5339  -17.1064   37.9670 C.ar      4 PHE5        0.0000 
     72 DU         -4.3146  -15.9113   37.0875 H         6 CUB7        0.0000 
     73 DU         -4.0954  -14.7161   36.2080 H         6 CUB7        0.0000 
     74 NZ         -3.8761  -13.5209   35.3286 N.2       3 LYS4        0.0000 
     75 CA         -5.8120  -18.7984   37.9074 C.3       5 GLY6        0.0000 
     76 CZ         -5.5928  -17.6032   37.0279 C.ar      4 PHE5        0.0000 
     77 NZ         -5.3735  -16.4081   36.1484 N.2       3 LYS4        0.0000 
     78 NZ         -5.1543  -15.2129   35.2689 N.2       3 LYS4        0.0000 
     79 NZ         -4.9350  -14.0177   34.3895 N.2       3 LYS4        0.0000 
     80 CA         -6.8709  -19.2952   36.9683 C.3       5 GLY6        0.0000 
     81 NZ         -6.6517  -18.1001   36.0888 N.2       3 LYS4        0.0000 
     82 O          -3.4556  -15.3547   40.6163 O.2       2 ALA2        0.0000 
     83 O          -3.2364  -14.1595   39.7368 O.2       2 ALA2        0.0000 
     84 CA         -3.0171  -12.9644   38.8573 C.3       5 GLY6        0.0000 
     85 CZ         -4.5145  -15.8515   39.6772 C.ar      4 PHE5        0.0000 
     86 DU         -4.2953  -14.6563   38.7977 H         6 CUB7        0.0000 
     87 CA         -4.0760  -13.4612   37.9182 C.3       5 GLY6        0.0000 
     88 CZ         -5.5734  -16.3483   38.7381 C.ar      4 PHE5        0.0000 
     89 CZ         -5.3542  -15.1531   37.8586 C.ar      4 PHE5        0.0000 
     90 CA         -5.1349  -13.9580   36.9791 C.3       5 GLY6        0.0000 
     91 CA         -4.9157  -12.7628   36.0997 C.3       5 GLY6        0.0000 
     92 CZ         -6.6323  -16.8451   37.7990 C.ar      4 PHE5        0.0000 
     93 CZ         -6.4131  -15.6500   36.9195 C.ar      4 PHE5        0.0000 
     94 CA         -6.1938  -14.4548   36.0401 C.3       5 GLY6        0.0000 
     95 CA         -5.9746  -13.2596   35.1606 C.3       5 GLY6        0.0000 
     96 CZ         -7.9105  -18.5371   37.7394 C.ar      4 PHE5        0.0000 
     97 CZ         -7.6912  -17.3419   36.8599 C.ar      4 PHE5        0.0000 
     98 NZ         -7.4720  -16.1468   35.9804 N.2       3 LYS4        0.0000 
     99 CA         -8.7501  -17.8387   35.9208 C.3       5 GLY6        0.0000 
    100 N          -4.4951  -14.5966   41.3874 N.2       2 ALA2        0.0000 
    101 O          -4.2759  -13.4014   40.5079 O.2       2 ALA2        0.0000 
    102 CZ         -5.5540  -15.0934   40.4483 C.ar      4 PHE5        0.0000 
    103 CZ         -5.3348  -13.8982   39.5688 C.ar      4 PHE5        0.0000 
    104 N          -5.1156  -12.7030   38.6893 N.2       2 ALA2        0.0000 
    105 CZ         -6.3937  -14.3950   38.6297 C.ar      4 PHE5        0.0000 
    106 N          -6.1745  -13.1999   37.7502 N.2       2 ALA2        0.0000 
    107 N          -5.9552  -12.0047   36.8708 N.2       2 ALA2        0.0000 
    108 CZ         -7.4526  -14.8918   37.6906 C.ar      4 PHE5        0.0000 
    109 N          -7.2334  -13.6967   36.8112 N.2       2 ALA2        0.0000 
    110 N          -7.0141  -12.5015   35.9317 N.2       2 ALA2        0.0000 
    111 CA         -8.7308  -16.5838   37.6310 C.3       5 GLY6        0.0000 
    112 N          -8.5115  -15.3886   36.7515 N.2       2 ALA2        0.0000 
    113 CA         -5.3154  -12.6433   41.2790 C.3       5 GLY6        0.0000 
    114 O          -6.5936  -14.3353   41.2194 O.2       2 ALA2        0.0000 
    115 N          -6.3744  -13.1401   40.3399 N.2       2 ALA2        0.0000 
    116 CA         -6.1551  -11.9449   39.4604 C.3       5 GLY6        0.0000 
    117 CA         -7.4333  -13.6369   39.4008 C.3       5 GLY6        0.0000 
    118 CA         -7.2140  -12.4417   38.5214 C.3       5 GLY6        0.0000 
    119 CA         -8.4922  -14.1337   38.4617 C.3       5 GLY6        0.0000 
    120 CA         -8.2729  -12.9385   37.5823 C.3       5 GLY6        0.0000 
    121 N          -9.5511  -14.6305   37.5226 N.2       2 ALA2        0.0000 
    122 DU          6.2164  -14.7080   41.3479 H         6 CUB7        0.0000 
    123 CA          6.4356  -13.5128   40.4684 C.3       5 GLY6        0.0000 
    124 O           6.6548  -12.3176   39.5889 O.2       2 ALA2        0.0000 
    125 O           5.3767  -14.0096   39.5293 O.2       2 ALA2        0.0000 
    126 O           5.5959  -12.8144   38.6498 O.2       2 ALA2        0.0000 
    127 DU          3.8793  -16.8968   40.3492 H         6 CUB7        0.0000 
    128 DU          4.3178  -14.5064   38.5902 H         6 CUB7        0.0000 
    129 O           4.5370  -13.3112   37.7107 O.2       2 ALA2        0.0000 
    130 DU          3.0396  -16.1984   38.5306 H         6 CUB7        0.0000 
    131 CZ          3.2589  -15.0032   37.6511 C.ar      4 PHE5        0.0000 
    132 CZ          3.4781  -13.8081   36.7716 C.ar      4 PHE5        0.0000 
    133 CZ         -0.7575  -15.7953   33.0153 C.ar      4 PHE5        0.0000 
    134 CZ         -0.5383  -14.6001   32.1358 C.ar      4 PHE5        0.0000 
    135 N          -0.3190  -13.4049   31.2563 N.2       2 ALA2        0.0000 
    136 CZ         -1.8164  -16.2921   32.0762 C.ar      4 PHE5        0.0000 
    137 N          -1.5972  -15.0969   31.1967 N.2       2 ALA2        0.0000 
    138 NZ         -2.8753  -16.7889   31.1371 N.2       3 LYS4        0.0000 
    139 N          -2.6561  -15.5937   30.2576 N.2       2 ALA2        0.0000 
    140 NZ          3.6988  -15.5821   44.6491 N.2       3 LYS4        0.0000 
    141 CA          3.9180  -14.3869   43.7696 C.3       5 GLY6        0.0000 
    142 CA          4.1373  -13.1917   42.8901 C.3       5 GLY6        0.0000 
    143 NZ          2.6399  -16.0789   43.7100 N.2       3 LYS4        0.0000 
    144 NZ          2.8591  -14.8837   42.8305 N.2       3 LYS4        0.0000 
    145 O           3.0784  -13.6885   41.9510 O.2       2 ALA2        0.0000 
    146 O           3.2976  -12.4934   41.0715 O.2       2 ALA2        0.0000 
    147 O           1.5810  -16.5757   42.7709 O.2       2 ALA2        0.0000 
    148 O           1.8002  -15.3805   41.8914 O.2       2 ALA2        0.0000 
    149 O           2.2387  -12.9902   40.1324 O.2       2 ALA2        0.0000 
    150 O           2.4579  -11.7950   39.2529 O.2       2 ALA2        0.0000 
    151 O           0.7413  -15.8773   40.9523 O.2       2 ALA2        0.0000 
    152 O           0.9605  -14.6822   40.0728 O.2       2 ALA2        0.0000 
    153 O           1.1798  -13.4870   39.1933 O.2       2 ALA2        0.0000 
    154 O           1.3990  -12.2918   38.3138 O.2       2 ALA2        0.0000 
    155 N           1.6183  -11.0966   37.4344 N.2       2 ALA2        0.0000 
    156 O          -0.3176  -16.3741   40.0132 O.2       2 ALA2        0.0000 
    157 O          -0.0984  -15.1790   39.1337 O.2       2 ALA2        0.0000 
    158 O           0.1209  -13.9838   38.2542 O.2       2 ALA2        0.0000 
    159 OG          0.3401  -12.7886   37.3747 O.2       1 SER1        0.0000 
    160 O          -1.5957  -18.0661   39.9536 O.2       2 ALA2        0.0000 
    161 DU         -1.1573  -15.6758   38.1946 H         6 CUB7        0.0000 
    162 CA         -0.9380  -14.4806   37.3151 C.3       5 GLY6        0.0000 
    163 DU         -2.4354  -17.3678   38.1350 H         6 CUB7        0.0000 
    164 DU         -2.2162  -16.1726   37.2555 H         6 CUB7        0.0000 
    165 OG         -1.9969  -14.9774   36.3760 O.2       1 SER1        0.0000 
    166 OG         -1.7777  -13.7822   35.4966 O.2       1 SER1        0.0000 
    167 DU         -3.2751  -16.6694   36.3164 H         6 CUB7        0.0000 
    168 DU         -3.0558  -15.4742   35.4369 H         6 CUB7        0.0000 
    169 OG         -2.8366  -14.2790   34.5575 O.2       1 SER1        0.0000 
    170 NZ         -2.6174  -13.0839   33.6780 N.2       3 LYS4        0.0000 
    171 NZ         -4.3340  -17.1662   35.3773 N.2       3 LYS4        0.0000 
    172 NZ         -4.1147  -15.9710   34.4978 N.2       3 LYS4        0.0000 
    173 NZ         -3.8955  -14.7759   33.6184 N.2       3 LYS4        0.0000 
    174 NZ         -3.6763  -13.5807   32.7389 N.2       3 LYS4        0.0000 
    175 CA         -4.7352  -14.0775   31.7998 C.3       5 GLY6        0.0000 
@<TRIPOS>BOND
@<TRIPOS>SUBSTRUCTURE
     1 SER1       39 GROUP   
     2 ALA2        1 GROUP   
     3 LYS4       14 GROUP   
     4 PHE5       37 GROUP   
     5 GLY6        2 GROUP   
     6 CUB7        7 GROUP   
@<TRIPOS>SET

