#    Name: 4h03_NAD_2_INTS_M
#    Modification time : Tue Mar 25 00:00:13 2014

@<TRIPOS>MOLECULE
4h03_NAD_2_INTS_M
   74     0    12     0     0
SMALL
NO_CHARGES


@<TRIPOS>ATOM
      1 NZ          1.1625  -13.4430   40.9995 N.4       3 LYC4        0.0000 
      2 NZ          1.8740  -13.6290   39.8750 N.4      11 LYL4        0.0000 
      3 NZ         -0.5990  -12.4460   42.0690 N.4       7 LYP4        0.0000 
      4 N           1.1625  -13.4430   40.9995 N.am      2 SEC2        0.0000 
      5 N           1.8740  -13.6290   39.8750 N.am     10 SEL2        0.0000 
      6 N           0.4510  -13.2570   42.1240 N.am      6 SEP2        0.0000 
      7 O           4.1670  -18.8890   44.8865 O.2       1 ALC1        0.0000 
      8 O           4.1410  -18.4840   43.5000 O.2       9 ALL1        0.0000 
      9 O           4.1930  -19.2940   46.2730 O.2       5 ALP1        0.0000 
     10 CA          2.1100  -16.8825   44.7605 C.3       4 GLC5        0.0000 
     11 CA          3.5760  -16.1340   43.3380 C.3      12 GLL5        0.0000 
     12 CA          0.6440  -17.6310   46.1830 C.3       8 GLP5        0.0000 
     13 O           2.2760  -15.1460   44.6880 O.2       1 ALC1        0.0000 
     14 O           3.2000  -16.2720   44.7120 O.2       9 ALL1        0.0000 
     15 O           1.3520  -14.0200   44.6640 O.2       5 ALP1        0.0000 
     16 CA          5.6330  -16.5950   45.0970 C.3       4 GLC5        0.0000 
     17 CA          5.0150  -15.6760   43.2070 C.3      12 GLL5        0.0000 
     18 CA          6.2510  -17.5140   46.9870 C.3       8 GLP5        0.0000 
     19 N           5.1095  -11.1340   41.6295 N.am      2 SEC2        0.0000 
     20 N           5.2240  -12.0670   42.7100 N.am     10 SEL2        0.0000 
     21 N           4.9950  -10.2010   40.5490 N.am      6 SEP2        0.0000 
     22 O           6.5920   -9.3370   42.9425 O.2       1 ALC1        0.0000 
     23 O           6.9000   -9.9790   44.2680 O.2       9 ALL1        0.0000 
     24 O           6.2840   -8.6950   41.6170 O.2       5 ALP1        0.0000 
     25 CA          6.0115  -13.2605   46.9370 C.3       4 GLC5        0.0000 
     26 CA          7.6290  -13.1680   45.8280 C.3      12 GLL5        0.0000 
     27 CA          4.3940  -13.3530   48.0460 C.3       8 GLP5        0.0000 
     28 NZ         -0.0875  -13.7820   40.7160 N.4       3 LYC4        0.0000 
     29 NZ         -0.6260  -14.3070   39.3080 N.4      11 LYL4        0.0000 
     30 N          -0.9495  -13.3205   40.1170 N.am      2 SEC2        0.0000 
     31 N          -0.6260  -14.3070   39.3080 N.am     10 SEL2        0.0000 
     32 N          -1.2730  -12.3340   40.9260 N.am      6 SEP2        0.0000 
     33 N          -0.0875  -13.7820   40.7160 N.am      2 SEC2        0.0000 
     34 NZ         -1.2635  -17.0840   41.2900 N.4       3 LYC4        0.0000 
     35 NZ         -0.8230  -16.8680   40.1140 N.4      11 LYL4        0.0000 
     36 NZ         -1.2150  -18.4820   42.8190 N.4       7 LYP4        0.0000 
     37 N          -1.2635  -17.0840   41.2900 N.am      2 SEC2        0.0000 
     38 N          -0.8230  -16.8680   40.1140 N.am     10 SEL2        0.0000 
     39 N          -1.7040  -17.3000   42.4660 N.am      6 SEP2        0.0000 
     40 N          -0.4630  -17.8965   41.1795 N.am      2 SEC2        0.0000 
     41 N          -0.1030  -18.9250   42.2450 N.am      6 SEP2        0.0000 
     42 CA         -1.5330  -13.2705   36.8470 C.3       4 GLC5        0.0000 
     43 CA         -0.7350  -15.3550   36.5640 C.3      12 GLL5        0.0000 
     44 CA         -2.3310  -11.1860   37.1300 C.3       8 GLP5        0.0000 
     45 CA         -2.6060  -12.7515   35.9310 C.3       4 GLC5        0.0000 
     46 CA         -2.8810  -14.3170   34.7320 C.3      12 GLL5        0.0000 
     47 N          -5.7075  -13.9200   42.6160 N.am      2 SEC2        0.0000 
     48 N          -5.6440  -13.9260   41.2170 N.am     10 SEL2        0.0000 
     49 N          -5.7710  -13.9140   44.0150 N.am      6 SEP2        0.0000 
     50 O          -3.5095  -15.2490   42.3655 O.2       1 ALC1        0.0000 
     51 O          -3.6340  -14.7860   40.8750 O.2       9 ALL1        0.0000 
     52 O          -3.3850  -15.7120   43.8560 O.2       5 ALP1        0.0000 
     53 CA         -6.6370  -13.6450   34.7245 C.3       4 GLC5        0.0000 
     54 CA         -5.3750  -13.5160   36.2690 C.3      12 GLL5        0.0000 
     55 CA         -7.8990  -13.7740   33.1800 C.3       8 GLP5        0.0000 
     56 CA          3.6883  -14.4315   44.5877 C.3       4 GLC5        0.0000 
     57 CA          3.0810  -12.9580   45.9030 C.3       8 GLP5        0.0000 
     58 CA          7.7033  -11.5377   42.5990 C.3       4 GLC5        0.0000 
     59 CA          6.0640  -12.2090   43.7490 C.3      12 GLL5        0.0000 
     60 CA          8.9230  -11.3200   41.0460 C.3       8 GLP5        0.0000 
     61 CA          4.6856  -12.8264   45.0132 C.3       4 GLC5        0.0000 
     62 CA          0.2864  -15.8551   34.4382 C.3       4 GLC5        0.0000 
     63 CA          2.0280  -16.2350   33.6610 C.3       8 GLP5        0.0000 
     64 CA         -3.4758  -12.7562   37.7983 C.3       4 GLC5        0.0000 
     65 CA         -4.2780  -14.6890   37.9730 C.3      12 GLL5        0.0000 
     66 CA         -5.8357  -11.0333   38.6615 C.3       4 GLC5        0.0000 
     67 CA         -6.0900  -12.7720   37.2040 C.3      12 GLL5        0.0000 
     68 CA         -5.6850   -9.1820   39.4410 C.3       8 GLP5        0.0000 
     69 CA         -7.8848  -12.1007   38.3600 C.3       4 GLC5        0.0000 
     70 CA         -5.8830  -12.9970   38.5600 C.3      12 GLL5        0.0000 
     71 CA         -9.7830  -11.3170   38.8380 C.3       8 GLP5        0.0000 
     72 CA         -5.5713  -11.4950   35.4472 C.3       4 GLC5        0.0000 
     73 CA         -5.4100   -9.8460   34.1580 C.3       8 GLP5        0.0000 
     74 CA         -4.0059  -12.1931   37.1028 C.3       4 GLC5        0.0000 
@<TRIPOS>BOND
@<TRIPOS>SUBSTRUCTURE
     1 ALC1        7 GROUP        1 X    ALC  0     ROOT ALC X 1
     2 SEC2        4 GROUP        1 X    SEC  0     **** SEC X 2
     3 LYC4        1 GROUP        1 X    LYC  0     **** LYC X 4
     4 GLC5       10 GROUP        1 X    GLC  0     **** GLC X 6
     5 ALP1        9 GROUP        1 Y    ALP  0     ROOT ALP Y 8
     6 SEP2        6 GROUP        1 Y    SEP  0     **** SEP Y 9
     7 LYP4        3 GROUP        1 Y    LYP  0     **** LYP Y 11
     8 GLP5       12 GROUP        1 Y    GLP  0     **** GLP Y 13
     9 ALL1        8 GROUP        1 Z    ALL  0     ROOT ALL Z 15
    10 SEL2        5 GROUP        1 Z    SEL  0     **** SEL Z 16
    11 LYL4        2 GROUP        1 Z    LYL  0     **** LYL Z 18
    12 GLL5       11 GROUP        1 Z    GLL  0     **** GLL Z 20
@<TRIPOS>SET

