#    Name: 4h03_NAD_2_ligand
#    Modification time : Tue Mar 25 00:00:13 2014

@<TRIPOS>MOLECULE
4h03_NAD_2_ligand
   70    74     1     0     0
SMALL
NO_CHARGES


@<TRIPOS>ATOM
      1 PA          2.4370  -14.9140   39.2770 P.3       1 NAD501      0.0000 
      2 O1A         3.3350  -14.8840   38.0630 O.co2     1 NAD501      0.0000 
      3 O2A         1.8740  -13.6290   39.8750 O.co2     1 NAD501      0.0000 
      4 O5B         3.1360  -15.7580   40.4580 O.3       1 NAD501      0.0000 
      5 C5B         3.9900  -16.8680   40.1870 C.3       1 NAD501      0.0000 
      6 C4B         4.6600  -17.2410   41.4990 C.3       1 NAD501      0.0000 
      7 O4B         5.4870  -16.1640   41.9410 O.3       1 NAD501      0.0000 
      8 C3B         3.6520  -17.4670   42.6150 C.3       1 NAD501      0.0000 
      9 O3B         4.1410  -18.4840   43.5000 O.3       1 NAD501      0.0000 
     10 C2B         3.5760  -16.1340   43.3380 C.3       1 NAD501      0.0000 
     11 O2B         3.2000  -16.2720   44.7120 O.3       1 NAD501      0.0000 
     12 C1B         5.0150  -15.6760   43.2070 C.3       1 NAD501      0.0000 
     13 N9A         5.2610  -14.2210   43.2390 N.pl3     1 NAD501      0.0000 
     14 C8A         4.7450  -13.2980   42.4030 C.2       1 NAD501      0.0000 
     15 N7A         5.2240  -12.0670   42.7100 N.2       1 NAD501      0.0000 
     16 C5A         6.0640  -12.2090   43.7490 C.ar      1 NAD501      0.0000 
     17 C6A         6.9030  -11.3020   44.5550 C.ar      1 NAD501      0.0000 
     18 N6A         6.9000   -9.9790   44.2680 N.pl3     1 NAD501      0.0000 
     19 N1A         7.6410  -11.8430   45.5590 N.ar      1 NAD501      0.0000 
     20 C2A         7.6290  -13.1680   45.8280 C.ar      1 NAD501      0.0000 
     21 N3A         6.8850  -14.0470   45.1240 N.ar      1 NAD501      0.0000 
     22 C4A         6.0970  -13.6340   44.0950 C.ar      1 NAD501      0.0000 
     23 O3          1.2920  -15.9810   38.9320 O.3       1 NAD501      0.0000 
     24 PN         -0.2890  -15.7650   39.1040 P.3       1 NAD501      0.0000 
     25 O1N        -0.6260  -14.3070   39.3080 O.co2     1 NAD501      0.0000 
     26 O2N        -0.8230  -16.8680   40.1140 O.co2     1 NAD501      0.0000 
     27 O5D        -0.7340  -16.2470   37.6530 O.3       1 NAD501      0.0000 
     28 C5D        -0.7350  -15.3550   36.5640 C.3       1 NAD501      0.0000 
     29 C4D        -1.6220  -16.0900   35.5820 C.3       1 NAD501      0.0000 
     30 O4D        -2.9390  -16.2290   36.1230 O.3       1 NAD501      0.0000 
     31 C3D        -1.7320  -15.2280   34.3580 C.3       1 NAD501      0.0000 
     32 O3D        -2.0460  -16.0390   33.2210 O.3       1 NAD501      0.0000 
     33 C2D        -2.8810  -14.3170   34.7320 C.3       1 NAD501      0.0000 
     34 O2D        -3.5590  -13.8160   33.5690 O.3       1 NAD501      0.0000 
     35 C1D        -3.7840  -15.1970   35.5950 C.3       1 NAD501      0.0000 
     36 N1N        -4.4860  -14.4470   36.6570 N.pl3     1 NAD501      0.0000 
     37 C2N        -4.2780  -14.6890   37.9730 C.ar      1 NAD501      0.0000 
     38 C3N        -4.9630  -13.9640   38.9600 C.ar      1 NAD501      0.0000 
     39 C7N        -4.7570  -14.2200   40.4320 C.2       1 NAD501      0.0000 
     40 O7N        -5.6440  -13.9260   41.2170 O.2       1 NAD501      0.0000 
     41 N7N        -3.6340  -14.7860   40.8750 N.am      1 NAD501      0.0000 
     42 C4N        -5.8830  -12.9970   38.5600 C.ar      1 NAD501      0.0000 
     43 C5N        -6.0900  -12.7720   37.2040 C.ar      1 NAD501      0.0000 
     44 C6N        -5.3750  -13.5160   36.2690 C.ar      1 NAD501      0.0000 
     45 H           4.7655  -16.6186   39.4693 H         1 NAD501      0.0000 
     46 H           3.4349  -17.7311   39.8325 H         1 NAD501      0.0000 
     47 H           5.2330  -18.1344   41.3709 H         1 NAD501      0.0000 
     48 H           2.7160  -17.6881   42.1925 H         1 NAD501      0.0000 
     49 H           2.9702  -15.4821   42.7754 H         1 NAD501      0.0000 
     50 H           5.5984  -16.1629   43.9951 H         1 NAD501      0.0000 
     51 H           4.1166  -13.4843   41.6793 H         1 NAD501      0.0000 
     52 H           7.5111   -9.4084   44.8165 H         1 NAD501      0.0000 
     53 H           6.2869   -9.6896   43.5329 H         1 NAD501      0.0000 
     54 H           8.2280  -13.5299   46.6236 H         1 NAD501      0.0000 
     55 H           0.2301  -15.2366   36.1243 H         1 NAD501      0.0000 
     56 H          -1.1911  -14.4185   36.7957 H         1 NAD501      0.0000 
     57 H          -1.1856  -17.0124   35.3260 H         1 NAD501      0.0000 
     58 H          -0.8581  -14.6587   34.2600 H         1 NAD501      0.0000 
     59 H          -2.4935  -13.5367   35.3574 H         1 NAD501      0.0000 
     60 H          -4.5173  -15.6487   34.9160 H         1 NAD501      0.0000 
     61 H          -3.6041  -15.4196   38.2791 H         1 NAD501      0.0000 
     62 H          -2.9334  -14.9718   40.1860 H         1 NAD501      0.0000 
     63 H          -3.5934  -14.9738   41.8564 H         1 NAD501      0.0000 
     64 H          -6.4009  -12.4581   39.2594 H         1 NAD501      0.0000 
     65 H          -6.7630  -12.0647   36.8939 H         1 NAD501      0.0000 
     66 H          -5.5469  -13.3324   35.2567 H         1 NAD501      0.0000 
     67 H           4.0021  -18.1157   44.4193 H         1 NAD501      0.0000 
     68 H           2.2696  -15.9091   44.7633 H         1 NAD501      0.0000 
     69 H          -2.0139  -16.9801   33.5577 H         1 NAD501      0.0000 
     70 H          -3.3311  -14.4604   32.8390 H         1 NAD501      0.0000 
@<TRIPOS>BOND
     1    2    1 ar   
     2    3    1 ar   
     3    4    1 1    
     4   23    1 1    
     5    5    4 1    
     6    6    5 1    
     7   45    5 1    
     8   46    5 1    
     9    7    6 1    
    10    8    6 1    
    11   47    6 1    
    12   12    7 1    
    13    9    8 1    
    14   10    8 1    
    15   48    8 1    
    16   67    9 1    
    17   11   10 1    
    18   12   10 1    
    19   49   10 1    
    20   68   11 1    
    21   13   12 1    
    22   50   12 1    
    23   14   13 1    
    24   22   13 1    
    25   15   14 2    
    26   51   14 1    
    27   16   15 1    
    28   17   16 ar   
    29   22   16 ar   
    30   18   17 1    
    31   19   17 ar   
    32   52   18 1    
    33   53   18 1    
    34   20   19 ar   
    35   21   20 ar   
    36   54   20 1    
    37   22   21 ar   
    38   24   23 1    
    39   25   24 ar   
    40   26   24 ar   
    41   27   24 1    
    42   28   27 1    
    43   29   28 1    
    44   55   28 1    
    45   56   28 1    
    46   30   29 1    
    47   31   29 1    
    48   57   29 1    
    49   35   30 1    
    50   32   31 1    
    51   33   31 1    
    52   58   31 1    
    53   69   32 1    
    54   34   33 1    
    55   35   33 1    
    56   59   33 1    
    57   70   34 1    
    58   36   35 1    
    59   60   35 1    
    60   37   36 ar   
    61   44   36 ar   
    62   38   37 ar   
    63   61   37 1    
    64   39   38 1    
    65   42   38 ar   
    66   40   39 2    
    67   41   39 am   
    68   62   41 1    
    69   63   41 1    
    70   43   42 ar   
    71   64   42 1    
    72   44   43 ar   
    73   65   43 1    
    74   66   44 1    
@<TRIPOS>SUBSTRUCTURE
     1 NAD501      1 GROUP   
@<TRIPOS>SET

