#    Name: 2c9d_PHR_5_INTS_M
#    Modification time : Mon Mar 24 23:20:43 2014

@<TRIPOS>MOLECULE
2c9d_PHR_5_INTS_M
   57     0    12     0     0
SMALL
NO_CHARGES


@<TRIPOS>ATOM
      1 NZ        -32.7515   -0.8580  -23.1605 N.4       3 LYC4        0.0000 
      2 NZ        -32.2120   -2.4880  -23.0510 N.4      11 LYL4        0.0000 
      3 NZ        -33.2910    0.7720  -23.2700 N.4       7 LYP4        0.0000 
      4 N         -29.7795   -3.9215  -23.9735 N.am      2 SEC2        0.0000 
      5 N         -30.1810   -3.9480  -22.6050 N.am     10 SEL2        0.0000 
      6 N         -29.3780   -3.8950  -25.3420 N.am      6 SEP2        0.0000 
      7 N         -29.2150   -2.8890  -22.9260 N.am      2 SEC2        0.0000 
      8 N         -28.2490   -1.8300  -23.2470 N.am      6 SEP2        0.0000 
      9 CA        -32.0970   -4.7585  -14.7425 C.3       4 GLC5        0.0000 
     10 CA        -30.6870   -5.2970  -15.8730 C.3      12 GLL5        0.0000 
     11 CA        -33.5070   -4.2200  -13.6120 C.3       8 GLP5        0.0000 
     12 CA        -31.6680   -5.7225  -13.2320 C.3       4 GLC5        0.0000 
     13 CA        -29.9530   -6.0270  -13.5610 C.3      12 GLL5        0.0000 
     14 CA        -33.3830   -5.4180  -12.9030 C.3       8 GLP5        0.0000 
     15 N         -30.1300   -9.5610  -15.5895 N.am      2 SEC2        0.0000 
     16 N         -30.3550   -8.1780  -14.5870 N.am     10 SEL2        0.0000 
     17 N         -29.9050  -10.9440  -16.5920 N.am      6 SEP2        0.0000 
     18 O         -29.7740   -9.5170  -12.3595 O.2       1 ALC1        0.0000 
     19 O         -29.6520   -8.1480  -12.4470 O.2       9 ALL1        0.0000 
     20 O         -29.8960  -10.8860  -12.2720 O.2       5 ALP1        0.0000 
     21 CA        -31.2835   -5.3995  -11.9260 C.3       4 GLC5        0.0000 
     22 CA        -29.5280   -5.3430  -12.3210 C.3      12 GLL5        0.0000 
     23 CA        -33.0390   -5.4560  -11.5310 C.3       8 GLP5        0.0000 
     24 N         -28.0280   -7.1940   -9.4300 N.am      2 SEC2        0.0000 
     25 N         -28.9600   -8.1430  -10.3190 N.am     10 SEL2        0.0000 
     26 N         -27.0960   -6.2450   -8.5410 N.am      6 SEP2        0.0000 
     27 CA        -31.0965   -2.9750  -11.6320 C.3       4 GLC5        0.0000 
     28 CA        -29.2540   -2.8910  -11.7030 C.3      12 GLL5        0.0000 
     29 CA        -32.9390   -3.0590  -11.5610 C.3       8 GLP5        0.0000 
     30 N         -25.8385   -4.3880  -10.0615 N.am      2 SEC2        0.0000 
     31 N         -27.0610   -3.8670  -11.1970 N.am     10 SEL2        0.0000 
     32 N         -24.6160   -4.9090   -8.9260 N.am      6 SEP2        0.0000 
     33 O         -27.3855   -1.8665   -7.8220 O.2       1 ALC1        0.0000 
     34 O         -28.4780   -1.8440   -8.6610 O.2       9 ALL1        0.0000 
     35 O         -26.2930   -1.8890   -6.9830 O.2       5 ALP1        0.0000 
     36 CA        -28.5570    2.4075   -9.4255 C.3       4 GLC5        0.0000 
     37 CA        -27.5350    0.6020   -9.7150 C.3      12 GLL5        0.0000 
     38 CA        -29.5790    4.2130   -9.1360 C.3       8 GLP5        0.0000 
     39 CA        -28.3280    0.8680   -7.9640 C.3       4 GLC5        0.0000 
     40 CA        -29.1210    1.1340   -6.2130 C.3       8 GLP5        0.0000 
     41 N         -25.1435    1.8985   -9.7930 N.am      2 SEC2        0.0000 
     42 N         -26.1260    0.7840   -9.5330 N.am     10 SEL2        0.0000 
     43 N         -24.1610    3.0130  -10.0530 N.am      6 SEP2        0.0000 
     44 O         -25.8880    0.4405   -7.9135 O.2       1 ALC1        0.0000 
     45 O         -26.1260    0.7840   -9.5330 O.2       9 ALL1        0.0000 
     46 O         -25.6500    0.0970   -6.2940 O.2       5 ALP1        0.0000 
     47 CA        -31.1884   -6.1406  -21.1915 C.3       4 GLC5        0.0000 
     48 CA        -31.5850   -5.5430  -19.3630 C.3      12 GLL5        0.0000 
     49 CA        -31.3800   -7.1330  -22.9540 C.3       8 GLP5        0.0000 
     50 CA        -28.1427   -3.6950  -17.6450 C.3       4 GLC5        0.0000 
     51 CA        -29.6260   -4.5880  -18.0380 C.3      12 GLL5        0.0000 
     52 CA        -26.7310   -2.3670  -17.8740 C.3       8 GLP5        0.0000 
     53 CA        -28.4047   -3.7302   -8.9032 C.3       4 GLC5        0.0000 
     54 CA        -28.1880   -3.1740  -10.6370 C.3      12 GLL5        0.0000 
     55 CA        -28.8570   -4.9100   -7.5520 C.3       8 GLP5        0.0000 
     56 CA        -25.9544   -2.1866  -10.7209 C.3       4 GLC5        0.0000 
     57 CA        -24.0180   -2.8020  -11.0030 C.3       8 GLP5        0.0000 
@<TRIPOS>BOND
@<TRIPOS>SUBSTRUCTURE
     1 ALC1       18 GROUP        1 X    ALC  0     ROOT ALC X 1
     2 SEC2        4 GROUP        1 X    SEC  0     **** SEC X 2
     3 LYC4        1 GROUP        1 X    LYC  0     **** LYC X 4
     4 GLC5        9 GROUP        1 X    GLC  0     **** GLC X 6
     5 ALP1       20 GROUP        1 Y    ALP  0     ROOT ALP Y 8
     6 SEP2        6 GROUP        1 Y    SEP  0     **** SEP Y 9
     7 LYP4        3 GROUP        1 Y    LYP  0     **** LYP Y 11
     8 GLP5       11 GROUP        1 Y    GLP  0     **** GLP Y 13
     9 ALL1       19 GROUP        1 Z    ALL  0     ROOT ALL Z 15
    10 SEL2        5 GROUP        1 Z    SEL  0     **** SEL Z 16
    11 LYL4        2 GROUP        1 Z    LYL  0     **** LYL Z 18
    12 GLL5       10 GROUP        1 Z    GLL  0     **** GLL Z 20
@<TRIPOS>SET

