#    Name: 2c9d_PHR_5_ligand
#    Modification time : Mon Mar 24 23:20:43 2014

@<TRIPOS>MOLECULE
2c9d_PHR_5_ligand
   57    58     1     0     0
SMALL
NO_CHARGES


@<TRIPOS>ATOM
      1 O2P       -32.2120   -2.4880  -23.0510 O.co2     1 PHR791      0.0000 
      2 P         -31.2890   -3.1020  -22.0210 P.3       1 PHR791      0.0000 
      3 O3P       -30.1810   -3.9480  -22.6050 O.co2     1 PHR791      0.0000 
      4 O1P       -30.8280   -2.1370  -20.9470 O.co2     1 PHR791      0.0000 
      5 O27       -32.2310   -4.1680  -21.2550 O.3       1 PHR791      0.0000 
      6 C20       -32.2760   -4.2620  -19.8290 C.3       1 PHR791      0.0000 
      7 C19       -31.5850   -5.5430  -19.3630 C.3       1 PHR791      0.0000 
      8 C18       -30.0630   -5.3940  -19.2620 C.3       1 PHR791      0.0000 
      9 C17       -29.6260   -4.5880  -18.0380 C.3       1 PHR791      0.0000 
     10 C16       -29.4830   -5.4580  -16.7940 C.3       1 PHR791      0.0000 
     11 C15       -30.6870   -5.2970  -15.8730 C.3       1 PHR791      0.0000 
     12 N5        -30.2320   -5.1080  -14.4960 N.am      1 PHR791      0.0000 
     13 C9        -29.9530   -6.0270  -13.5610 C.2       1 PHR791      0.0000 
     14 C4        -30.0050   -7.5160  -13.5860 C.2       1 PHR791      0.0000 
     15 O2        -30.3550   -8.1780  -14.5870 O.2       1 PHR791      0.0000 
     16 N3        -29.6520   -8.1480  -12.4470 N.am      1 PHR791      0.0000 
     17 C6        -29.9880   -3.9500  -13.8610 C.2       1 PHR791      0.0000 
     18 O4        -30.1480   -2.8170  -14.4540 O.2       1 PHR791      0.0000 
     19 N7        -29.5660   -4.0250  -12.5850 N.am      1 PHR791      0.0000 
     20 C8        -29.5280   -5.3430  -12.3210 C.2       1 PHR791      0.0000 
     21 N1        -29.2020   -6.1210  -11.2590 N.am      1 PHR791      0.0000 
     22 C2        -29.2670   -7.4770  -11.3280 C.2       1 PHR791      0.0000 
     23 O1        -28.9600   -8.1430  -10.3190 O.2       1 PHR791      0.0000 
     24 C10       -29.2540   -2.8910  -11.7030 C.3       1 PHR791      0.0000 
     25 C11       -28.1880   -3.1740  -10.6370 C.3       1 PHR791      0.0000 
     26 O19       -27.0610   -3.8670  -11.1970 O.3       1 PHR791      0.0000 
     27 C12       -27.7170   -1.9270   -9.8720 C.3       1 PHR791      0.0000 
     28 O21       -28.4780   -1.8440   -8.6610 O.3       1 PHR791      0.0000 
     29 C13       -27.8290   -0.5920  -10.6230 C.3       1 PHR791      0.0000 
     30 O23       -26.9390   -0.5650  -11.7440 O.3       1 PHR791      0.0000 
     31 C14       -27.5350    0.6020   -9.7150 C.3       1 PHR791      0.0000 
     32 O26       -26.1260    0.7840   -9.5330 O.3       1 PHR791      0.0000 
     33 H         -33.3082   -4.2844  -19.4562 H         1 PHR791      0.0000 
     34 H         -31.7678   -3.4150  -19.3503 H         1 PHR791      0.0000 
     35 H         -31.8177   -6.3526  -20.0653 H         1 PHR791      0.0000 
     36 H         -31.9809   -5.8278  -18.3807 H         1 PHR791      0.0000 
     37 H         -29.6924   -4.8996  -20.1680 H         1 PHR791      0.0000 
     38 H         -29.6096   -6.3914  -19.2153 H         1 PHR791      0.0000 
     39 H         -30.3645   -3.8026  -17.8454 H         1 PHR791      0.0000 
     40 H         -28.6666   -4.1053  -18.2523 H         1 PHR791      0.0000 
     41 H         -28.5783   -5.1719  -16.2570 H         1 PHR791      0.0000 
     42 H         -29.3963   -6.5027  -17.0937 H         1 PHR791      0.0000 
     43 H         -31.3085   -6.1906  -15.9586 H         1 PHR791      0.0000 
     44 H         -31.2683   -4.4374  -16.2126 H         1 PHR791      0.0000 
     45 H         -29.6740   -9.2047  -12.4186 H         1 PHR791      0.0000 
     46 H         -28.8930   -5.6681  -10.3649 H         1 PHR791      0.0000 
     47 H         -30.1735   -2.5468  -11.1793 H         1 PHR791      0.0000 
     48 H         -28.9092   -2.0201  -12.3037 H         1 PHR791      0.0000 
     49 H         -28.6676   -3.8409   -9.8780 H         1 PHR791      0.0000 
     50 H         -26.6595   -2.0790   -9.6131 H         1 PHR791      0.0000 
     51 H         -28.8645   -0.4937  -10.9656 H         1 PHR791      0.0000 
     52 H         -28.0468    0.4255   -8.7549 H         1 PHR791      0.0000 
     53 H         -28.0015    1.4907  -10.1703 H         1 PHR791      0.0000 
     54 H         -26.2808   -3.2615  -11.0399 H         1 PHR791      0.0000 
     55 H         -27.7990   -1.8622   -7.9271 H         1 PHR791      0.0000 
     56 H         -26.0884   -0.1764  -11.3897 H         1 PHR791      0.0000 
     57 H         -25.9671    0.6167   -8.5600 H         1 PHR791      0.0000 
@<TRIPOS>BOND
     1    2    1 ar   
     2    3    2 ar   
     3    4    2 ar   
     4    5    2 1    
     5    6    5 1    
     6    7    6 1    
     7   33    6 1    
     8   34    6 1    
     9    8    7 1    
    10   35    7 1    
    11   36    7 1    
    12    9    8 1    
    13   37    8 1    
    14   38    8 1    
    15   10    9 1    
    16   39    9 1    
    17   40    9 1    
    18   11   10 1    
    19   41   10 1    
    20   42   10 1    
    21   12   11 1    
    22   43   11 1    
    23   44   11 1    
    24   13   12 1    
    25   17   12 am   
    26   14   13 1    
    27   20   13 2    
    28   15   14 2    
    29   16   14 1    
    30   22   16 1    
    31   45   16 1    
    32   18   17 2    
    33   19   17 am   
    34   20   19 1    
    35   24   19 1    
    36   21   20 1    
    37   22   21 1    
    38   46   21 1    
    39   23   22 2    
    40   25   24 1    
    41   47   24 1    
    42   48   24 1    
    43   26   25 1    
    44   27   25 1    
    45   49   25 1    
    46   54   26 1    
    47   28   27 1    
    48   29   27 1    
    49   50   27 1    
    50   55   28 1    
    51   30   29 1    
    52   31   29 1    
    53   51   29 1    
    54   56   30 1    
    55   32   31 1    
    56   52   31 1    
    57   53   31 1    
    58   57   32 1    
@<TRIPOS>SUBSTRUCTURE
     1 PHR791      1 GROUP   
@<TRIPOS>SET

