#    Name: 3mbl_LSG_1_INTS_M
#    Modification time : Mon Mar 24 22:58:45 2014

@<TRIPOS>MOLECULE
3mbl_LSG_1_INTS_M
   66     0     9     0     0
SMALL
NO_CHARGES


@<TRIPOS>ATOM
      1 CA         36.3915   25.2050   43.3100 C.3       3 GLC5        0.0000 
      2 CA         36.8190   27.3050   42.6850 C.3       9 GLL5        0.0000 
      3 CA         35.9640   23.1050   43.9350 C.3       6 GLP5        0.0000 
      4 CA         36.9575   28.4140   44.6010 C.3       3 GLC5        0.0000 
      5 CA         37.0960   29.5230   46.5170 C.3       6 GLP5        0.0000 
      6 CA         36.9140   24.5685   41.8935 C.3       3 GLC5        0.0000 
      7 CA         36.3010   26.4990   41.6310 C.3       9 GLL5        0.0000 
      8 CA         37.5270   22.6380   42.1560 C.3       6 GLP5        0.0000 
      9 CA         35.4620   24.8105   42.6160 C.3       3 GLC5        0.0000 
     10 CA         34.9600   26.5160   41.2970 C.3       9 GLL5        0.0000 
     11 CA         32.7450   26.5255   43.3980 C.3       3 GLC5        0.0000 
     12 CA         34.0630   27.3150   41.9990 C.3       9 GLL5        0.0000 
     13 CA         31.4270   25.7360   44.7970 C.3       6 GLP5        0.0000 
     14 CA         32.2375   29.7280   43.9245 C.3       3 GLC5        0.0000 
     15 CA         33.7140   28.8930   43.7720 C.3       9 GLL5        0.0000 
     16 CA         30.7610   30.5630   44.0770 C.3       6 GLP5        0.0000 
     17 CA         40.0230   28.8880   43.2785 C.3       3 GLC5        0.0000 
     18 CA         38.8950   27.2220   43.1730 C.3       9 GLL5        0.0000 
     19 CA         41.1510   30.5540   43.3840 C.3       6 GLP5        0.0000 
     20 CA         37.9955   28.3725   44.8450 C.3       3 GLC5        0.0000 
     21 CA         39.1530   26.2500   41.4720 C.3       3 GLC5        0.0000 
     22 CA         39.4110   25.2780   39.7710 C.3       6 GLP5        0.0000 
     23 CA         31.7355   26.2035   42.8130 C.3       3 GLC5        0.0000 
     24 CA         32.0440   26.6710   40.8290 C.3       9 GLL5        0.0000 
     25 CA         32.3310   24.3325   37.8375 C.3       3 GLC5        0.0000 
     26 CA         31.3390   25.1350   39.5260 C.3       9 GLL5        0.0000 
     27 CA         33.3230   23.5300   36.1490 C.3       6 GLP5        0.0000 
     28 N          31.1770   30.6510   41.4865 N.am      2 SEC2        0.0000 
     29 N          31.2800   29.3920   41.0480 N.am      8 SEL2        0.0000 
     30 N          31.0740   31.9100   41.9250 N.am      5 SEP2        0.0000 
     31 CA         27.2960   30.0600   39.1310 C.3       3 GLC5        0.0000 
     32 CA         28.5140   31.5320   38.9290 C.3       9 GLL5        0.0000 
     33 CA         26.0780   28.5880   39.3330 C.3       6 GLP5        0.0000 
     34 O          25.8590   33.1140   39.7965 O.2       1 ALC1        0.0000 
     35 O          27.1380   33.5050   39.1040 O.2       7 ALL1        0.0000 
     36 O          24.5800   32.7230   40.4890 O.2       4 ALP1        0.0000 
     37 CA         32.4475   22.9860   42.3120 C.3       3 GLC5        0.0000 
     38 CA         33.0240   24.4060   41.3140 C.3       9 GLL5        0.0000 
     39 CA         31.8710   21.5660   43.3100 C.3       6 GLP5        0.0000 
     40 CA         34.4940   23.7555   42.6245 C.3       3 GLC5        0.0000 
     41 CA         32.2255   25.0710   43.0555 C.3       3 GLC5        0.0000 
     42 CA         33.7265   22.6660   40.9555 C.3       3 GLC5        0.0000 
     43 CA         34.4290   20.9260   40.5970 C.3       6 GLP5        0.0000 
     44 N          32.8905   22.3045   38.4450 N.am      2 SEC2        0.0000 
     45 N          31.8090   22.7950   39.2000 N.am      8 SEL2        0.0000 
     46 N          33.9720   21.8140   37.6900 N.am      5 SEP2        0.0000 
     47 N          31.9735   21.4245   38.7875 N.am      2 SEC2        0.0000 
     48 N          32.1380   20.0540   38.3750 N.am      5 SEP2        0.0000 
     49 CA         31.7390   23.6835   36.9725 C.3       3 GLC5        0.0000 
     50 CA         30.1550   23.8370   37.7960 C.3       9 GLL5        0.0000 
     51 CA         28.8720   22.8385   38.9120 C.3       3 GLC5        0.0000 
     52 CA         27.5890   21.8400   40.0280 C.3       6 GLP5        0.0000 
     53 CA         29.7115   22.9935   36.2625 C.3       3 GLC5        0.0000 
     54 CA         29.2680   22.1500   34.7290 C.3       6 GLP5        0.0000 
     55 CA         35.2097   27.8912   40.2785 C.3       3 GLC5        0.0000 
     56 CA         34.7890   29.2750   39.0930 C.3       6 GLP5        0.0000 
     57 CA         34.5603   28.5023   40.8210 C.3       3 GLC5        0.0000 
     58 CA         34.2209   27.3776   44.9466 C.3       3 GLC5        0.0000 
     59 CA         34.6000   28.1440   43.0990 C.3       9 GLL5        0.0000 
     60 CA         33.9450   26.2400   46.3800 C.3       6 GLP5        0.0000 
     61 CA         35.3319   29.7026   44.5741 C.3       3 GLC5        0.0000 
     62 CA         36.1670   30.8900   45.6350 C.3       6 GLP5        0.0000 
     63 CA         33.1803   28.1417   39.7278 C.3       3 GLC5        0.0000 
     64 CA         29.7923   24.6852   40.3702 C.3       3 GLC5        0.0000 
     65 CA         30.6900   26.3240   39.0710 C.3       9 GLL5        0.0000 
     66 CA         28.5700   23.6410   41.4420 C.3       6 GLP5        0.0000 
@<TRIPOS>BOND
@<TRIPOS>SUBSTRUCTURE
     1 ALC1       34 GROUP        1 X    ALC  0     ROOT ALC X 1
     2 SEC2       28 GROUP        1 X    SEC  0     **** SEC X 2
     3 GLC5        1 GROUP        1 X    GLC  0     **** GLC X 6
     4 ALP1       36 GROUP        1 Y    ALP  0     ROOT ALP Y 8
     5 SEP2       30 GROUP        1 Y    SEP  0     **** SEP Y 9
     6 GLP5        3 GROUP        1 Y    GLP  0     **** GLP Y 13
     7 ALL1       35 GROUP        1 Z    ALL  0     ROOT ALL Z 15
     8 SEL2       29 GROUP        1 Z    SEL  0     **** SEL Z 16
     9 GLL5        2 GROUP        1 Z    GLL  0     **** GLL Z 20
@<TRIPOS>SET

