#    Name: 3mbl_LSG_1_ligand
#    Modification time : Mon Mar 24 22:58:46 2014

@<TRIPOS>MOLECULE
3mbl_LSG_1_ligand
   42    43     1     0     0
SMALL
NO_CHARGES


@<TRIPOS>ATOM
      1 C1         35.9590   28.1310   43.4100 C.ar      1 LSG7        0.0000 
      2 C2         36.8190   27.3050   42.6850 C.ar      1 LSG7        0.0000 
      3 C3         36.3010   26.4990   41.6310 C.ar      1 LSG7        0.0000 
      4 C4         34.9600   26.5160   41.2970 C.ar      1 LSG7        0.0000 
      5 C5         34.0630   27.3150   41.9990 C.ar      1 LSG7        0.0000 
      6 C6         34.6000   28.1440   43.0990 C.ar      1 LSG7        0.0000 
      7 F7         33.7140   28.8930   43.7720 F         1 LSG7        0.0000 
      8 I8         38.8950   27.2220   43.1730 I         1 LSG7        0.0000 
      9 N9         32.7170   27.3530   41.7890 N.pl3     1 LSG7        0.0000 
     10 C10        32.0440   26.6710   40.8290 C.2       1 LSG7        0.0000 
     11 N11        32.1490   25.3610   40.5930 N.pl3     1 LSG7        0.0000 
     12 C12        31.3390   25.1350   39.5260 C.2       1 LSG7        0.0000 
     13 C13        30.6900   26.3240   39.0710 C.2       1 LSG7        0.0000 
     14 C14        31.0990   27.3460   39.8960 C.2       1 LSG7        0.0000 
     15 C15        30.8190   28.7990   40.0490 C.2       1 LSG7        0.0000 
     16 O16        31.2800   29.3920   41.0480 O.2       1 LSG7        0.0000 
     17 N17        30.0550   29.4550   39.1800 N.am      1 LSG7        0.0000 
     18 O18        29.6830   30.8670   39.4560 O.3       1 LSG7        0.0000 
     19 C19        28.5140   31.5320   38.9290 C.3       1 LSG7        0.0000 
     20 C20        28.1550   32.7440   39.7870 C.3       1 LSG7        0.0000 
     21 O21        27.1380   33.5050   39.1040 O.3       1 LSG7        0.0000 
     22 C22        33.0240   24.4060   41.3140 C.3       1 LSG7        0.0000 
     23 C23        31.1730   23.8080   38.8880 C.2       1 LSG7        0.0000 
     24 O24        31.8090   22.7950   39.2000 O.2       1 LSG7        0.0000 
     25 C25        30.1550   23.8370   37.7960 C.3       1 LSG7        0.0000 
     26 H          36.3226   28.7207   44.1619 H         1 LSG7        0.0000 
     27 H          36.9605   25.8910   41.1127 H         1 LSG7        0.0000 
     28 H          34.6154   25.9298   40.5173 H         1 LSG7        0.0000 
     29 H          32.1373   27.9824   42.4463 H         1 LSG7        0.0000 
     30 H          30.1018   26.3668   38.3442 H         1 LSG7        0.0000 
     31 H          29.6927   29.0557   38.3134 H         1 LSG7        0.0000 
     32 H          27.6466   30.8601   38.9131 H         1 LSG7        0.0000 
     33 H          28.6834   31.8823   37.9031 H         1 LSG7        0.0000 
     34 H          29.0601   33.3311   39.9391 H         1 LSG7        0.0000 
     35 H          27.8038   32.3828   40.7530 H         1 LSG7        0.0000 
     36 H          33.9897   24.6522   41.2317 H         1 LSG7        0.0000 
     37 H          32.8121   24.3728   42.2907 H         1 LSG7        0.0000 
     38 H          32.9278   23.4752   40.9614 H         1 LSG7        0.0000 
     39 H          30.4076   24.4762   37.0697 H         1 LSG7        0.0000 
     40 H          30.0415   22.9394   37.3701 H         1 LSG7        0.0000 
     41 H          29.2563   24.1170   38.1334 H         1 LSG7        0.0000 
     42 H          26.2827   33.2638   39.5626 H         1 LSG7        0.0000 
@<TRIPOS>BOND
     1    2    1 ar   
     2    6    1 ar   
     3   26    1 1    
     4    3    2 ar   
     5    8    2 1    
     6    4    3 ar   
     7   27    3 1    
     8    5    4 ar   
     9   28    4 1    
    10    6    5 ar   
    11    9    5 1    
    12    7    6 1    
    13   10    9 1    
    14   29    9 1    
    15   11   10 1    
    16   14   10 2    
    17   12   11 1    
    18   22   11 1    
    19   13   12 2    
    20   23   12 1    
    21   14   13 1    
    22   30   13 1    
    23   15   14 1    
    24   16   15 2    
    25   17   15 am   
    26   18   17 1    
    27   31   17 1    
    28   19   18 1    
    29   20   19 1    
    30   32   19 1    
    31   33   19 1    
    32   21   20 1    
    33   34   20 1    
    34   35   20 1    
    35   42   21 1    
    36   36   22 1    
    37   37   22 1    
    38   38   22 1    
    39   24   23 2    
    40   25   23 1    
    41   39   25 1    
    42   40   25 1    
    43   41   25 1    
@<TRIPOS>SUBSTRUCTURE
     1 LSG7        1 GROUP   
@<TRIPOS>SET

