#    Name: 2ydf_IO3_1_INTS_M
#    Modification time : Tue Mar 25 08:42:40 2014

@<TRIPOS>MOLECULE
2ydf_IO3_1_INTS_M
   61     0     9     0     0
SMALL
NO_CHARGES


@<TRIPOS>ATOM
      1 CA          7.1105  -14.2545    5.7970 C.3       3 GLC5        0.0000 
      2 CA          7.2560  -13.1420    7.2940 C.3       9 GLL5        0.0000 
      3 CA          6.9650  -15.3670    4.3000 C.3       6 GLP5        0.0000 
      4 CA          8.9005  -14.4335    7.4655 C.3       3 GLC5        0.0000 
      5 CA         10.5450  -15.7250    7.6370 C.3       6 GLP5        0.0000 
      6 CA          8.0540  -12.8650    9.2190 C.3       3 GLC5        0.0000 
      7 CA          8.8520  -12.5880   11.1440 C.3       6 GLP5        0.0000 
      8 CA          2.1885  -11.2300   12.7265 C.3       3 GLC5        0.0000 
      9 CA          3.9020  -12.0250   12.0250 C.3       9 GLL5        0.0000 
     10 CA          0.4750  -10.4350   13.4280 C.3       6 GLP5        0.0000 
     11 CA          2.9955  -13.6595   11.5665 C.3       3 GLC5        0.0000 
     12 CA          2.0890  -15.2940   11.1080 C.3       6 GLP5        0.0000 
     13 CA          4.4015  -12.4300   14.1365 C.3       3 GLC5        0.0000 
     14 CA          4.9010  -12.8350   16.2480 C.3       6 GLP5        0.0000 
     15 CA          1.9180   -7.8100    8.3615 C.3       3 GLC5        0.0000 
     16 CA          3.1480   -8.5590    7.2340 C.3       9 GLL5        0.0000 
     17 CA          0.6880   -7.0610    9.4890 C.3       6 GLP5        0.0000 
     18 CA          2.0485   -8.5570    5.5305 C.3       3 GLC5        0.0000 
     19 CA          0.9490   -8.5550    3.8270 C.3       6 GLP5        0.0000 
     20 CA          4.8965   -8.2800    8.0830 C.3       3 GLC5        0.0000 
     21 CA          6.6450   -8.0010    8.9320 C.3       6 GLP5        0.0000 
     22 NZ          3.2345   -8.5805   10.8880 N.4       2 LYC4        0.0000 
     23 NZ          2.8260   -9.7470   10.0540 N.4       8 LYL4        0.0000 
     24 NZ          2.5510   -7.5240   12.4670 N.4       5 LYP4        0.0000 
     25 N           2.3700   -9.2170   11.2925 N.am      1 SEC2        0.0000 
     26 N           2.8260   -9.7470   10.0540 N.am      7 SEL2        0.0000 
     27 N           1.9140   -8.6870   12.5310 N.am      4 SEP2        0.0000 
     28 N           3.2345   -8.5805   10.8880 N.am      1 SEC2        0.0000 
     29 N           3.6430   -7.4140   11.7220 N.am      4 SEP2        0.0000 
     30 NZ          3.3985   -8.6385    3.0510 N.4       2 LYC4        0.0000 
     31 NZ          4.6850   -8.9210    3.1840 N.4       8 LYL4        0.0000 
     32 NZ          2.1120   -8.3560    2.9180 N.4       5 LYP4        0.0000 
     33 N           3.3985   -8.6385    3.0510 N.am      1 SEC2        0.0000 
     34 N           4.6850   -8.9210    3.1840 N.am      7 SEL2        0.0000 
     35 N           2.1120   -8.3560    2.9180 N.am      4 SEP2        0.0000 
     36 N           7.5640  -10.2830    3.7875 N.am      1 SEC2        0.0000 
     37 N           6.2480  -10.4520    3.3010 N.am      7 SEL2        0.0000 
     38 N           8.8800  -10.1140    4.2740 N.am      4 SEP2        0.0000 
     39 CA          5.5315   -9.7625    9.4965 C.3       3 GLC5        0.0000 
     40 CA          4.4180  -11.5240   10.0610 C.3       9 GLL5        0.0000 
     41 CA          6.7305   -9.7110    7.3945 C.3       3 GLC5        0.0000 
     42 CA          5.5660  -10.5750    6.0730 C.3       9 GLL5        0.0000 
     43 CA          7.8950   -8.8470    8.7160 C.3       6 GLP5        0.0000 
     44 CA          6.0150  -12.5520    2.3470 C.3       3 GLC5        0.0000 
     45 CA          4.7530  -12.8490    4.0840 C.3       9 GLL5        0.0000 
     46 CA          7.2770  -12.2550    0.6100 C.3       6 GLP5        0.0000 
     47 CA          5.8590  -14.1080    4.1920 C.3       3 GLC5        0.0000 
     48 CA          5.6487   -9.2672    8.3648 C.3       3 GLC5        0.0000 
     49 CA          5.1420  -10.9020    7.4700 C.3       9 GLL5        0.0000 
     50 CA          7.2110  -12.3483    9.9710 C.3       3 GLC5        0.0000 
     51 CA          5.7490  -11.9520    8.1530 C.3       9 GLL5        0.0000 
     52 CA          6.7325  -10.4778    8.7570 C.3       3 GLC5        0.0000 
     53 CA          5.3910  -12.2650    9.4430 C.3       9 GLL5        0.0000 
     54 CA          3.3273  -12.6747    8.7810 C.3       3 GLC5        0.0000 
     55 CA          1.7500  -13.4550    7.8100 C.3       6 GLP5        0.0000 
     56 CA          3.2771  -12.1255    7.8891 C.3       3 GLC5        0.0000 
     57 CA          4.1630  -10.1650    8.1250 C.3       9 GLL5        0.0000 
     58 CA          2.5913   -9.8367    4.3415 C.3       3 GLC5        0.0000 
     59 CA          3.9240  -11.7820    4.7160 C.3       9 GLL5        0.0000 
     60 CA          3.6517  -13.7008    5.3730 C.3       3 GLC5        0.0000 
     61 CA          2.9650  -15.0860    6.3460 C.3       6 GLP5        0.0000 
@<TRIPOS>BOND
@<TRIPOS>SUBSTRUCTURE
     1 SEC2       25 GROUP        1 X    SEC  0     ROOT SEC X 2
     2 LYC4       22 GROUP        1 X    LYC  0     **** LYC X 4
     3 GLC5        1 GROUP        1 X    GLC  0     **** GLC X 6
     4 SEP2       27 GROUP        1 Y    SEP  0     ROOT SEP Y 9
     5 LYP4       24 GROUP        1 Y    LYP  0     **** LYP Y 11
     6 GLP5        3 GROUP        1 Y    GLP  0     **** GLP Y 13
     7 SEL2       26 GROUP        1 Z    SEL  0     ROOT SEL Z 16
     8 LYL4       23 GROUP        1 Z    LYL  0     **** LYL Z 18
     9 GLL5        2 GROUP        1 Z    GLL  0     **** GLL Z 20
@<TRIPOS>SET

