#    Name: 2ydf_IO3_1_ligand
#    Modification time : Tue Mar 25 08:42:41 2014

@<TRIPOS>MOLECULE
2ydf_IO3_1_ligand
   26    26     1     0     0
SMALL
NO_CHARGES


@<TRIPOS>ATOM
      1 I1          7.2560  -13.1420    7.2940 I         1 IO32001     0.0000 
      2 I2          3.9020  -12.0250   12.0250 I         1 IO32001     0.0000 
      3 I3          3.1480   -8.5590    7.2340 I         1 IO32001     0.0000 
      4 O1          2.8260   -9.7470   10.0540 O.co2     1 IO32001     0.0000 
      5 O2          4.6850   -8.9210    3.1840 O.co2     1 IO32001     0.0000 
      6 O3          6.2480  -10.4520    3.3010 O.co2     1 IO32001     0.0000 
      7 C1          5.1420  -10.9020    7.4700 C.ar      1 IO32001     0.0000 
      8 C2          5.7490  -11.9520    8.1530 C.ar      1 IO32001     0.0000 
      9 C3          5.3910  -12.2650    9.4430 C.ar      1 IO32001     0.0000 
     10 C4          4.4180  -11.5240   10.0610 C.ar      1 IO32001     0.0000 
     11 C5          3.8000  -10.4780    9.4150 C.ar      1 IO32001     0.0000 
     12 C6          4.1630  -10.1650    8.1250 C.ar      1 IO32001     0.0000 
     13 C7          5.5660  -10.5750    6.0730 C.3       1 IO32001     0.0000 
     14 C8          4.5430  -10.4550    4.9960 C.3       1 IO32001     0.0000 
     15 C9          5.1940   -9.9200    3.7620 C.2       1 IO32001     0.0000 
     16 C10         3.9240  -11.7820    4.7160 C.3       1 IO32001     0.0000 
     17 C11         4.7530  -12.8490    4.0840 C.3       1 IO32001     0.0000 
     18 H           5.8474  -13.0433    9.9345 H         1 IO32001     0.0000 
     19 H           6.3403  -11.3414    5.7487 H         1 IO32001     0.0000 
     20 H           6.1712   -9.6132    6.1019 H         1 IO32001     0.0000 
     21 H           3.7760   -9.7627    5.3140 H         1 IO32001     0.0000 
     22 H           3.0015  -11.6201    4.0778 H         1 IO32001     0.0000 
     23 H           3.4936  -12.1882    5.6825 H         1 IO32001     0.0000 
     24 H           5.0976  -12.5696    3.1878 H         1 IO32001     0.0000 
     25 H           5.5480  -13.0823    4.6440 H         1 IO32001     0.0000 
     26 H           4.2326  -13.6921    3.9482 H         1 IO32001     0.0000 
@<TRIPOS>BOND
     1    8    1 1    
     2   10    2 1    
     3   12    3 1    
     4   11    4 ar   
     5   15    5 ar   
     6   15    6 ar   
     7    8    7 ar   
     8   12    7 ar   
     9   13    7 1    
    10    9    8 ar   
    11   10    9 ar   
    12   18    9 1    
    13   11   10 ar   
    14   12   11 ar   
    15   14   13 1    
    16   19   13 1    
    17   20   13 1    
    18   15   14 1    
    19   16   14 1    
    20   21   14 1    
    21   17   16 1    
    22   22   16 1    
    23   23   16 1    
    24   24   17 1    
    25   25   17 1    
    26   26   17 1    
@<TRIPOS>SUBSTRUCTURE
     1 IO32001     1 GROUP   
@<TRIPOS>SET

