#    Name: 2a9y_26A_1_INTS_M
#    Modification time : Mon Mar 24 18:46:49 2014

@<TRIPOS>MOLECULE
2a9y_26A_1_INTS_M
   64     0     9     0     0
SMALL
NO_CHARGES


@<TRIPOS>ATOM
      1 CA         -4.4745  -39.9925 -107.0250 C.3       3 GLC5        0.0000 
      2 CA         -5.7600  -40.9760 -107.9130 C.3       9 GLL5        0.0000 
      3 CA         -3.1890  -39.0090 -106.1370 C.3       6 GLP5        0.0000 
      4 CA         -6.7845  -41.7410 -109.1065 C.3       3 GLC5        0.0000 
      5 CA         -7.8090  -42.5060 -110.3000 C.3       6 GLP5        0.0000 
      6 CA         -4.2465  -40.7020 -109.5050 C.3       3 GLC5        0.0000 
      7 CA         -2.7330  -40.4280 -111.0970 C.3       6 GLP5        0.0000 
      8 CA         -7.1125  -37.9905 -106.8215 C.3       3 GLC5        0.0000 
      9 CA         -7.8580  -39.5620 -107.5350 C.3       9 GLL5        0.0000 
     10 CA         -6.3670  -36.4190 -106.1080 C.3       6 GLP5        0.0000 
     11 CA         -8.4610  -40.7485 -108.8825 C.3       3 GLC5        0.0000 
     12 CA         -9.0640  -41.9350 -110.2300 C.3       6 GLP5        0.0000 
     13 CA         -5.9205  -41.1530 -105.4870 C.3       3 GLC5        0.0000 
     14 CA         -7.5950  -41.7800 -106.5020 C.3       9 GLL5        0.0000 
     15 CA         -4.2460  -40.5260 -104.4720 C.3       6 GLP5        0.0000 
     16 CA         -6.9350  -43.1150 -108.0900 C.3       3 GLC5        0.0000 
     17 CA         -6.2750  -44.4500 -109.6780 C.3       6 GLP5        0.0000 
     18 CA         -8.2635  -40.2700 -104.2810 C.3       3 GLC5        0.0000 
     19 CA         -8.8880  -41.6930 -105.8080 C.3       9 GLL5        0.0000 
     20 CA         -7.6390  -38.8470 -102.7540 C.3       6 GLP5        0.0000 
     21 N          -9.2425  -45.5005 -104.9330 N.am      2 SEC2        0.0000 
     22 N          -8.6770  -44.0910 -105.2650 N.am      8 SEL2        0.0000 
     23 N          -9.8080  -46.9100 -104.6010 N.am      5 SEP2        0.0000 
     24 CA         -5.7515  -44.4530 -105.2400 C.3       3 GLC5        0.0000 
     25 CA         -7.5040  -44.0700 -105.9150 C.3       9 GLL5        0.0000 
     26 CA         -3.9990  -44.8360 -104.5650 C.3       6 GLP5        0.0000 
     27 CA         -7.2645  -43.4115 -104.1765 C.3       3 GLC5        0.0000 
     28 CA         -7.0250  -42.7530 -102.4380 C.3       6 GLP5        0.0000 
     29 CA         -8.9620  -45.5530 -106.4350 C.3       3 GLC5        0.0000 
     30 CA        -10.4200  -47.0360 -106.9550 C.3       6 GLP5        0.0000 
     31 CA         -6.8895  -44.2600 -107.7965 C.3       3 GLC5        0.0000 
     32 N          -5.4465  -43.4420 -106.6380 N.am      2 SEC2        0.0000 
     33 N          -6.9330  -42.9770 -106.4760 N.am      8 SEL2        0.0000 
     34 N          -3.9600  -43.9070 -106.8000 N.am      5 SEP2        0.0000 
     35 CA        -16.4335  -45.6975 -104.7005 C.3       3 GLC5        0.0000 
     36 CA        -14.7980  -44.4660 -104.2340 C.3       9 GLL5        0.0000 
     37 CA        -18.0690  -46.9290 -105.1670 C.3       6 GLP5        0.0000 
     38 O         -14.4545  -46.3115 -105.5880 O.2       1 ALC1        0.0000 
     39 O         -14.8670  -45.0100 -105.5790 O.2       7 ALL1        0.0000 
     40 O         -14.0420  -47.6130 -105.5970 O.2       4 ALP1        0.0000 
     41 CA        -12.0520  -41.3005 -101.6055 C.3       3 GLC5        0.0000 
     42 CA        -11.8290  -43.1640 -102.4170 C.3       9 GLL5        0.0000 
     43 CA        -12.2750  -39.4370 -100.7940 C.3       6 GLP5        0.0000 
     44 N         -10.3310  -44.7225 -101.3130 N.am      2 SEC2        0.0000 
     45 N         -10.8370  -43.3310 -101.4590 N.am      8 SEL2        0.0000 
     46 N          -9.8250  -46.1140 -101.1670 N.am      5 SEP2        0.0000 
     47 O         -11.3345  -43.1425 -100.2240 O.2       1 ALC1        0.0000 
     48 O         -10.8370  -43.3310 -101.4590 O.2       7 ALL1        0.0000 
     49 O         -11.8320  -42.9540  -98.9890 O.2       4 ALP1        0.0000 
     50 N         -11.4110  -45.5775 -101.3060 N.am      2 SEC2        0.0000 
     51 N         -12.9970  -45.0410 -101.4450 N.am      8 SEL2        0.0000 
     52 N         -13.3425  -46.4580 -102.0125 N.am      2 SEC2        0.0000 
     53 N         -13.6880  -47.8750 -102.5800 N.am      5 SEP2        0.0000 
     54 O         -13.2960  -44.6360 -100.2265 O.2       1 ALC1        0.0000 
     55 O         -12.9970  -45.0410 -101.4450 O.2       7 ALL1        0.0000 
     56 O         -13.5950  -44.2310  -99.0080 O.2       4 ALP1        0.0000 
     57 CA         -7.9079  -42.5351 -104.0570 C.3       3 GLC5        0.0000 
     58 CA         -9.3400  -42.8980 -105.1970 C.3       9 GLL5        0.0000 
     59 CA        -10.2835  -44.8693 -102.7127 C.3       3 GLC5        0.0000 
     60 CA        -11.2870  -43.5890 -103.7840 C.3       9 GLL5        0.0000 
     61 CA         -9.0090  -46.3620 -102.3250 C.3       6 GLP5        0.0000 
     62 CA        -15.0877  -44.1621 -101.8958 C.3       3 GLC5        0.0000 
     63 CA        -13.1700  -43.9510 -102.3490 C.3       9 GLL5        0.0000 
     64 CA        -16.5440  -44.1000 -100.6260 C.3       6 GLP5        0.0000 
@<TRIPOS>BOND
@<TRIPOS>SUBSTRUCTURE
     1 ALC1       38 GROUP        1 X    ALC  0     ROOT ALC X 1
     2 SEC2       21 GROUP        1 X    SEC  0     **** SEC X 2
     3 GLC5        1 GROUP        1 X    GLC  0     **** GLC X 6
     4 ALP1       40 GROUP        1 Y    ALP  0     ROOT ALP Y 8
     5 SEP2       23 GROUP        1 Y    SEP  0     **** SEP Y 9
     6 GLP5        3 GROUP        1 Y    GLP  0     **** GLP Y 13
     7 ALL1       39 GROUP        1 Z    ALL  0     ROOT ALL Z 15
     8 SEL2       22 GROUP        1 Z    SEL  0     **** SEL Z 16
     9 GLL5        2 GROUP        1 Z    GLL  0     **** GLL Z 20
@<TRIPOS>SET

