#    Name: 2a9y_26A_1_ligand
#    Modification time : Mon Mar 24 18:46:49 2014

@<TRIPOS>MOLECULE
2a9y_26A_1_ligand
   38    40     1     0     0
SMALL
NO_CHARGES


@<TRIPOS>ATOM
      1 C10        -5.7600  -40.9760 -107.9130 C.3       1 26A1001     0.0000 
      2 N6         -7.0200  -40.7720 -107.2300 N.3       1 26A1001     0.0000 
      3 C9         -7.8580  -39.5620 -107.5350 C.3       1 26A1001     0.0000 
      4 C6         -7.5950  -41.7800 -106.5020 C.ar      1 26A1001     0.0000 
      5 C5         -8.8880  -41.6930 -105.8080 C.ar      1 26A1001     0.0000 
      6 C4         -9.3400  -42.8980 -105.1970 C.ar      1 26A1001     0.0000 
      7 N3         -8.6770  -44.0910 -105.2650 N.ar      1 26A1001     0.0000 
      8 C2         -7.5040  -44.0700 -105.9150 C.ar      1 26A1001     0.0000 
      9 N1         -6.9330  -42.9770 -106.4760 N.ar      1 26A1001     0.0000 
     10 N7         -9.7880  -40.6950 -105.5160 N.2       1 26A1001     0.0000 
     11 C8        -10.8150  -41.2600 -104.7940 C.2       1 26A1001     0.0000 
     12 N9        -10.4790  -42.6030 -104.5350 N.pl3     1 26A1001     0.0000 
     13 C1'       -11.2870  -43.5890 -103.7840 C.3       1 26A1001     0.0000 
     14 O4'       -12.4610  -43.7460 -104.5730 O.3       1 26A1001     0.0000 
     15 C4'       -13.3880  -44.5290 -103.7300 C.3       1 26A1001     0.0000 
     16 C5'       -14.7980  -44.4660 -104.2340 C.3       1 26A1001     0.0000 
     17 O5'       -14.8670  -45.0100 -105.5790 O.3       1 26A1001     0.0000 
     18 C2'       -11.8290  -43.1640 -102.4170 C.3       1 26A1001     0.0000 
     19 O2'       -10.8370  -43.3310 -101.4590 O.3       1 26A1001     0.0000 
     20 C3'       -13.1700  -43.9510 -102.3490 C.3       1 26A1001     0.0000 
     21 O3'       -12.9970  -45.0410 -101.4450 O.3       1 26A1001     0.0000 
     22 H          -6.9638  -45.0023 -106.0015 H         1 26A1001     0.0000 
     23 H         -11.6133  -40.8364 -104.5124 H         1 26A1001     0.0000 
     24 H         -10.7884  -44.5200 -103.6981 H         1 26A1001     0.0000 
     25 H         -13.0352  -45.5573 -103.7147 H         1 26A1001     0.0000 
     26 H         -15.1327  -43.4217 -104.2205 H         1 26A1001     0.0000 
     27 H         -15.4434  -45.0334 -103.5527 H         1 26A1001     0.0000 
     28 H         -12.1136  -42.1028 -102.5699 H         1 26A1001     0.0000 
     29 H         -13.9359  -43.3030 -102.0976 H         1 26A1001     0.0000 
     30 H          -5.1218  -40.2242 -107.7474 H         1 26A1001     0.0000 
     31 H          -5.3072  -41.8160 -107.6140 H         1 26A1001     0.0000 
     32 H          -5.8812  -41.0448 -108.9032 H         1 26A1001     0.0000 
     33 H          -7.3679  -38.7123 -107.3407 H         1 26A1001     0.0000 
     34 H          -8.1288  -39.5307 -108.4971 H         1 26A1001     0.0000 
     35 H          -8.6984  -39.5461 -106.9933 H         1 26A1001     0.0000 
     36 H         -14.5561  -45.9564 -105.4915 H         1 26A1001     0.0000 
     37 H         -11.2957  -43.1824 -100.5830 H         1 26A1001     0.0000 
     38 H         -13.6414  -44.8647 -100.7008 H         1 26A1001     0.0000 
@<TRIPOS>BOND
     1    2    1 1    
     2   30    1 1    
     3   31    1 1    
     4   32    1 1    
     5    3    2 1    
     6    4    2 1    
     7   33    3 1    
     8   34    3 1    
     9   35    3 1    
    10    5    4 ar   
    11    9    4 ar   
    12    6    5 ar   
    13   10    5 1    
    14    7    6 ar   
    15   12    6 1    
    16    8    7 ar   
    17    9    8 ar   
    18   22    8 1    
    19   11   10 2    
    20   12   11 1    
    21   23   11 1    
    22   13   12 1    
    23   14   13 1    
    24   18   13 1    
    25   24   13 1    
    26   15   14 1    
    27   16   15 1    
    28   20   15 1    
    29   25   15 1    
    30   17   16 1    
    31   26   16 1    
    32   27   16 1    
    33   36   17 1    
    34   19   18 1    
    35   20   18 1    
    36   28   18 1    
    37   37   19 1    
    38   21   20 1    
    39   29   20 1    
    40   38   21 1    
@<TRIPOS>SUBSTRUCTURE
     1 26A1001     1 GROUP   
@<TRIPOS>SET

