#    Name: 4fhk_0U0_1_INTS_M
#    Modification time : Mon Mar 24 20:03:16 2014

@<TRIPOS>MOLECULE
4fhk_0U0_1_INTS_M
   64     0     9     0     0
SMALL
NO_CHARGES


@<TRIPOS>ATOM
      1 CA         18.0255   16.9225   23.4605 C.3       3 GLC5        0.0000 
      2 CA         16.8820   16.8330   21.8040 C.3       9 GLL5        0.0000 
      3 CA         19.1690   17.0120   25.1170 C.3       6 GLP5        0.0000 
      4 CA         18.1065   15.9150   24.0370 C.3       3 GLC5        0.0000 
      5 CA         17.0440   14.8180   22.9570 C.3       9 GLL5        0.0000 
      6 O          16.7520   13.1830   24.4830 O.2       1 ALC1        0.0000 
      7 O          17.7440   13.7660   23.4190 O.2       7 ALL1        0.0000 
      8 O          15.7600   12.6000   25.5470 O.2       4 ALP1        0.0000 
      9 CA         17.4120   12.3560   22.5680 C.3       3 GLC5        0.0000 
     10 CA         19.0620   13.5420   23.2870 C.3       9 GLL5        0.0000 
     11 CA         15.7620   11.1700   21.8490 C.3       6 GLP5        0.0000 
     12 CA         19.1155   15.2770   24.2020 C.3       3 GLC5        0.0000 
     13 N          18.5445   11.5075   24.4245 N.am      2 SEC2        0.0000 
     14 N          19.6430   12.6600   24.1190 N.am      8 SEL2        0.0000 
     15 N          17.4460   10.3550   24.7300 N.am      5 SEP2        0.0000 
     16 CA         20.8985   14.4000   24.6930 C.3       3 GLC5        0.0000 
     17 CA         20.9590   12.3880   24.0290 C.3       9 GLL5        0.0000 
     18 CA         20.8380   16.4120   25.3570 C.3       6 GLP5        0.0000 
     19 CA         22.6355   10.0640   25.5865 C.3       3 GLC5        0.0000 
     20 CA         21.6020   11.3920   24.9840 C.3       9 GLL5        0.0000 
     21 CA         23.6690    8.7360   26.1890 C.3       6 GLP5        0.0000 
     22 CA         22.4130   10.3350   23.2950 C.3       3 GLC5        0.0000 
     23 CA         23.2240    9.2780   21.6060 C.3       6 GLP5        0.0000 
     24 CA         20.2675   10.7175   26.1630 C.3       3 GLC5        0.0000 
     25 CA         18.9330   10.0430   27.3420 C.3       6 GLP5        0.0000 
     26 CA         21.2885   12.4845   26.5035 C.3       3 GLC5        0.0000 
     27 CA         20.9750   13.5770   28.0230 C.3       6 GLP5        0.0000 
     28 CA         20.3655   16.5545   17.5765 C.3       3 GLC5        0.0000 
     29 CA         21.7680   17.4420   18.5060 C.3       9 GLL5        0.0000 
     30 CA         18.9630   15.6670   16.6470 C.3       6 GLP5        0.0000 
     31 CA         23.0645   15.9500   16.6640 C.3       3 GLC5        0.0000 
     32 CA         22.9430   16.7260   18.7090 C.3       9 GLL5        0.0000 
     33 CA         23.1860   15.1740   14.6190 C.3       6 GLP5        0.0000 
     34 N          25.1280   15.0155   19.0440 N.am      2 SEC2        0.0000 
     35 N          23.8790   14.8880   20.1110 N.am      8 SEL2        0.0000 
     36 N          26.3770   15.1430   17.9770 N.am      5 SEP2        0.0000 
     37 CA         25.6685   13.2335   23.8905 C.3       3 GLC5        0.0000 
     38 CA         25.9760   11.9870   22.2990 C.3       9 GLL5        0.0000 
     39 CA         25.3610   14.4800   25.4820 C.3       6 GLP5        0.0000 
     40 CA         28.0885   10.4370   20.6750 C.3       3 GLC5        0.0000 
     41 CA         27.1840   11.9430   21.7500 C.3       9 GLL5        0.0000 
     42 CA         28.9930    8.9310   19.6000 C.3       6 GLP5        0.0000 
     43 O          28.1775   13.3270   19.5585 O.2       1 ALC1        0.0000 
     44 O          27.1910   12.7570   20.6920 O.2       7 ALL1        0.0000 
     45 O          29.1640   13.8970   18.4250 O.2       4 ALP1        0.0000 
     46 CA         16.0610   13.0100   22.4712 C.3       3 GLC5        0.0000 
     47 CA         16.3935   15.1555   25.2302 C.3       3 GLC5        0.0000 
     48 CA         15.6760   14.8820   23.2300 C.3       9 GLL5        0.0000 
     49 CA         16.4270   15.4610   27.3670 C.3       6 GLP5        0.0000 
     50 CA         20.2680   13.2055   20.6373 C.3       3 GLC5        0.0000 
     51 CA         19.8470   14.1670   22.3160 C.3       9 GLL5        0.0000 
     52 CA         20.0080   12.3910   18.9950 C.3       6 GLP5        0.0000 
     53 CA         20.6830   15.2160   23.8182 C.3       3 GLC5        0.0000 
     54 CA         21.2090   13.8730   22.2430 C.3       9 GLL5        0.0000 
     55 CA         22.6707   13.0325   25.3603 C.3       3 GLC5        0.0000 
     56 CA         24.0610   14.1750   26.2140 C.3       6 GLP5        0.0000 
     57 CA         21.3592   13.3430   20.0917 C.3       3 GLC5        0.0000 
     58 CA         22.0490   14.4690   21.2990 C.3       9 GLL5        0.0000 
     59 CA         23.5068   15.1725   22.6103 C.3       3 GLC5        0.0000 
     60 CA         24.5130   16.1990   23.7960 C.3       6 GLP5        0.0000 
     61 CA         25.9510   11.0495   20.6157 C.3       3 GLC5        0.0000 
     62 CA         25.3220   10.1340   19.2070 C.3       6 GLP5        0.0000 
     63 CA         27.8650   13.0500   22.7673 C.3       3 GLC5        0.0000 
     64 CA         29.1500   14.1350   23.5100 C.3       6 GLP5        0.0000 
@<TRIPOS>BOND
@<TRIPOS>SUBSTRUCTURE
     1 ALC1        6 GROUP        1 X    ALC  0     ROOT ALC X 1
     2 SEC2       13 GROUP        1 X    SEC  0     **** SEC X 2
     3 GLC5        1 GROUP        1 X    GLC  0     **** GLC X 6
     4 ALP1        8 GROUP        1 Y    ALP  0     ROOT ALP Y 8
     5 SEP2       15 GROUP        1 Y    SEP  0     **** SEP Y 9
     6 GLP5        3 GROUP        1 Y    GLP  0     **** GLP Y 13
     7 ALL1        7 GROUP        1 Z    ALL  0     ROOT ALL Z 15
     8 SEL2       14 GROUP        1 Z    SEL  0     **** SEL Z 16
     9 GLL5        2 GROUP        1 Z    GLL  0     **** GLL Z 20
@<TRIPOS>SET

