#    Name: 4fhk_0U0_1_ligand
#    Modification time : Mon Mar 24 20:03:17 2014

@<TRIPOS>MOLECULE
4fhk_0U0_1_ligand
   44    48     1     0     0
SMALL
NO_CHARGES


@<TRIPOS>ATOM
      1 C15        15.6760   14.8820   23.2300 C.ar      1 0U01205     0.0000 
      2 N10        14.9550   15.9030   22.7860 N.ar      1 0U01205     0.0000 
      3 C16        15.5170   16.8770   22.0840 C.ar      1 0U01205     0.0000 
      4 C17        16.8820   16.8330   21.8040 C.ar      1 0U01205     0.0000 
      5 N11        17.6090   15.8130   22.2410 N.ar      1 0U01205     0.0000 
      6 C14        17.0440   14.8180   22.9570 C.ar      1 0U01205     0.0000 
      7 N7         17.7440   13.7660   23.4190 N.pl3     1 0U01205     0.0000 
      8 C9         19.0620   13.5420   23.2870 C.ar      1 0U01205     0.0000 
      9 C8         19.8470   14.1670   22.3160 C.ar      1 0U01205     0.0000 
     10 N5         19.6430   12.6600   24.1190 N.ar      1 0U01205     0.0000 
     11 C10        20.9590   12.3880   24.0290 C.ar      1 0U01205     0.0000 
     12 C18        21.6020   11.3920   24.9840 C.3       1 0U01205     0.0000 
     13 N6         21.7280   12.9860   23.1080 N.ar      1 0U01205     0.0000 
     14 C7         21.2090   13.8730   22.2430 C.ar      1 0U01205     0.0000 
     15 C5         22.0490   14.4690   21.2990 C.2       1 0U01205     0.0000 
     16 N2         21.7420   15.5060   20.4150 N.pl3     1 0U01205     0.0000 
     17 N1         20.7150   16.1670   20.2040 N.2       1 0U01205     0.0000 
     18 C2         20.6560   17.1280   19.2890 C.2       1 0U01205     0.0000 
     19 C1         21.7680   17.4420   18.5060 C.2       1 0U01205     0.0000 
     20 C4         22.9430   16.7260   18.7090 C.2       1 0U01205     0.0000 
     21 C3         22.9330   15.7330   19.6860 C.2       1 0U01205     0.0000 
     22 N3         23.8790   14.8880   20.1110 N.2       1 0U01205     0.0000 
     23 C6         23.3720   14.1210   21.0780 C.2       1 0U01205     0.0000 
     24 N4         24.0190   13.1590   21.7490 N.pl3     1 0U01205     0.0000 
     25 C11        25.2970   12.8300   21.5430 C.2       1 0U01205     0.0000 
     26 C13        25.9760   11.9870   22.2990 C.2       1 0U01205     0.0000 
     27 C12        27.1840   11.9430   21.7500 C.2       1 0U01205     0.0000 
     28 N9         27.1910   12.7570   20.6920 N.pl3     1 0U01205     0.0000 
     29 N8         26.0810   13.2790   20.5660 N.2       1 0U01205     0.0000 
     30 H          15.2513   14.1124   23.7849 H         1 0U01205     0.0000 
     31 H          14.9685   17.6841   21.7296 H         1 0U01205     0.0000 
     32 H          17.2976   17.6077   21.2552 H         1 0U01205     0.0000 
     33 H          17.1743   13.0069   23.9642 H         1 0U01205     0.0000 
     34 H          19.4272   14.8339   21.6647 H         1 0U01205     0.0000 
     35 H          19.7793   17.6734   19.1305 H         1 0U01205     0.0000 
     36 H          21.7180   18.1762   17.8054 H         1 0U01205     0.0000 
     37 H          23.7749   16.9184   18.1676 H         1 0U01205     0.0000 
     38 H          23.4738   12.6184   22.5006 H         1 0U01205     0.0000 
     39 H          25.6716   11.5140   23.0672 H         1 0U01205     0.0000 
     40 H          27.9355   11.4119   22.0610 H         1 0U01205     0.0000 
     41 H          28.0038   12.8838   20.1248 H         1 0U01205     0.0000 
     42 H          22.5800   11.2845   24.8054 H         1 0U01205     0.0000 
     43 H          21.5079   11.6780   25.9376 H         1 0U01205     0.0000 
     44 H          21.1887   10.4846   24.9080 H         1 0U01205     0.0000 
@<TRIPOS>BOND
     1    2    1 ar   
     2    6    1 ar   
     3   30    1 1    
     4    3    2 ar   
     5    4    3 ar   
     6   31    3 1    
     7    5    4 ar   
     8   32    4 1    
     9    6    5 ar   
    10    7    6 1    
    11    8    7 1    
    12   33    7 1    
    13    9    8 ar   
    14   10    8 ar   
    15   14    9 ar   
    16   34    9 1    
    17   11   10 ar   
    18   12   11 1    
    19   13   11 ar   
    20   42   12 1    
    21   43   12 1    
    22   44   12 1    
    23   14   13 ar   
    24   15   14 1    
    25   16   15 1    
    26   23   15 2    
    27   17   16 1    
    28   21   16 1    
    29   18   17 2    
    30   19   18 1    
    31   35   18 1    
    32   20   19 2    
    33   36   19 1    
    34   21   20 1    
    35   37   20 1    
    36   22   21 2    
    37   23   22 1    
    38   24   23 1    
    39   25   24 1    
    40   38   24 1    
    41   26   25 1    
    42   29   25 2    
    43   27   26 2    
    44   39   26 1    
    45   28   27 1    
    46   40   27 1    
    47   29   28 1    
    48   41   28 1    
@<TRIPOS>SUBSTRUCTURE
     1 0U01205     1 GROUP   
@<TRIPOS>SET

