#    Name: 3qbd_NAD_1_INTS_M
#    Modification time : Tue Mar 25 09:31:43 2014

@<TRIPOS>MOLECULE
3qbd_NAD_1_INTS_M
   81     0     9     0     0
SMALL
NO_CHARGES


@<TRIPOS>ATOM
      1 N         -54.6280   34.2255    8.3400 N.am      2 SEC2        0.0000 
      2 N         -55.0810   35.4970    7.6000 N.am      8 SEL2        0.0000 
      3 N         -54.1750   32.9540    9.0800 N.am      5 SEP2        0.0000 
      4 N         -53.7395   35.7050    6.9330 N.am      2 SEC2        0.0000 
      5 N         -52.3980   35.9130    6.2660 N.am      5 SEP2        0.0000 
      6 CA        -58.9515   35.4545    7.1080 C.3       3 GLC5        0.0000 
      7 CA        -58.5060   36.3340    9.1110 C.3       9 GLL5        0.0000 
      8 CA        -59.3970   34.5750    5.1050 C.3       6 GLP5        0.0000 
      9 O         -58.0775   33.7075   12.9300 O.2       1 ALC1        0.0000 
     10 O         -58.8790   34.3530   11.9730 O.2       7 ALL1        0.0000 
     11 O         -57.2760   33.0620   13.8870 O.2       4 ALP1        0.0000 
     12 O         -57.6225   33.2040   12.1165 O.2       1 ALC1        0.0000 
     13 O         -56.3660   32.0550   12.2600 O.2       4 ALP1        0.0000 
     14 O         -57.2990   32.0020   11.5145 O.2       1 ALC1        0.0000 
     15 O         -58.2320   31.9490   10.7690 O.2       7 ALL1        0.0000 
     16 N         -59.3360   30.7745    5.4245 N.am      2 SEC2        0.0000 
     17 N         -60.1460   31.4840    6.4450 N.am      8 SEL2        0.0000 
     18 N         -58.5260   30.0650    4.4040 N.am      5 SEP2        0.0000 
     19 CA        -60.3165   30.4485    5.0680 C.3       3 GLC5        0.0000 
     20 CA        -61.3840   31.2060    6.8920 C.3       9 GLL5        0.0000 
     21 CA        -59.2490   29.6910    3.2440 C.3       6 GLP5        0.0000 
     22 CA        -60.3905   32.8905    5.9985 C.3       3 GLC5        0.0000 
     23 O         -61.7840   30.9605    4.1840 O.2       1 ALC1        0.0000 
     24 O         -62.4130   30.0100    5.0440 O.2       7 ALL1        0.0000 
     25 O         -61.1550   31.9110    3.3240 O.2       4 ALP1        0.0000 
     26 O         -63.3880   29.4865    4.0860 O.2       1 ALC1        0.0000 
     27 O         -64.3630   28.9630    3.1280 O.2       4 ALP1        0.0000 
     28 N         -64.4700   29.4060    6.7505 N.am      2 SEC2        0.0000 
     29 N         -63.6670   30.3460    7.0070 N.am      8 SEL2        0.0000 
     30 N         -65.2730   28.4660    6.4940 N.am      5 SEP2        0.0000 
     31 CA        -65.1620   29.6130    7.6290 C.3       3 GLC5        0.0000 
     32 CA        -63.7320   30.8950    8.2330 C.3       9 GLL5        0.0000 
     33 CA        -66.5920   28.3310    7.0250 C.3       6 GLP5        0.0000 
     34 CA        -64.9190   31.8835    7.1630 C.3       3 GLC5        0.0000 
     35 CA        -66.1060   32.8720    6.0930 C.3       6 GLP5        0.0000 
     36 CA        -64.7975   32.6075    8.4485 C.3       3 GLC5        0.0000 
     37 CA        -65.8630   34.3200    8.6640 C.3       6 GLP5        0.0000 
     38 N         -55.5865   36.2640    5.0000 N.am      2 SEC2        0.0000 
     39 N         -56.6720   36.8480    5.5430 N.am      8 SEL2        0.0000 
     40 N         -54.5010   35.6800    4.4570 N.am      5 SEP2        0.0000 
     41 N         -57.5535   36.3805    4.4290 N.am      2 SEC2        0.0000 
     42 N         -58.4350   35.9130    3.3150 N.am      5 SEP2        0.0000 
     43 CA        -55.4295   40.4370    5.0540 C.3       3 GLC5        0.0000 
     44 CA        -54.3870   39.7070    6.5560 C.3       9 GLL5        0.0000 
     45 CA        -56.4720   41.1670    3.5520 C.3       6 GLP5        0.0000 
     46 CA        -52.1185   37.6010    6.8150 C.3       3 GLC5        0.0000 
     47 CA        -52.8910   39.5200    6.3460 C.3       9 GLL5        0.0000 
     48 CA        -51.3460   35.6820    7.2840 C.3       6 GLP5        0.0000 
     49 N         -49.7635   39.9555    7.4315 N.am      2 SEC2        0.0000 
     50 N         -51.1490   40.1690    7.7790 N.am      8 SEL2        0.0000 
     51 N         -48.3780   39.7420    7.0840 N.am      5 SEP2        0.0000 
     52 O         -51.5445   39.9140    9.1815 O.2       1 ALC1        0.0000 
     53 O         -51.1490   40.1690    7.7790 O.2       7 ALL1        0.0000 
     54 O         -51.9400   39.6590   10.5840 O.2       4 ALP1        0.0000 
     55 N         -48.9035   42.7045    6.4935 N.am      2 SEC2        0.0000 
     56 N         -50.3340   42.0200    5.9590 N.am      8 SEL2        0.0000 
     57 N         -47.4730   43.3890    7.0280 N.am      5 SEP2        0.0000 
     58 CA        -52.3495   38.2740    4.3705 C.3       3 GLC5        0.0000 
     59 CA        -51.4360   40.2350    4.7130 C.3       9 GLL5        0.0000 
     60 CA        -53.2630   36.3130    4.0280 C.3       6 GLP5        0.0000 
     61 CA        -51.4435   39.1475    1.6940 C.3       3 GLC5        0.0000 
     62 CA        -50.3230   40.4400    2.5910 C.3       9 GLL5        0.0000 
     63 CA        -52.5640   37.8550    0.7970 C.3       6 GLP5        0.0000 
     64 O         -47.9780   38.7260    1.7735 O.2       1 ALC1        0.0000 
     65 O         -48.1100   39.6800    0.8400 O.2       7 ALL1        0.0000 
     66 O         -47.8460   37.7720    2.7070 O.2       4 ALP1        0.0000 
     67 O         -46.9865   39.0520    0.1440 O.2       1 ALC1        0.0000 
     68 O         -45.8630   38.4240   -0.5520 O.2       4 ALP1        0.0000 
     69 CA        -54.4480   41.2835    3.1895 C.3       3 GLC5        0.0000 
     70 CA        -52.4240   41.4000    2.8270 C.3       9 GLL5        0.0000 
     71 CA        -62.3874   32.7129    6.6350 C.3       3 GLC5        0.0000 
     72 CA        -63.0300   34.1320    5.8990 C.3       6 GLP5        0.0000 
     73 CA        -53.4510   37.9633    5.2395 C.3       3 GLC5        0.0000 
     74 CA        -51.4865   39.7540    0.2240 C.3       3 GLC5        0.0000 
     75 CA        -50.2400   40.8830    1.2630 C.3       9 GLL5        0.0000 
     76 CA        -52.2070   38.2640   -0.5310 C.3       6 GLP5        0.0000 
     77 CA        -53.3328   41.5018   -0.3562 C.3       3 GLC5        0.0000 
     78 CA        -51.2920   41.6050    0.6950 C.3       9 GLL5        0.0000 
     79 CA        -54.8240   41.2670   -1.8130 C.3       6 GLP5        0.0000 
     80 CA        -52.4857   39.7445    1.4817 C.3       3 GLC5        0.0000 
     81 CA        -52.3910   41.8680    1.5060 C.3       9 GLL5        0.0000 
@<TRIPOS>BOND
@<TRIPOS>SUBSTRUCTURE
     1 ALC1        9 GROUP        1 X    ALC  0     ROOT ALC X 1
     2 SEC2        1 GROUP        1 X    SEC  0     **** SEC X 2
     3 GLC5        6 GROUP        1 X    GLC  0     **** GLC X 6
     4 ALP1       11 GROUP        1 Y    ALP  0     ROOT ALP Y 8
     5 SEP2        3 GROUP        1 Y    SEP  0     **** SEP Y 9
     6 GLP5        8 GROUP        1 Y    GLP  0     **** GLP Y 13
     7 ALL1       10 GROUP        1 Z    ALL  0     ROOT ALL Z 15
     8 SEL2        2 GROUP        1 Z    SEL  0     **** SEL Z 16
     9 GLL5        7 GROUP        1 Z    GLL  0     **** GLL Z 20
@<TRIPOS>SET

