#    Name: 3qbd_NAD_1_ligand
#    Modification time : Tue Mar 25 09:31:43 2014

@<TRIPOS>MOLECULE
3qbd_NAD_1_ligand
   70    74     1     0     0
SMALL
NO_CHARGES


@<TRIPOS>ATOM
      1 PA        -55.9410   36.3920    8.4680 P.3       1 NAD400      0.0000 
      2 O1A       -55.0810   35.4970    7.6000 O.co2     1 NAD400      0.0000 
      3 O2A       -55.4890   36.7460    9.8630 O.co2     1 NAD400      0.0000 
      4 O5B       -57.3690   35.6990    8.5220 O.3       1 NAD400      0.0000 
      5 C5B       -58.5060   36.3340    9.1110 C.3       1 NAD400      0.0000 
      6 C4B       -59.2950   35.3160    9.9510 C.3       1 NAD400      0.0000 
      7 O4B       -60.1690   34.4520    9.1870 O.3       1 NAD400      0.0000 
      8 C3B       -58.3390   34.3950   10.6670 C.3       1 NAD400      0.0000 
      9 O3B       -58.8790   34.3530   11.9730 O.3       1 NAD400      0.0000 
     10 C2B       -58.5330   33.0650    9.9630 C.3       1 NAD400      0.0000 
     11 O2B       -58.2320   31.9490   10.7690 O.3       1 NAD400      0.0000 
     12 C1B       -60.0060   33.0860    9.6380 C.3       1 NAD400      0.0000 
     13 N9A       -60.3530   32.3210    8.4420 N.pl3     1 NAD400      0.0000 
     14 C8A       -59.5100   32.1730    7.4050 C.2       1 NAD400      0.0000 
     15 N7A       -60.1460   31.4840    6.4450 N.2       1 NAD400      0.0000 
     16 C5A       -61.3840   31.2060    6.8920 C.ar      1 NAD400      0.0000 
     17 C6A       -62.5390   30.4810    6.2940 C.ar      1 NAD400      0.0000 
     18 N6A       -62.4130   30.0100    5.0440 N.pl3     1 NAD400      0.0000 
     19 N1A       -63.6670   30.3460    7.0070 N.ar      1 NAD400      0.0000 
     20 C2A       -63.7320   30.8950    8.2330 C.ar      1 NAD400      0.0000 
     21 N3A       -62.6920   31.5570    8.7890 N.ar      1 NAD400      0.0000 
     22 C4A       -61.5280   31.7440    8.1490 C.ar      1 NAD400      0.0000 
     23 O3        -56.1400   37.8370    7.7830 O.3       1 NAD400      0.0000 
     24 PN        -56.4090   38.1170    6.2480 P.3       1 NAD400      0.0000 
     25 O1N       -56.6720   36.8480    5.5430 O.co2     1 NAD400      0.0000 
     26 O2N       -57.2860   39.2850    6.2260 O.co2     1 NAD400      0.0000 
     27 O5D       -55.0060   38.6730    5.8130 O.3       1 NAD400      0.0000 
     28 C5D       -54.3870   39.7070    6.5560 C.3       1 NAD400      0.0000 
     29 C4D       -52.8910   39.5200    6.3460 C.3       1 NAD400      0.0000 
     30 O4D       -52.6080   39.4840    4.9250 O.3       1 NAD400      0.0000 
     31 C3D       -52.1480   40.6990    6.9470 C.3       1 NAD400      0.0000 
     32 O3D       -51.1490   40.1690    7.7790 O.3       1 NAD400      0.0000 
     33 C2D       -51.5610   41.3550    5.7300 C.3       1 NAD400      0.0000 
     34 O2D       -50.3340   42.0200    5.9590 O.3       1 NAD400      0.0000 
     35 C1D       -51.4360   40.2350    4.7130 C.3       1 NAD400      0.0000 
     36 N1N       -51.4070   40.7090    3.3330 N.pl3     1 NAD400      0.0000 
     37 C2N       -50.3230   40.4400    2.5910 C.ar      1 NAD400      0.0000 
     38 C3N       -50.2400   40.8830    1.2630 C.ar      1 NAD400      0.0000 
     39 C7N       -49.0490   40.5570    0.4140 C.2       1 NAD400      0.0000 
     40 O7N       -49.0190   41.0710   -0.6810 O.2       1 NAD400      0.0000 
     41 N7N       -48.1100   39.6800    0.8400 N.am      1 NAD400      0.0000 
     42 C4N       -51.2920   41.6050    0.6950 C.ar      1 NAD400      0.0000 
     43 C5N       -52.3910   41.8680    1.5060 C.ar      1 NAD400      0.0000 
     44 C6N       -52.4240   41.4000    2.8270 C.ar      1 NAD400      0.0000 
     45 H         -59.1877   36.7356    8.3534 H         1 NAD400      0.0000 
     46 H         -58.2166   37.1558    9.7748 H         1 NAD400      0.0000 
     47 H         -59.8561   35.8498   10.7083 H         1 NAD400      0.0000 
     48 H         -57.3902   34.7395   10.5875 H         1 NAD400      0.0000 
     49 H         -57.9993   33.0954    9.0404 H         1 NAD400      0.0000 
     50 H         -60.5856   32.8916   10.4494 H         1 NAD400      0.0000 
     51 H         -58.6039   32.5056    7.3603 H         1 NAD400      0.0000 
     52 H         -62.9654   29.2076    4.8183 H         1 NAD400      0.0000 
     53 H         -61.7779   30.5035    4.4497 H         1 NAD400      0.0000 
     54 H         -64.6308   30.8073    8.7869 H         1 NAD400      0.0000 
     55 H         -54.5890   39.6315    7.6157 H         1 NAD400      0.0000 
     56 H         -54.6557   40.6910    6.1968 H         1 NAD400      0.0000 
     57 H         -52.5767   38.6264    6.8277 H         1 NAD400      0.0000 
     58 H         -52.8312   41.3269    7.4068 H         1 NAD400      0.0000 
     59 H         -52.3282   42.0370    5.3349 H         1 NAD400      0.0000 
     60 H         -50.5709   39.6606    4.9549 H         1 NAD400      0.0000 
     61 H         -49.5237   39.9010    2.9780 H         1 NAD400      0.0000 
     62 H         -47.3639   39.4898    0.2019 H         1 NAD400      0.0000 
     63 H         -48.2457   39.3001    1.7550 H         1 NAD400      0.0000 
     64 H         -51.2539   41.9204   -0.2607 H         1 NAD400      0.0000 
     65 H         -53.1859   42.4081    1.1392 H         1 NAD400      0.0000 
     66 H         -53.2728   41.6135    3.3953 H         1 NAD400      0.0000 
     67 H         -58.1822   33.8968   12.5265 H         1 NAD400      0.0000 
     68 H         -57.2384   31.9701   10.8793 H         1 NAD400      0.0000 
     69 H         -51.5867   40.0596    8.6714 H         1 NAD400      0.0000 
     70 H         -50.0955   41.8042    6.9058 H         1 NAD400      0.0000 
@<TRIPOS>BOND
     1    2    1 ar   
     2    3    1 ar   
     3    4    1 1    
     4   23    1 1    
     5    5    4 1    
     6    6    5 1    
     7   45    5 1    
     8   46    5 1    
     9    7    6 1    
    10    8    6 1    
    11   47    6 1    
    12   12    7 1    
    13    9    8 1    
    14   10    8 1    
    15   48    8 1    
    16   67    9 1    
    17   11   10 1    
    18   12   10 1    
    19   49   10 1    
    20   68   11 1    
    21   13   12 1    
    22   50   12 1    
    23   14   13 1    
    24   22   13 1    
    25   15   14 2    
    26   51   14 1    
    27   16   15 1    
    28   17   16 ar   
    29   22   16 ar   
    30   18   17 1    
    31   19   17 ar   
    32   52   18 1    
    33   53   18 1    
    34   20   19 ar   
    35   21   20 ar   
    36   54   20 1    
    37   22   21 ar   
    38   24   23 1    
    39   25   24 ar   
    40   26   24 ar   
    41   27   24 1    
    42   28   27 1    
    43   29   28 1    
    44   55   28 1    
    45   56   28 1    
    46   30   29 1    
    47   31   29 1    
    48   57   29 1    
    49   35   30 1    
    50   32   31 1    
    51   33   31 1    
    52   58   31 1    
    53   69   32 1    
    54   34   33 1    
    55   35   33 1    
    56   59   33 1    
    57   70   34 1    
    58   36   35 1    
    59   60   35 1    
    60   37   36 ar   
    61   44   36 ar   
    62   38   37 ar   
    63   61   37 1    
    64   39   38 1    
    65   42   38 ar   
    66   40   39 2    
    67   41   39 am   
    68   62   41 1    
    69   63   41 1    
    70   43   42 ar   
    71   64   42 1    
    72   44   43 ar   
    73   65   43 1    
    74   66   44 1    
@<TRIPOS>SUBSTRUCTURE
     1 NAD400      1 GROUP   
@<TRIPOS>SET

