#    Name: 3m6f_BJZ_1_INTS_M
#    Modification time : Mon Mar 24 22:46:03 2014

@<TRIPOS>MOLECULE
3m6f_BJZ_1_INTS_M
   76     0     6     0     0
SMALL
NO_CHARGES


@<TRIPOS>ATOM
      1 CA         -3.8040    0.6040   29.2845 C.3       2 GLC5        0.0000 
      2 CA         -5.4570   -0.1730   29.6950 C.3       6 GLL5        0.0000 
      3 CA         -2.1510    1.3810   28.8740 C.3       4 GLP5        0.0000 
      4 CA         -3.8265   -0.3680   31.0855 C.3       2 GLC5        0.0000 
      5 CA         -2.1960   -0.5630   32.4760 C.3       4 GLP5        0.0000 
      6 CA         -6.4100    2.6810   32.0660 C.3       2 GLC5        0.0000 
      7 CA         -5.5160    0.9920   32.1730 C.3       6 GLL5        0.0000 
      8 CA         -7.3040    4.3700   31.9590 C.3       4 GLP5        0.0000 
      9 CA         -3.8365    0.7715   32.8445 C.3       2 GLC5        0.0000 
     10 CA         -2.1570    0.5510   33.5160 C.3       4 GLP5        0.0000 
     11 CA         -5.6570    1.2375   33.8650 C.3       2 GLC5        0.0000 
     12 CA         -5.7980    1.4830   35.5570 C.3       4 GLP5        0.0000 
     13 CA         -4.9765   -0.9265   33.1605 C.3       2 GLC5        0.0000 
     14 CA         -4.4370   -2.8450   34.1480 C.3       4 GLP5        0.0000 
     15 CA        -10.8915    1.4490   23.1415 C.3       2 GLC5        0.0000 
     16 CA        -11.4550    2.4270   24.9970 C.3       6 GLL5        0.0000 
     17 CA        -10.3280    0.4710   21.2860 C.3       4 GLP5        0.0000 
     18 CA         -8.9230   -2.3325   23.7145 C.3       2 GLC5        0.0000 
     19 CA         -9.3290   -1.4770   25.4150 C.3       6 GLL5        0.0000 
     20 CA         -8.5170   -3.1880   22.0140 C.3       4 GLP5        0.0000 
     21 CA         -7.3210   -3.8940   25.4030 C.3       2 GLC5        0.0000 
     22 CA         -9.3230   -3.7420   26.3490 C.3       6 GLL5        0.0000 
     23 CA         -5.3190   -4.0460   24.4570 C.3       4 GLP5        0.0000 
     24 CA         -8.9200   -3.4650   24.1815 C.3       2 GLC5        0.0000 
     25 CA        -10.7150   -4.9020   25.6705 C.3       2 GLC5        0.0000 
     26 CA        -12.1070   -6.0620   24.9920 C.3       4 GLP5        0.0000 
     27 N         -12.8355    8.4260   20.4360 N.am      1 SEC2        0.0000 
     28 N         -13.7640    8.1500   21.3780 N.am      5 SEL2        0.0000 
     29 N         -11.9070    8.7020   19.4940 N.am      3 SEP2        0.0000 
     30 CA        -10.9695    3.3705   29.9530 C.3       2 GLC5        0.0000 
     31 CA        -12.6450    2.1280   29.2500 C.3       6 GLL5        0.0000 
     32 CA         -9.2940    4.6130   30.6560 C.3       4 GLP5        0.0000 
     33 CA        -13.1370    0.6580   30.4860 C.3       2 GLC5        0.0000 
     34 CA        -13.6290   -0.8120   31.7220 C.3       4 GLP5        0.0000 
     35 CA         -3.3920   -1.5365   26.3460 C.3       2 GLC5        0.0000 
     36 CA         -5.0970   -1.3710   27.3310 C.3       6 GLL5        0.0000 
     37 CA         -1.6870   -1.7020   25.3610 C.3       4 GLP5        0.0000 
     38 CA         -3.6930   -2.4440   28.4690 C.3       2 GLC5        0.0000 
     39 CA         -2.2890   -3.5170   29.6070 C.3       4 GLP5        0.0000 
     40 CA         -4.8530   -3.2040   26.9785 C.3       2 GLC5        0.0000 
     41 CA         -4.6090   -5.0370   26.6260 C.3       4 GLP5        0.0000 
     42 CA         -4.2685    0.4075   27.1030 C.3       2 GLC5        0.0000 
     43 CA         -3.4400    2.1860   26.8750 C.3       4 GLP5        0.0000 
     44 CA         -6.0570   -2.2975   28.9120 C.3       2 GLC5        0.0000 
     45 CA         -7.0170   -3.2240   30.4930 C.3       4 GLP5        0.0000 
     46 CA         -5.5728    1.4078   27.9243 C.3       2 GLC5        0.0000 
     47 CA         -5.9740   -0.3550   28.4070 C.3       6 GLL5        0.0000 
     48 CA         -4.5780    2.8510   27.6550 C.3       4 GLP5        0.0000 
     49 CA         -5.8723    2.8215   30.6630 C.3       2 GLC5        0.0000 
     50 CA         -7.3270    1.3300   30.1760 C.3       6 GLL5        0.0000 
     51 CA         -5.0110    4.6340   30.9560 C.3       4 GLP5        0.0000 
     52 CA         -5.7239    1.9041   28.8525 C.3       2 GLC5        0.0000 
     53 CA         -6.1400    0.6880   30.5640 C.3       6 GLL5        0.0000 
     54 CA         -7.9374   -0.5114   30.7030 C.3       2 GLC5        0.0000 
     55 CA         -9.0050   -1.9800   31.3560 C.3       4 GLP5        0.0000 
     56 CA         -6.5146   -1.6641   29.7186 C.3       2 GLC5        0.0000 
     57 CA         -9.7997    4.0352   28.3367 C.3       2 GLC5        0.0000 
     58 CA        -10.9240    2.4560   27.3350 C.3       6 GLL5        0.0000 
     59 CA         -8.5300    4.8860   29.5370 C.3       4 GLP5        0.0000 
     60 CA        -12.8913   -1.7095   28.3653 C.3       2 GLC5        0.0000 
     61 CA        -11.5440   -0.8190   27.0310 C.3       6 GLL5        0.0000 
     62 CA        -14.5280   -1.9600   29.6550 C.3       4 GLP5        0.0000 
     63 CA        -11.7052   -3.5800   26.0420 C.3       2 GLC5        0.0000 
     64 CA        -10.9650   -2.0990   27.1200 C.3       6 GLL5        0.0000 
     65 CA        -12.9960   -4.9040   25.3730 C.3       4 GLP5        0.0000 
     66 CA         -9.5714   -3.6110   28.4100 C.3       2 GLC5        0.0000 
     67 CA         -9.2740   -4.2230   30.2900 C.3       4 GLP5        0.0000 
     68 CA        -11.7635    8.1993   24.5505 C.3       2 GLC5        0.0000 
     69 CA        -12.9240    7.0480   24.6940 C.3       6 GLL5        0.0000 
     70 CA        -10.4940    9.3840   25.0990 C.3       4 GLP5        0.0000 
     71 CA        -11.6517    7.5228   22.1512 C.3       2 GLC5        0.0000 
     72 CA        -13.1420    6.9810   23.3100 C.3       6 GLL5        0.0000 
     73 CA        -10.3190    8.6660   21.3170 C.3       4 GLP5        0.0000 
     74 CA        -11.6550    4.5602   21.4872 C.3       2 GLC5        0.0000 
     75 CA        -12.8270    5.7780   22.6610 C.3       6 GLL5        0.0000 
     76 CA        -10.7340    3.8880   19.9470 C.3       4 GLP5        0.0000 
@<TRIPOS>BOND
@<TRIPOS>SUBSTRUCTURE
     1 SEC2       27 GROUP        1 X    SEC  0     ROOT SEC X 2
     2 GLC5        1 GROUP        1 X    GLC  0     **** GLC X 6
     3 SEP2       29 GROUP        1 Y    SEP  0     ROOT SEP Y 9
     4 GLP5        3 GROUP        1 Y    GLP  0     **** GLP Y 13
     5 SEL2       28 GROUP        1 Z    SEL  0     ROOT SEL Z 16
     6 GLL5        2 GROUP        1 Z    GLL  0     **** GLL Z 20
@<TRIPOS>SET

