#    Name: 3m6f_BJZ_1_ligand
#    Modification time : Mon Mar 24 22:46:03 2014

@<TRIPOS>MOLECULE
3m6f_BJZ_1_ligand
   55    59     1     0     0
SMALL
NO_CHARGES


@<TRIPOS>ATOM
      1 C1         -5.9740   -0.3550   28.4070 C.ar      1 BJZ1        0.0000 
      2 C2         -7.1610    0.2840   27.9800 C.ar      1 BJZ1        0.0000 
      3 C4         -7.8720    1.1230   28.8960 C.ar      1 BJZ1        0.0000 
      4 C5         -7.3270    1.3300   30.1760 C.ar      1 BJZ1        0.0000 
      5 C7         -6.1400    0.6880   30.5640 C.ar      1 BJZ1        0.0000 
      6 C8         -5.4570   -0.1730   29.6950 C.ar      1 BJZ1        0.0000 
      7 CL10       -5.5160    0.9920   32.1730 Cl        1 BJZ1        0.0000 
      8 N11        -9.1040    1.6450   28.5790 N.am      1 BJZ1        0.0000 
      9 C12       -10.2190    1.5700   29.3560 C.2       1 BJZ1        0.0000 
     10 N13       -11.2740    2.0750   28.6980 N.am      1 BJZ1        0.0000 
     11 C14       -10.9240    2.4560   27.3350 C.3       1 BJZ1        0.0000 
     12 C15        -9.4000    2.2090   27.3770 C.2       1 BJZ1        0.0000 
     13 O16        -8.6300    2.4830   26.4510 O.2       1 BJZ1        0.0000 
     14 C17       -11.2150    3.9130   26.9380 C.3       1 BJZ1        0.0000 
     15 N20       -11.5990    3.7830   25.5290 N.3       1 BJZ1        0.0000 
     16 C21       -11.4550    2.4270   24.9970 C.3       1 BJZ1        0.0000 
     17 C24       -11.5590    1.5730   26.2490 C.3       1 BJZ1        0.0000 
     18 C26       -11.0030    0.1580   26.1760 C.ar      1 BJZ1        0.0000 
     19 C27       -11.5440   -0.8190   27.0310 C.ar      1 BJZ1        0.0000 
     20 C29       -10.9650   -2.0990   27.1200 C.ar      1 BJZ1        0.0000 
     21 C31        -9.8640   -2.4130   26.3020 C.ar      1 BJZ1        0.0000 
     22 C32        -9.3290   -1.4770   25.4150 C.ar      1 BJZ1        0.0000 
     23 C34        -9.9100   -0.1970   25.3370 C.ar      1 BJZ1        0.0000 
     24 C36        -9.3230   -3.7420   26.3490 C.1       1 BJZ1        0.0000 
     25 N37        -8.8790   -4.8110   26.3930 N.1       1 BJZ1        0.0000 
     26 C38       -12.1200    4.8260   24.7860 C.ar      1 BJZ1        0.0000 
     27 N39       -12.4140    6.0050   25.4090 N.ar      1 BJZ1        0.0000 
     28 C40       -12.9240    7.0480   24.6940 C.ar      1 BJZ1        0.0000 
     29 C42       -13.1420    6.9810   23.3100 C.ar      1 BJZ1        0.0000 
     30 C43       -12.8270    5.7780   22.6610 C.ar      1 BJZ1        0.0000 
     31 C45       -12.3250    4.6870   23.3940 C.ar      1 BJZ1        0.0000 
     32 C47       -13.6690    8.1410   22.5670 C.2       1 BJZ1        0.0000 
     33 O48       -13.7640    8.1500   21.3780 O.co2     1 BJZ1        0.0000 
     34 O49       -14.0130    9.1790   23.3390 O.co2     1 BJZ1        0.0000 
     35 C51       -12.6450    2.1280   29.2500 C.3       1 BJZ1        0.0000 
     36 O55       -10.3000    1.1100   30.4910 O.2       1 BJZ1        0.0000 
     37 CL56       -5.0970   -1.3710   27.3310 Cl        1 BJZ1        0.0000 
     38 H          -7.5103    0.1545   27.0388 H         1 BJZ1        0.0000 
     39 H          -7.8045    1.9595   30.8351 H         1 BJZ1        0.0000 
     40 H          -4.6148   -0.6490   29.9904 H         1 BJZ1        0.0000 
     41 H         -10.3252    4.4800   27.0502 H         1 BJZ1        0.0000 
     42 H         -12.0182    4.2728   27.5307 H         1 BJZ1        0.0000 
     43 H         -10.4983    2.2828   24.5553 H         1 BJZ1        0.0000 
     44 H         -12.2542    2.1808   24.3399 H         1 BJZ1        0.0000 
     45 H         -12.6409    1.5297   26.5069 H         1 BJZ1        0.0000 
     46 H         -12.3724   -0.5961   27.5981 H         1 BJZ1        0.0000 
     47 H         -11.3382   -2.7885   27.7679 H         1 BJZ1        0.0000 
     48 H          -8.5293   -1.7118   24.8300 H         1 BJZ1        0.0000 
     49 H          -9.5462    0.4918   24.6703 H         1 BJZ1        0.0000 
     50 H         -13.1684    7.9434   25.1834 H         1 BJZ1        0.0000 
     51 H         -12.9625    5.6915   21.6482 H         1 BJZ1        0.0000 
     52 H         -12.1113    3.8079   22.9311 H         1 BJZ1        0.0000 
     53 H         -12.6853    2.6637   30.0935 H         1 BJZ1        0.0000 
     54 H         -13.2883    2.5443   28.6074 H         1 BJZ1        0.0000 
     55 H         -12.9943    1.2160   29.4650 H         1 BJZ1        0.0000 
@<TRIPOS>BOND
     1    2    1 ar   
     2    6    1 ar   
     3   37    1 1    
     4    3    2 ar   
     5   38    2 1    
     6    4    3 ar   
     7    8    3 1    
     8    5    4 ar   
     9   39    4 1    
    10    6    5 ar   
    11    7    5 1    
    12   40    6 1    
    13    9    8 am   
    14   12    8 am   
    15   10    9 am   
    16   36    9 2    
    17   11   10 1    
    18   35   10 1    
    19   12   11 1    
    20   14   11 1    
    21   17   11 1    
    22   13   12 2    
    23   15   14 1    
    24   41   14 1    
    25   42   14 1    
    26   16   15 1    
    27   26   15 1    
    28   17   16 1    
    29   43   16 1    
    30   44   16 1    
    31   18   17 1    
    32   45   17 1    
    33   19   18 ar   
    34   23   18 ar   
    35   20   19 ar   
    36   46   19 1    
    37   21   20 ar   
    38   47   20 1    
    39   22   21 ar   
    40   24   21 1    
    41   23   22 ar   
    42   48   22 1    
    43   49   23 1    
    44   25   24 3    
    45   27   26 ar   
    46   31   26 ar   
    47   28   27 ar   
    48   29   28 ar   
    49   50   28 1    
    50   30   29 ar   
    51   32   29 1    
    52   31   30 ar   
    53   51   30 1    
    54   52   31 1    
    55   33   32 ar   
    56   34   32 ar   
    57   53   35 1    
    58   54   35 1    
    59   55   35 1    
@<TRIPOS>SUBSTRUCTURE
     1 BJZ1        1 GROUP   
@<TRIPOS>SET

