#    Name: 2xo8_H70_1_INTS_M
#    Modification time : Tue Mar 25 06:25:57 2014

@<TRIPOS>MOLECULE
2xo8_H70_1_INTS_M
   40     0     6     0     0
SMALL
NO_CHARGES


@<TRIPOS>ATOM
      1 CA         68.0235   48.3620  -44.9075 C.3       2 GLC5        0.0000 
      2 CA         68.4000   47.0320  -46.5790 C.3       6 GLL5        0.0000 
      3 CA         67.6470   49.6920  -43.2360 C.3       4 GLP5        0.0000 
      4 N          69.3955   49.5345  -49.4105 N.am      1 SEC2        0.0000 
      5 N          69.2220   47.9650  -49.2820 N.am      5 SEL2        0.0000 
      6 N          69.5690   51.1040  -49.5390 N.am      3 SEP2        0.0000 
      7 N          69.2850   49.1880  -50.4910 N.am      1 SEC2        0.0000 
      8 N          69.3480   50.4110  -51.7000 N.am      3 SEP2        0.0000 
      9 CA         73.4325   46.6315  -44.4250 C.3       2 GLC5        0.0000 
     10 CA         71.9260   46.1720  -44.7200 C.3       6 GLL5        0.0000 
     11 CA         74.9390   47.0910  -44.1300 C.3       4 GLP5        0.0000 
     12 CA         64.2690   46.8250  -46.4000 C.3       2 GLC5        0.0000 
     13 CA         63.4730   47.4120  -47.8910 C.3       6 GLL5        0.0000 
     14 CA         65.0650   46.2380  -44.9090 C.3       4 GLP5        0.0000 
     15 CA         62.5760   48.5280  -46.8520 C.3       2 GLC5        0.0000 
     16 CA         61.6790   49.6440  -45.8130 C.3       4 GLP5        0.0000 
     17 CA         67.8460   45.8150  -41.1505 C.3       2 GLC5        0.0000 
     18 CA         68.9130   46.1000  -42.6780 C.3       6 GLL5        0.0000 
     19 CA         66.7790   45.5300  -39.6230 C.3       4 GLP5        0.0000 
     20 CA         66.4710   50.0715  -50.3105 C.3       2 GLC5        0.0000 
     21 CA         67.3210   48.6850  -51.4950 C.3       6 GLL5        0.0000 
     22 CA         65.6210   51.4580  -49.1260 C.3       4 GLP5        0.0000 
     23 CA         66.5645   50.3785  -52.1685 C.3       2 GLC5        0.0000 
     24 CA         65.8080   52.0720  -52.8420 C.3       4 GLP5        0.0000 
     25 CA         65.9073   49.7752  -49.4532 C.3       2 GLC5        0.0000 
     26 CA         66.8890   48.1560  -49.9410 C.3       6 GLL5        0.0000 
     27 CA         66.4967   46.7228  -46.0075 C.3       2 GLC5        0.0000 
     28 CA         67.4570   47.3830  -47.6330 C.3       6 GLL5        0.0000 
     29 CA         65.3272   46.8312  -46.3690 C.3       2 GLC5        0.0000 
     30 CA         66.0720   47.2670  -47.3460 C.3       6 GLL5        0.0000 
     31 CA         64.9480   49.3255  -47.8662 C.3       2 GLC5        0.0000 
     32 CA         65.1070   47.5820  -48.3120 C.3       6 GLL5        0.0000 
     33 CA         65.6060   51.1540  -47.6310 C.3       4 GLP5        0.0000 
     34 CA         66.4666   49.3663  -47.9224 C.3       2 GLC5        0.0000 
     35 CA         67.0263   46.2650  -44.2450 C.3       2 GLC5        0.0000 
     36 CA         69.0620   46.4840  -44.4840 C.3       6 GLL5        0.0000 
     37 CA         68.3173   47.9920  -43.4085 C.3       2 GLC5        0.0000 
     38 CA         70.3872   49.0635  -47.3287 C.3       2 GLC5        0.0000 
     39 CA         69.8020   46.8640  -46.6350 C.3       6 GLL5        0.0000 
     40 CA         70.4290   51.1710  -47.2790 C.3       4 GLP5        0.0000 
@<TRIPOS>BOND
@<TRIPOS>SUBSTRUCTURE
     1 SEC2        4 GROUP        1 X    SEC  0     ROOT SEC X 2
     2 GLC5        1 GROUP        1 X    GLC  0     **** GLC X 6
     3 SEP2        6 GROUP        1 Y    SEP  0     ROOT SEP Y 9
     4 GLP5        3 GROUP        1 Y    GLP  0     **** GLP Y 13
     5 SEL2        5 GROUP        1 Z    SEL  0     ROOT SEL Z 16
     6 GLL5        2 GROUP        1 Z    GLL  0     **** GLL Z 20
@<TRIPOS>SET

