#    Name: 2xo8_H70_1_ligand
#    Modification time : Tue Mar 25 06:25:58 2014

@<TRIPOS>MOLECULE
2xo8_H70_1_ligand
   21    22     1     0     0
SMALL
NO_CHARGES


@<TRIPOS>ATOM
      1 CH         66.8890   48.1560  -49.9410 C.ar      1 H701778     0.0000 
      2 CG         67.4570   47.3830  -47.6330 C.ar      1 H701778     0.0000 
      3 CD1        68.4000   47.0320  -46.5790 C.2       1 H701778     0.0000 
      4 CD2        66.0720   47.2670  -47.3460 C.ar      1 H701778     0.0000 
      5 CE2        65.1070   47.5820  -48.3120 C.ar      1 H701778     0.0000 
      6 CR         67.8900   47.8320  -48.9380 C.ar      1 H701778     0.0000 
      7 O          69.2220   47.9650  -49.2820 O.3       1 H701778     0.0000 
      8 C3         65.4980   48.0290  -49.6200 C.ar      1 H701778     0.0000 
      9 C7         69.0620   46.4840  -44.4840 C.2       1 H701778     0.0000 
     10 C8         70.2240   46.5150  -45.2920 C.2       1 H701778     0.0000 
     11 C9         69.8020   46.8640  -46.6350 C.2       1 H701778     0.0000 
     12 N11        67.9790   46.7980  -45.2750 N.pl3     1 H701778     0.0000 
     13 BR1        70.8890   47.0480  -48.1220 Br        1 H701778     0.0000 
     14 BR2        71.9260   46.1720  -44.7200 Br        1 H701778     0.0000 
     15 CL1        63.4730   47.4120  -47.8910 Cl        1 H701778     0.0000 
     16 BR3        68.9130   46.1000  -42.6780 Br        1 H701778     0.0000 
     17 CL2        67.3210   48.6850  -51.4950 Cl        1 H701778     0.0000 
     18 H          65.7802   46.9464  -46.4133 H         1 H701778     0.0000 
     19 H          64.7935   48.2528  -50.3104 H         1 H701778     0.0000 
     20 H          67.0664   46.8495  -44.9769 H         1 H701778     0.0000 
     21 H          69.7994   48.5424  -48.7046 H         1 H701778     0.0000 
@<TRIPOS>BOND
     1    6    1 ar   
     2    8    1 ar   
     3   17    1 1    
     4    3    2 1    
     5    4    2 ar   
     6    6    2 ar   
     7   11    3 2    
     8   12    3 1    
     9    5    4 ar   
    10   18    4 1    
    11    8    5 ar   
    12   15    5 1    
    13    7    6 1    
    14   21    7 1    
    15   19    8 1    
    16   10    9 2    
    17   12    9 1    
    18   16    9 1    
    19   11   10 1    
    20   14   10 1    
    21   13   11 1    
    22   20   12 1    
@<TRIPOS>SUBSTRUCTURE
     1 H701778     1 GROUP   
@<TRIPOS>SET

