#    Name: 2jbl_SMA_1_INTS_M
#    Modification time : Tue Mar 25 19:53:38 2014

@<TRIPOS>MOLECULE
2jbl_SMA_1_INTS_M
   99     0     6     0     0
SMALL
NO_CHARGES


@<TRIPOS>ATOM
      1 CA        130.4520   70.3810   -4.0885 C.3       2 GLC5        0.0000 
      2 CA        131.6690   69.7090   -2.3760 C.3       6 GLL5        0.0000 
      3 CA        129.2350   71.0530   -5.8010 C.3       4 GLP5        0.0000 
      4 CA        129.6510   70.3520   -2.1045 C.3       2 GLC5        0.0000 
      5 CA        127.6330   70.9950   -1.8330 C.3       4 GLP5        0.0000 
      6 CA        129.8140   71.3770   -1.2895 C.3       2 GLC5        0.0000 
      7 CA        131.4370   70.4200   -1.2070 C.3       6 GLL5        0.0000 
      8 CA        128.1910   72.3340   -1.3720 C.3       4 GLP5        0.0000 
      9 CA        131.3635   68.7200    1.3270 C.3       2 GLC5        0.0000 
     10 CA        130.8740   69.7730    0.0140 C.3       6 GLL5        0.0000 
     11 CA        131.8530   67.6670    2.6400 C.3       4 GLP5        0.0000 
     12 CA        132.7980   68.9790   -0.4610 C.3       2 GLC5        0.0000 
     13 CA        134.7220   68.1850   -0.9360 C.3       4 GLP5        0.0000 
     14 CA        129.2535   70.3840   -0.9095 C.3       2 GLC5        0.0000 
     15 CA        134.1725   74.5120   -1.1855 C.3       2 GLC5        0.0000 
     16 CA        132.8730   76.0750   -1.4470 C.3       6 GLL5        0.0000 
     17 CA        135.4720   72.9490   -0.9240 C.3       4 GLP5        0.0000 
     18 CA        133.7275   76.9075   -0.0095 C.3       2 GLC5        0.0000 
     19 CA        134.5820   77.7400    1.4280 C.3       4 GLP5        0.0000 
     20 CA        131.9020   76.6435   -3.1745 C.3       2 GLC5        0.0000 
     21 CA        130.9310   77.2120   -4.9020 C.3       4 GLP5        0.0000 
     22 CA        130.8825   75.3725   -1.6930 C.3       2 GLC5        0.0000 
     23 CA        128.8920   74.6700   -1.9390 C.3       4 GLP5        0.0000 
     24 CA        135.8650   74.9585   -5.1460 C.3       2 GLC5        0.0000 
     25 CA        134.3260   75.2930   -6.3270 C.3       6 GLL5        0.0000 
     26 CA        137.4040   74.6240   -3.9650 C.3       4 GLP5        0.0000 
     27 CA        132.6955   74.9240   -6.9825 C.3       2 GLC5        0.0000 
     28 CA        131.0650   74.5550   -7.6380 C.3       4 GLP5        0.0000 
     29 CA        132.6285   76.2525   -5.6145 C.3       2 GLC5        0.0000 
     30 CA        133.0520   67.5905   -2.0855 C.3       2 GLC5        0.0000 
     31 CA        131.4250   68.2370   -2.6190 C.3       6 GLL5        0.0000 
     32 CA        134.6790   66.9440   -1.5520 C.3       4 GLP5        0.0000 
     33 CA        130.1560   69.4970   -4.9375 C.3       2 GLC5        0.0000 
     34 CA        131.0770   67.9410   -4.0740 C.3       6 GLL5        0.0000 
     35 CA        124.7215   66.8285   -3.5830 C.3       2 GLC5        0.0000 
     36 CA        124.8210   64.7650   -3.5510 C.3       6 GLL5        0.0000 
     37 CA        124.6220   68.8920   -3.6150 C.3       4 GLP5        0.0000 
     38 CA        121.5925   65.6115   -2.5550 C.3       2 GLC5        0.0000 
     39 CA        122.3990   64.5340   -4.1010 C.3       6 GLL5        0.0000 
     40 CA        120.7860   66.6890   -1.0090 C.3       4 GLP5        0.0000 
     41 CA        118.6835   64.6890   -2.7650 C.3       2 GLC5        0.0000 
     42 CA        119.9890   64.4150   -4.5090 C.3       6 GLL5        0.0000 
     43 CA        117.3780   64.9630   -1.0210 C.3       4 GLP5        0.0000 
     44 CA        120.3875   65.5520   -2.7590 C.3       2 GLC5        0.0000 
     45 CA        117.4780   64.1840   -3.3580 C.3       2 GLC5        0.0000 
     46 CA        118.7090   64.0600   -5.2110 C.3       6 GLL5        0.0000 
     47 CA        116.2470   64.3080   -1.5050 C.3       4 GLP5        0.0000 
     48 CA        130.4595   66.4725   -7.6745 C.3       2 GLC5        0.0000 
     49 CA        130.7590   66.2170   -5.8610 C.3       6 GLL5        0.0000 
     50 CA        130.1600   66.7280   -9.4880 C.3       4 GLP5        0.0000 
     51 CA        130.4415   63.2365   -0.2620 C.3       2 GLC5        0.0000 
     52 CA        130.7810   64.1210   -2.1310 C.3       6 GLL5        0.0000 
     53 CA        130.1020   62.3520    1.6070 C.3       4 GLP5        0.0000 
     54 CA        131.0500   64.9035   -0.4410 C.3       2 GLC5        0.0000 
     55 CA        131.3190   65.6860    1.2490 C.3       4 GLP5        0.0000 
     56 CA        127.0325   68.7140   -5.6200 C.3       2 GLC5        0.0000 
     57 CA        127.7070   67.0470   -4.4520 C.3       6 GLL5        0.0000 
     58 CA        126.3580   70.3810   -6.7880 C.3       4 GLP5        0.0000 
     59 CA        126.1645   67.9695   -4.0335 C.3       2 GLC5        0.0000 
     60 CA        125.4970   64.3145   -0.0475 C.3       2 GLC5        0.0000 
     61 CA        127.3010   64.8830   -0.8080 C.3       6 GLL5        0.0000 
     62 CA        123.6930   63.7460    0.7130 C.3       4 GLP5        0.0000 
     63 CA        127.9145   63.5985    0.8175 C.3       2 GLC5        0.0000 
     64 CA        128.5280   62.3140    2.4430 C.3       4 GLP5        0.0000 
     65 CA        126.8775   66.4180    0.6250 C.3       2 GLC5        0.0000 
     66 CA        126.4540   67.9530    2.0580 C.3       4 GLP5        0.0000 
     67 N         131.2075   73.5665    0.6085 N.am      1 SEC2        0.0000 
     68 N         131.5680   72.5460   -0.0970 N.am      5 SEL2        0.0000 
     69 N         130.8470   74.5870    1.3140 N.am      3 SEP2        0.0000 
     70 N         131.6810   74.6360   -0.0380 N.am      1 SEC2        0.0000 
     71 N         132.5150   74.6850   -1.3900 N.am      5 SEL2        0.0000 
     72 N         133.8600   71.4015   -6.9675 N.am      1 SEC2        0.0000 
     73 N         133.2070   71.2720   -5.8310 N.am      5 SEL2        0.0000 
     74 N         134.5130   71.5310   -8.1040 N.am      3 SEP2        0.0000 
     75 N         132.0885   72.1885   -6.7290 N.am      1 SEC2        0.0000 
     76 N         130.9700   73.1050   -7.6270 N.am      3 SEP2        0.0000 
     77 CA        133.2880   69.6923   -1.7348 C.3       2 GLC5        0.0000 
     78 CA        135.0230   69.3200   -1.6780 C.3       4 GLP5        0.0000 
     79 CA        131.3468   71.0673    1.1892 C.3       2 GLC5        0.0000 
     80 CA        131.5380   72.0380    2.9750 C.3       4 GLP5        0.0000 
     81 CA        130.7050   73.9340   -2.1965 C.3       2 GLC5        0.0000 
     82 CA        132.7070   73.8980   -2.5180 C.3       6 GLL5        0.0000 
     83 CA        134.4005   73.4603   -2.6132 C.3       2 GLC5        0.0000 
     84 CA        133.2420   74.4020   -3.7440 C.3       6 GLL5        0.0000 
     85 CA        135.3665   74.2978   -4.1338 C.3       2 GLC5        0.0000 
     86 CA        132.0631   75.5288   -4.4490 C.3       2 GLC5        0.0000 
     87 CA        133.4160   73.5410   -4.8610 C.3       6 GLL5        0.0000 
     88 CA        131.0122   71.4800   -4.9802 C.3       2 GLC5        0.0000 
     89 CA        133.0600   72.1600   -4.7790 C.3       6 GLL5        0.0000 
     90 CA        132.1298   73.8104   -6.0894 C.3       2 GLC5        0.0000 
     91 CA        133.9952   72.6875   -1.9605 C.3       2 GLC5        0.0000 
     92 CA        132.5190   71.6540   -3.5400 C.3       6 GLL5        0.0000 
     93 CA        132.9600   67.0182   -3.5608 C.3       2 GLC5        0.0000 
     94 CA        134.9400   66.8410   -2.9110 C.3       4 GLP5        0.0000 
     95 CA        132.2920   64.9883   -5.5025 C.3       2 GLC5        0.0000 
     96 CA        130.8830   66.4500   -4.3470 C.3       6 GLL5        0.0000 
     97 CA        133.7630   63.6430   -5.9010 C.3       4 GLP5        0.0000 
     98 CA        118.4080   66.0977   -4.5240 C.3       2 GLC5        0.0000 
     99 CA        117.4670   67.9580   -4.1880 C.3       4 GLP5        0.0000 
@<TRIPOS>BOND
@<TRIPOS>SUBSTRUCTURE
     1 SEC2       67 GROUP        1 X    SEC  0     ROOT SEC X 2
     2 GLC5        1 GROUP        1 X    GLC  0     **** GLC X 6
     3 SEP2       69 GROUP        1 Y    SEP  0     ROOT SEP Y 9
     4 GLP5        3 GROUP        1 Y    GLP  0     **** GLP Y 13
     5 SEL2       68 GROUP        1 Z    SEL  0     ROOT SEL Z 16
     6 GLL5        2 GROUP        1 Z    GLL  0     **** GLL Z 20
@<TRIPOS>SET

