#    Name: 2jbl_SMA_1_ligand
#    Modification time : Tue Mar 25 19:53:39 2014

@<TRIPOS>MOLECULE
2jbl_SMA_1_ligand
   79    80     1     0     0
SMALL
NO_CHARGES


@<TRIPOS>ATOM
      1 C2        131.6690   69.7090   -2.3760 C.2       1 SMA1277     0.0000 
      2 C3        131.4370   70.4200   -1.2070 C.2       1 SMA1277     0.0000 
      3 C3M       130.8740   69.7730    0.0140 C.3       1 SMA1277     0.0000 
      4 C4        131.7600   71.8900   -1.1340 C.2       1 SMA1277     0.0000 
      5 C4A       132.3290   72.4980   -2.3900 C.ar      1 SMA1277     0.0000 
      6 C5        132.7070   73.8980   -2.5180 C.ar      1 SMA1277     0.0000 
      7 C5M       132.8730   76.0750   -1.4470 C.3       1 SMA1277     0.0000 
      8 C6        133.2420   74.4020   -3.7440 C.ar      1 SMA1277     0.0000 
      9 C7        133.4160   73.5410   -4.8610 C.ar      1 SMA1277     0.0000 
     10 C7M       134.3260   75.2930   -6.3270 C.3       1 SMA1277     0.0000 
     11 C8        133.0600   72.1600   -4.7790 C.ar      1 SMA1277     0.0000 
     12 C8A       132.5190   71.6540   -3.5400 C.ar      1 SMA1277     0.0000 
     13 C9        131.4250   68.2370   -2.6190 C.3       1 SMA1277     0.0000 
     14 C10       131.0770   67.9410   -4.0740 C.3       1 SMA1277     0.0000 
     15 C11       130.8830   66.4500   -4.3470 C.3       1 SMA1277     0.0000 
     16 C12       129.7320   65.7570   -3.5470 C.3       1 SMA1277     0.0000 
     17 C13       128.3080   65.6660   -4.1860 C.3       1 SMA1277     0.0000 
     18 C14       127.3840   64.8820   -3.2000 C.3       1 SMA1277     0.0000 
     19 C15       126.0940   64.4880   -3.9060 C.2       1 SMA1277     0.0000 
     20 C16       124.8210   64.7650   -3.5510 C.2       1 SMA1277     0.0000 
     21 C17       123.7140   64.2990   -4.3760 C.2       1 SMA1277     0.0000 
     22 C18       122.3990   64.5340   -4.1010 C.2       1 SMA1277     0.0000 
     23 C19       121.2500   64.0940   -4.9210 C.2       1 SMA1277     0.0000 
     24 C20       119.9890   64.4150   -4.5090 C.2       1 SMA1277     0.0000 
     25 C21       118.7090   64.0600   -5.2110 C.3       1 SMA1277     0.0000 
     26 C22       130.7590   66.2170   -5.8610 C.3       1 SMA1277     0.0000 
     27 C23       130.7810   64.1210   -2.1310 C.3       1 SMA1277     0.0000 
     28 C24       127.7070   67.0470   -4.4520 C.3       1 SMA1277     0.0000 
     29 C25       127.3010   64.8830   -0.8080 C.3       1 SMA1277     0.0000 
     30 C26       121.5260   63.3150   -6.1800 C.3       1 SMA1277     0.0000 
     31 O1        132.2010   70.2930   -3.5420 O.3       1 SMA1277     0.0000 
     32 O4        131.5680   72.5460   -0.0970 O.2       1 SMA1277     0.0000 
     33 O5        132.5150   74.6850   -1.3900 O.3       1 SMA1277     0.0000 
     34 O7        133.9300   73.9190   -6.1120 O.3       1 SMA1277     0.0000 
     35 O8        133.2070   71.2720   -5.8310 O.3       1 SMA1277     0.0000 
     36 O12       130.1340   64.3790   -3.3750 O.3       1 SMA1277     0.0000 
     37 O14       127.1810   65.6640   -2.0010 O.3       1 SMA1277     0.0000 
     38 H         133.4993   75.3863   -3.8138 H         1 SMA1277     0.0000 
     39 H         130.6028   67.8926   -1.9795 H         1 SMA1277     0.0000 
     40 H         132.3221   67.6680   -2.3450 H         1 SMA1277     0.0000 
     41 H         131.8792   68.3211   -4.7200 H         1 SMA1277     0.0000 
     42 H         130.1555   68.4756   -4.3392 H         1 SMA1277     0.0000 
     43 H         131.8347   65.9390   -4.0409 H         1 SMA1277     0.0000 
     44 H         129.6471   66.2158   -2.5784 H         1 SMA1277     0.0000 
     45 H         128.3724   65.1095   -5.0926 H         1 SMA1277     0.0000 
     46 H         127.9304   63.9563   -2.9590 H         1 SMA1277     0.0000 
     47 H         126.2872   63.9145   -4.7993 H         1 SMA1277     0.0000 
     48 H         124.5835   65.3005   -2.7088 H         1 SMA1277     0.0000 
     49 H         123.9857   63.7485   -5.2317 H         1 SMA1277     0.0000 
     50 H         122.1305   65.0782   -3.2295 H         1 SMA1277     0.0000 
     51 H         119.8437   64.9668   -3.6145 H         1 SMA1277     0.0000 
     52 H         131.4620   69.0367    0.3488 H         1 SMA1277     0.0000 
     53 H         130.7658   70.4257    0.7639 H         1 SMA1277     0.0000 
     54 H         129.9737   69.3735   -0.1590 H         1 SMA1277     0.0000 
     55 H         133.8432   76.2004   -1.6542 H         1 SMA1277     0.0000 
     56 H         132.3574   76.5627   -2.1515 H         1 SMA1277     0.0000 
     57 H         132.6961   76.5400   -0.5795 H         1 SMA1277     0.0000 
     58 H         135.0493   75.5741   -5.6963 H         1 SMA1277     0.0000 
     59 H         134.6721   75.4391   -7.2538 H         1 SMA1277     0.0000 
     60 H         133.5617   75.9245   -6.1966 H         1 SMA1277     0.0000 
     61 H         118.6711   64.4469   -6.1324 H         1 SMA1277     0.0000 
     62 H         118.5984   63.0705   -5.3038 H         1 SMA1277     0.0000 
     63 H         117.9083   64.3994   -4.7174 H         1 SMA1277     0.0000 
     64 H         131.5738   66.5252   -6.3521 H         1 SMA1277     0.0000 
     65 H         130.6341   65.2490   -6.0788 H         1 SMA1277     0.0000 
     66 H         129.9793   66.7079   -6.2497 H         1 SMA1277     0.0000 
     67 H         131.0486   63.1614   -2.0435 H         1 SMA1277     0.0000 
     68 H         131.6114   64.6678   -2.0238 H         1 SMA1277     0.0000 
     69 H         130.1886   64.3321   -1.3535 H         1 SMA1277     0.0000 
     70 H         127.6123   67.5791   -3.6107 H         1 SMA1277     0.0000 
     71 H         128.2735   67.5846   -5.0766 H         1 SMA1277     0.0000 
     72 H         126.7974   66.9834   -4.8626 H         1 SMA1277     0.0000 
     73 H         128.2072   64.4683   -0.7252 H         1 SMA1277     0.0000 
     74 H         127.1549   65.4346    0.0132 H         1 SMA1277     0.0000 
     75 H         126.6344   64.1380   -0.7832 H         1 SMA1277     0.0000 
     76 H         122.0866   63.8359   -6.8237 H         1 SMA1277     0.0000 
     77 H         122.0133   62.4627   -5.9901 H         1 SMA1277     0.0000 
     78 H         120.6823   63.0701   -6.6577 H         1 SMA1277     0.0000 
     79 H         132.6921   70.4595   -5.5575 H         1 SMA1277     0.0000 
@<TRIPOS>BOND
     1    2    1 2    
     2   13    1 1    
     3   31    1 1    
     4    3    2 1    
     5    4    2 1    
     6   52    3 1    
     7   53    3 1    
     8   54    3 1    
     9    5    4 1    
    10   32    4 2    
    11    6    5 ar   
    12   12    5 ar   
    13    8    6 ar   
    14   33    6 1    
    15   33    7 1    
    16   55    7 1    
    17   56    7 1    
    18   57    7 1    
    19    9    8 ar   
    20   38    8 1    
    21   11    9 ar   
    22   34    9 1    
    23   34   10 1    
    24   58   10 1    
    25   59   10 1    
    26   60   10 1    
    27   12   11 ar   
    28   35   11 1    
    29   31   12 1    
    30   14   13 1    
    31   39   13 1    
    32   40   13 1    
    33   15   14 1    
    34   41   14 1    
    35   42   14 1    
    36   16   15 1    
    37   26   15 1    
    38   43   15 1    
    39   17   16 1    
    40   36   16 1    
    41   44   16 1    
    42   18   17 1    
    43   28   17 1    
    44   45   17 1    
    45   19   18 1    
    46   37   18 1    
    47   46   18 1    
    48   20   19 2    
    49   47   19 1    
    50   21   20 1    
    51   48   20 1    
    52   22   21 2    
    53   49   21 1    
    54   23   22 1    
    55   50   22 1    
    56   24   23 2    
    57   30   23 1    
    58   25   24 1    
    59   51   24 1    
    60   61   25 1    
    61   62   25 1    
    62   63   25 1    
    63   64   26 1    
    64   65   26 1    
    65   66   26 1    
    66   36   27 1    
    67   67   27 1    
    68   68   27 1    
    69   69   27 1    
    70   70   28 1    
    71   71   28 1    
    72   72   28 1    
    73   37   29 1    
    74   73   29 1    
    75   74   29 1    
    76   75   29 1    
    77   76   30 1    
    78   77   30 1    
    79   78   30 1    
    80   79   35 1    
@<TRIPOS>SUBSTRUCTURE
     1 SMA1277     1 GROUP   
@<TRIPOS>SET

