#    Name: 4c4i_X20_1_INTS_M
#    Modification time : Tue Mar 25 08:57:06 2014

@<TRIPOS>MOLECULE
4c4i_X20_1_INTS_M
   75     0     9     0     0
SMALL
NO_CHARGES


@<TRIPOS>ATOM
      1 CA         -1.0765  -15.8515   -7.1755 C.3       3 GLC5        0.0000 
      2 CA          0.7590  -16.1280   -6.7800 C.3       9 GLL5        0.0000 
      3 CA         -2.9120  -15.5750   -7.5710 C.3       6 GLP5        0.0000 
      4 CA          0.3420  -18.0635   -6.6625 C.3       3 GLC5        0.0000 
      5 CA         -0.0750  -19.9990   -6.5450 C.3       6 GLP5        0.0000 
      6 CA         -3.2170  -17.4075  -11.8190 C.3       3 GLC5        0.0000 
      7 CA         -1.1500  -17.5050  -12.4840 C.3       9 GLL5        0.0000 
      8 CA         -5.2840  -17.3100  -11.1540 C.3       6 GLP5        0.0000 
      9 O           1.9675  -17.5610   -8.7770 O.2       1 ALC1        0.0000 
     10 O           0.9160  -16.9620   -9.5440 O.2       7 ALL1        0.0000 
     11 O           3.0190  -18.1600   -8.0100 O.2       4 ALP1        0.0000 
     12 CA         -1.2845  -15.4705  -10.5140 C.3       3 GLC5        0.0000 
     13 CA         -0.4520  -16.8050  -11.5100 C.3       9 GLL5        0.0000 
     14 CA         -2.1170  -14.1360   -9.5180 C.3       6 GLP5        0.0000 
     15 CA         -1.2845  -17.2960   -9.3595 C.3       3 GLC5        0.0000 
     16 CA          0.1900  -17.6010  -10.5440 C.3       9 GLL5        0.0000 
     17 CA         -2.7590  -16.9910   -8.1750 C.3       6 GLP5        0.0000 
     18 CA          1.9140  -18.7010  -10.0890 C.3       3 GLC5        0.0000 
     19 CA          3.6380  -19.8010   -9.6340 C.3       6 GLP5        0.0000 
     20 N           1.2490  -19.6890   -9.9405 N.am      2 SEC2        0.0000 
     21 N           0.1560  -18.9770  -10.5180 N.am      8 SEL2        0.0000 
     22 N           2.3420  -20.4010   -9.3630 N.am      5 SEP2        0.0000 
     23 N          -5.9410  -17.9175  -18.0245 N.am      2 SEC2        0.0000 
     24 N          -4.5890  -17.9150  -17.1780 N.am      8 SEL2        0.0000 
     25 N          -7.2930  -17.9200  -18.8710 N.am      5 SEP2        0.0000 
     26 CA          3.3295   -8.9325  -10.1150 C.3       3 GLC5        0.0000 
     27 CA          1.5640   -9.1330   -8.9220 C.3       9 GLL5        0.0000 
     28 CA          5.0950   -8.7320  -11.3080 C.3       6 GLP5        0.0000 
     29 CA         -1.0115  -12.5080   -9.6945 C.3       3 GLC5        0.0000 
     30 CA          0.0940  -10.8800   -9.8710 C.3       9 GLL5        0.0000 
     31 CA          0.1145  -20.7625   -9.9320 C.3       3 GLC5        0.0000 
     32 CA         -0.5290  -19.5990  -11.4720 C.3       9 GLL5        0.0000 
     33 CA          0.7580  -21.9260   -8.3920 C.3       6 GLP5        0.0000 
     34 CA         -3.8335  -17.7680  -12.7095 C.3       3 GLC5        0.0000 
     35 CA         -2.3830  -18.2260  -14.2650 C.3       9 GLL5        0.0000 
     36 CA         -6.0975  -18.1035  -16.2945 C.3       3 GLC5        0.0000 
     37 CA         -4.2040  -17.4310  -15.9170 C.3       9 GLL5        0.0000 
     38 CA         -7.9910  -18.7760  -16.6720 C.3       6 GLP5        0.0000 
     39 CA         -4.0965  -12.0195  -12.1235 C.3       3 GLC5        0.0000 
     40 CA         -2.8590  -12.9480  -13.5900 C.3       9 GLL5        0.0000 
     41 CA         -5.3340  -11.0910  -10.6570 C.3       6 GLP5        0.0000 
     42 CA         -4.0975  -13.9085  -12.6680 C.3       3 GLC5        0.0000 
     43 CA         -5.3360  -14.8690  -11.7460 C.3       6 GLP5        0.0000 
     44 CA          1.2893  -17.2010  -12.0587 C.3       3 GLC5        0.0000 
     45 CA          2.8840  -17.0240  -12.8470 C.3       6 GLP5        0.0000 
     46 CA         -0.3895  -14.6487   -9.7133 C.3       3 GLC5        0.0000 
     47 CA          1.4950  -14.7210  -10.4270 C.3       9 GLL5        0.0000 
     48 CA          3.3545  -14.7698   -9.8303 C.3       3 GLC5        0.0000 
     49 CA          1.1810  -15.6020   -9.3900 C.3       9 GLL5        0.0000 
     50 CA          5.3710  -14.3780   -9.7520 C.3       6 GLP5        0.0000 
     51 CA          2.1110  -16.0928  -11.3778 C.3       3 GLC5        0.0000 
     52 CA         -0.1748  -13.6512   -9.5045 C.3       3 GLC5        0.0000 
     53 CA          1.7790  -13.3980  -10.1450 C.3       9 GLL5        0.0000 
     54 CA         -0.4110  -14.2863   -8.7305 C.3       3 GLC5        0.0000 
     55 CA          1.4350  -13.7810   -7.7940 C.3       9 GLL5        0.0000 
     56 CA          3.4861  -13.9259   -9.1973 C.3       3 GLC5        0.0000 
     57 CA         -0.6252  -20.7130  -13.2978 C.3       3 GLC5        0.0000 
     58 CA         -0.3870  -22.1680  -14.6210 C.3       6 GLP5        0.0000 
     59 CA          0.9213  -19.3460  -12.4648 C.3       3 GLC5        0.0000 
     60 CA         -1.1980  -18.9170  -12.4770 C.3       9 GLL5        0.0000 
     61 CA          2.7060  -19.4340  -12.9550 C.3       6 GLP5        0.0000 
     62 CA         -2.3441  -19.9273  -11.2424 C.3       3 GLC5        0.0000 
     63 CA         -1.9730  -19.3410  -13.5930 C.3       9 GLL5        0.0000 
     64 CA         -3.2700  -20.5550   -9.7010 C.3       6 GLP5        0.0000 
     65 CA         -1.2825  -20.4757  -14.2750 C.3       3 GLC5        0.0000 
     66 CA         -3.5990  -19.9498  -14.1505 C.3       3 GLC5        0.0000 
     67 CA         -5.0200  -21.1160  -14.3720 C.3       6 GLP5        0.0000 
     68 CA         -0.5131  -18.9907  -14.8940 C.3       3 GLC5        0.0000 
     69 CA          0.9580  -19.3040  -16.1380 C.3       6 GLP5        0.0000 
     70 CA         -4.3530  -19.4690  -15.0297 C.3       3 GLC5        0.0000 
     71 CA         -3.1680  -18.2130  -15.4580 C.3       9 GLL5        0.0000 
     72 CA         -2.1115  -17.4160  -16.8987 C.3       3 GLC5        0.0000 
     73 CA         -0.5370  -17.0100  -18.1100 C.3       6 GLP5        0.0000 
     74 CA         -2.0236  -13.5654  -11.4352 C.3       3 GLC5        0.0000 
     75 CA         -1.4250  -13.4240  -13.6100 C.3       9 GLL5        0.0000 
@<TRIPOS>BOND
@<TRIPOS>SUBSTRUCTURE
     1 ALC1        9 GROUP        1 X    ALC  0     ROOT ALC X 1
     2 SEC2       20 GROUP        1 X    SEC  0     **** SEC X 2
     3 GLC5        1 GROUP        1 X    GLC  0     **** GLC X 6
     4 ALP1       11 GROUP        1 Y    ALP  0     ROOT ALP Y 8
     5 SEP2       22 GROUP        1 Y    SEP  0     **** SEP Y 9
     6 GLP5        3 GROUP        1 Y    GLP  0     **** GLP Y 13
     7 ALL1       10 GROUP        1 Z    ALL  0     ROOT ALL Z 15
     8 SEL2       21 GROUP        1 Z    SEL  0     **** SEL Z 16
     9 GLL5        2 GROUP        1 Z    GLL  0     **** GLL Z 20
@<TRIPOS>SET

