#    Name: 4c4i_X20_1_ligand
#    Modification time : Tue Mar 25 08:57:06 2014

@<TRIPOS>MOLECULE
4c4i_X20_1_ligand
   58    61     1     0     0
SMALL
NO_CHARGES


@<TRIPOS>ATOM
      1 C          -2.0840  -15.7160  -13.9840 C.2       1 X201795     0.0000 
      2 N          -1.8840  -17.0640  -13.5930 N.am      1 X201795     0.0000 
      3 O          -2.7540  -15.3780  -14.9220 O.2       1 X201795     0.0000 
      4 CL          0.7590  -16.1280   -6.7800 Cl        1 X201795     0.0000 
      5 C1         -1.1500  -17.5050  -12.4840 C.ar      1 X201795     0.0000 
      6 N1          0.9160  -16.9620   -9.5440 N.pl3     1 X201795     0.0000 
      7 O1          2.9900  -11.2190   -7.7960 O.2       1 X201795     0.0000 
      8 C2         -0.4520  -16.8050  -11.5100 C.ar      1 X201795     0.0000 
      9 N2          1.3910  -10.5560   -9.2550 N.am      1 X201795     0.0000 
     10 O2         -2.9010  -19.1680  -16.3980 O.3       1 X201795     0.0000 
     11 C3          0.1900  -17.6010  -10.5440 C.ar      1 X201795     0.0000 
     12 N3          0.1560  -18.9770  -10.5180 N.ar      1 X201795     0.0000 
     13 O3         -1.4350  -14.8260  -13.1900 O.3       1 X201795     0.0000 
     14 C4          1.1810  -15.6020   -9.3900 C.ar      1 X201795     0.0000 
     15 N4         -4.5890  -17.9150  -17.1780 N.2       1 X201795     0.0000 
     16 C5          1.4950  -14.7210  -10.4270 C.ar      1 X201795     0.0000 
     17 C6          1.7790  -13.3980  -10.1450 C.ar      1 X201795     0.0000 
     18 C7          1.7560  -12.9350   -8.8370 C.ar      1 X201795     0.0000 
     19 C8          2.1050  -11.5250   -8.5770 C.2       1 X201795     0.0000 
     20 C9          1.5640   -9.1330   -8.9220 C.3       1 X201795     0.0000 
     21 C10         0.0940  -10.8800   -9.8710 C.3       1 X201795     0.0000 
     22 C11         1.4350  -13.7810   -7.7940 C.ar      1 X201795     0.0000 
     23 C12         1.1550  -15.0920   -8.0920 C.ar      1 X201795     0.0000 
     24 C13        -0.5290  -19.5990  -11.4720 C.ar      1 X201795     0.0000 
     25 C14        -1.1980  -18.9170  -12.4770 C.ar      1 X201795     0.0000 
     26 C15        -1.9730  -19.3410  -13.5930 C.2       1 X201795     0.0000 
     27 C16        -2.3830  -18.2260  -14.2650 C.2       1 X201795     0.0000 
     28 C17        -3.1680  -18.2130  -15.4580 C.2       1 X201795     0.0000 
     29 C18        -4.2040  -17.4310  -15.9170 C.2       1 X201795     0.0000 
     30 C19        -3.7850  -18.9440  -17.4140 C.2       1 X201795     0.0000 
     31 C20        -1.4250  -13.4240  -13.6100 C.3       1 X201795     0.0000 
     32 C21        -0.8420  -13.3540  -15.0020 C.3       1 X201795     0.0000 
     33 C22        -0.5780  -12.6590  -12.6200 C.3       1 X201795     0.0000 
     34 C23        -2.8590  -12.9480  -13.5900 C.3       1 X201795     0.0000 
     35 H           1.3353  -17.6125   -8.7755 H         1 X201795     0.0000 
     36 H          -0.4035  -15.8136  -11.4883 H         1 X201795     0.0000 
     37 H           1.5132  -15.0621  -11.3966 H         1 X201795     0.0000 
     38 H           2.0108  -12.7460  -10.9133 H         1 X201795     0.0000 
     39 H           1.4077  -13.4399   -6.8347 H         1 X201795     0.0000 
     40 H          -0.5807  -20.6550  -11.4866 H         1 X201795     0.0000 
     41 H          -2.1528  -20.2445  -13.8029 H         1 X201795     0.0000 
     42 H          -4.5988  -16.6933  -15.4729 H         1 X201795     0.0000 
     43 H          -3.8078  -19.5044  -18.2361 H         1 X201795     0.0000 
     44 H           2.5076   -8.8316   -9.0588 H         1 X201795     0.0000 
     45 H           0.9840   -8.5462   -9.4870 H         1 X201795     0.0000 
     46 H           1.3313   -8.9439   -7.9680 H         1 X201795     0.0000 
     47 H           0.1793  -11.6008  -10.5589 H         1 X201795     0.0000 
     48 H          -0.5696  -11.1981   -9.1939 H         1 X201795     0.0000 
     49 H          -0.3094  -10.0864  -10.3264 H         1 X201795     0.0000 
     50 H           0.0938  -13.7053  -15.0308 H         1 X201795     0.0000 
     51 H          -1.3764  -13.8896  -15.6558 H         1 X201795     0.0000 
     52 H          -0.8135  -12.4154  -15.3459 H         1 X201795     0.0000 
     53 H           0.3598  -13.0046  -12.5885 H         1 X201795     0.0000 
     54 H          -0.5247  -11.6872  -12.8498 H         1 X201795     0.0000 
     55 H          -0.9446  -12.7210  -11.6917 H         1 X201795     0.0000 
     56 H          -2.9364  -11.9905  -13.8677 H         1 X201795     0.0000 
     57 H          -3.4357  -13.4804  -14.2096 H         1 X201795     0.0000 
     58 H          -3.2622  -13.0221  -12.6779 H         1 X201795     0.0000 
@<TRIPOS>BOND
     1    2    1 am   
     2    3    1 2    
     3   13    1 1    
     4    5    2 1    
     5   27    2 1    
     6   23    4 1    
     7    8    5 ar   
     8   25    5 ar   
     9   11    6 1    
    10   14    6 1    
    11   35    6 1    
    12   19    7 2    
    13   11    8 ar   
    14   36    8 1    
    15   19    9 am   
    16   20    9 1    
    17   21    9 1    
    18   28   10 1    
    19   30   10 1    
    20   12   11 ar   
    21   24   12 ar   
    22   31   13 1    
    23   16   14 ar   
    24   23   14 ar   
    25   29   15 1    
    26   30   15 2    
    27   17   16 ar   
    28   37   16 1    
    29   18   17 ar   
    30   38   17 1    
    31   19   18 1    
    32   22   18 ar   
    33   44   20 1    
    34   45   20 1    
    35   46   20 1    
    36   47   21 1    
    37   48   21 1    
    38   49   21 1    
    39   23   22 ar   
    40   39   22 1    
    41   25   24 ar   
    42   40   24 1    
    43   26   25 1    
    44   27   26 2    
    45   41   26 1    
    46   28   27 1    
    47   29   28 2    
    48   42   29 1    
    49   43   30 1    
    50   32   31 1    
    51   33   31 1    
    52   34   31 1    
    53   50   32 1    
    54   51   32 1    
    55   52   32 1    
    56   53   33 1    
    57   54   33 1    
    58   55   33 1    
    59   56   34 1    
    60   57   34 1    
    61   58   34 1    
@<TRIPOS>SUBSTRUCTURE
     1 X201795     1 GROUP   
@<TRIPOS>SET

