#    Name: 1bif_AGS_1_INTS_M
#    Modification time : Mon Mar 24 19:35:46 2014

@<TRIPOS>MOLECULE
1bif_AGS_1_INTS_M
   84     0    12     0     0
SMALL
NO_CHARGES


@<TRIPOS>ATOM
      1 CA         56.8960   58.0600   55.7650 C.3       4 GLC5        0.0000 
      2 CA         56.2820   56.9940   54.5250 C.3      12 GLL5        0.0000 
      3 CA         57.5100   59.1260   57.0050 C.3       8 GLP5        0.0000 
      4 CA         54.4500   57.5040   54.7510 C.3       4 GLC5        0.0000 
      5 CA         52.6180   58.0140   54.9770 C.3       8 GLP5        0.0000 
      6 CA         55.8995   58.6850   53.6460 C.3       4 GLC5        0.0000 
      7 CA         55.5170   60.3760   52.7670 C.3       8 GLP5        0.0000 
      8 NZ         57.0330   54.0215   56.1045 N.4       2 LYC4        0.0000 
      9 NZ         55.7280   54.4050   54.7660 N.4      10 LYL4        0.0000 
     10 NZ         58.3380   53.6380   57.4430 N.4       6 LYP4        0.0000 
     11 Zn         54.6920   54.5280   54.3395 Zn        3 ZIC7        0.0000 
     12 Zn         55.7280   54.4050   54.7660 Zn       11 ZIL7        0.0000 
     13 Zn         53.6560   54.6510   53.9130 Zn        7 ZIP7        0.0000 
     14 NZ         58.1995   54.3400   56.4135 N.4       2 LYC4        0.0000 
     15 NZ         58.0610   55.0420   55.3840 N.4      10 LYL4        0.0000 
     16 N          58.1995   54.3400   56.4135 N.am      1 SEC2        0.0000 
     17 N          58.0610   55.0420   55.3840 N.am      9 SEL2        0.0000 
     18 N          58.3380   53.6380   57.4430 N.am      5 SEP2        0.0000 
     19 N          52.8590   53.6085   56.7925 N.am      1 SEC2        0.0000 
     20 N          54.2270   54.2250   56.7100 N.am      9 SEL2        0.0000 
     21 N          51.4910   52.9920   56.8750 N.am      5 SEP2        0.0000 
     22 NZ         54.0705   57.3625   56.9500 N.4       2 LYC4        0.0000 
     23 NZ         54.3390   56.3520   58.0640 N.4      10 LYL4        0.0000 
     24 NZ         53.8020   58.3730   55.8360 N.4       6 LYP4        0.0000 
     25 N          54.6725   56.9910   59.2575 N.am      1 SEC2        0.0000 
     26 N          54.3390   56.3520   58.0640 N.am      9 SEL2        0.0000 
     27 N          55.0060   57.6300   60.4510 N.am      5 SEP2        0.0000 
     28 N          52.9170   55.7435   58.4385 N.am      1 SEC2        0.0000 
     29 N          51.4950   55.1350   58.8130 N.am      5 SEP2        0.0000 
     30 N          54.0705   57.3625   56.9500 N.am      1 SEC2        0.0000 
     31 N          53.8020   58.3730   55.8360 N.am      5 SEP2        0.0000 
     32 N          56.8050   56.4920   57.8560 N.am      1 SEC2        0.0000 
     33 N          56.3280   55.4950   56.9520 N.am      9 SEL2        0.0000 
     34 N          57.2820   57.4890   58.7600 N.am      5 SEP2        0.0000 
     35 N          57.3330   54.5665   57.1975 N.am      1 SEC2        0.0000 
     36 NZ         57.1120   52.8245   57.9980 N.4       2 LYC4        0.0000 
     37 NZ         55.8860   52.0110   58.5530 N.4      10 LYL4        0.0000 
     38 N          57.1120   52.8245   57.9980 N.am      1 SEC2        0.0000 
     39 N          55.8860   52.0110   58.5530 N.am      9 SEL2        0.0000 
     40 N          52.2145   51.6135   58.9040 N.am      1 SEC2        0.0000 
     41 N          53.3740   52.2730   59.1300 N.am      9 SEL2        0.0000 
     42 N          51.0550   50.9540   58.6780 N.am      5 SEP2        0.0000 
     43 N          54.4985   50.9875   58.8645 N.am      1 SEC2        0.0000 
     44 N          55.6230   49.7020   58.5990 N.am      5 SEP2        0.0000 
     45 N          54.0870   55.0275   60.0220 N.am      1 SEC2        0.0000 
     46 N          55.0390   54.3170   59.0130 N.am      9 SEL2        0.0000 
     47 N          53.1350   55.7380   61.0310 N.am      5 SEP2        0.0000 
     48 CA         52.8530   51.1395   61.3765 C.3       4 GLC5        0.0000 
     49 CA         54.6570   51.6040   61.6730 C.3      12 GLL5        0.0000 
     50 CA         51.0490   50.6750   61.0800 C.3       8 GLP5        0.0000 
     51 CA         54.1635   50.0275   60.3645 C.3       4 GLC5        0.0000 
     52 CA         53.6700   48.4510   59.0560 C.3       8 GLP5        0.0000 
     53 CA         56.6630   53.3630   63.6715 C.3       4 GLC5        0.0000 
     54 CA         55.0540   52.0000   63.1000 C.3      12 GLL5        0.0000 
     55 CA         58.2720   54.7260   64.2430 C.3       8 GLP5        0.0000 
     56 CA         54.9935   48.9445   63.8050 C.3       4 GLC5        0.0000 
     57 CA         54.8670   50.9240   64.1730 C.3      12 GLL5        0.0000 
     58 CA         55.1200   46.9650   63.4370 C.3       8 GLP5        0.0000 
     59 CA         52.2245   50.1035   63.7830 C.3       4 GLC5        0.0000 
     60 CA         53.5330   51.3820   64.7930 C.3      12 GLL5        0.0000 
     61 CA         50.9160   48.8250   62.7730 C.3       8 GLP5        0.0000 
     62 CA         51.6855   51.3780   66.0615 C.3       4 GLC5        0.0000 
     63 CA         49.8380   51.3740   67.3300 C.3       8 GLP5        0.0000 
     64 CA         52.9570   53.7675   62.9045 C.3       4 GLC5        0.0000 
     65 CA         53.6990   52.9150   64.7010 C.3      12 GLL5        0.0000 
     66 CA         52.2150   54.6200   61.1080 C.3       8 GLP5        0.0000 
     67 CA         50.2600   53.1795   66.0555 C.3       4 GLC5        0.0000 
     68 CA         50.6820   54.9850   64.7810 C.3      12 GLL5        0.0000 
     69 CA         53.0120   59.1105   65.2785 C.3       4 GLC5        0.0000 
     70 CA         52.3990   57.0100   65.4490 C.3      12 GLL5        0.0000 
     71 CA         53.6250   61.2110   65.1080 C.3       8 GLP5        0.0000 
     72 CA         53.9205   57.2055   66.7945 C.3       4 GLC5        0.0000 
     73 CA         55.4420   57.4010   68.1400 C.3       8 GLP5        0.0000 
     74 CA         51.3050   56.4545   66.9115 C.3       4 GLC5        0.0000 
     75 CA         50.2110   55.8990   68.3740 C.3       8 GLP5        0.0000 
     76 N          54.6770   55.9365   64.9820 N.am      1 SEC2        0.0000 
     77 N          53.0220   55.8490   65.1440 N.am      9 SEL2        0.0000 
     78 N          56.3320   56.0240   64.8200 N.am      5 SEP2        0.0000 
     79 CA         53.5353   53.2110   61.7473 C.3       4 GLC5        0.0000 
     80 CA         56.2861   50.2240   62.8114 C.3       4 GLC5        0.0000 
     81 CA         57.7110   49.0850   62.3430 C.3       8 GLP5        0.0000 
     82 CA         51.8045   54.7727   62.9533 C.3       4 GLC5        0.0000 
     83 CA         52.1060   54.8660   64.8160 C.3      12 GLL5        0.0000 
     84 CA         50.7399   55.5726   66.6239 C.3       4 GLC5        0.0000 
@<TRIPOS>BOND
@<TRIPOS>SUBSTRUCTURE
     1 SEC2       16 GROUP        1 X    SEC  0     ROOT SEC X 2
     2 LYC4        8 GROUP        1 X    LYC  0     **** LYC X 4
     3 ZIC7       11 GROUP        1 X    ZIC  0     **** ZIC X 5
     4 GLC5        1 GROUP        1 X    GLC  0     **** GLC X 6
     5 SEP2       18 GROUP        1 Y    SEP  0     ROOT SEP Y 9
     6 LYP4       10 GROUP        1 Y    LYP  0     **** LYP Y 11
     7 ZIP7       13 GROUP        1 Y    ZIP  0     **** ZIP Y 12
     8 GLP5        3 GROUP        1 Y    GLP  0     **** GLP Y 13
     9 SEL2       17 GROUP        1 Z    SEL  0     ROOT SEL Z 16
    10 LYL4        9 GROUP        1 Z    LYL  0     **** LYL Z 18
    11 ZIL7       12 GROUP        1 Z    ZIL  0     **** ZIL Z 19
    12 GLL5        2 GROUP        1 Z    GLL  0     **** GLL Z 20
@<TRIPOS>SET

