#    Name: 1bif_AGS_1_ligand
#    Modification time : Mon Mar 24 19:35:47 2014

@<TRIPOS>MOLECULE
1bif_AGS_1_ligand
   43    45     1     0     0
SMALL
NO_CHARGES


@<TRIPOS>ATOM
      1 PG         56.6360   55.4400   55.3520 P.3       1 AGS500      0.0000 
      2 S1G        56.2820   56.9940   54.5250 S.3       1 AGS500      0.0000 
      3 O2G        55.7280   54.4050   54.7660 O.co2     1 AGS500      0.0000 
      4 O3G        58.0610   55.0420   55.3840 O.co2     1 AGS500      0.0000 
      5 PB         54.9820   55.0760   57.6580 P.3       1 AGS500      0.0000 
      6 O1B        54.2270   54.2250   56.7100 O.co2     1 AGS500      0.0000 
      7 O2B        54.3390   56.3520   58.0640 O.co2     1 AGS500      0.0000 
      8 O3B        56.3280   55.4950   56.9520 O.3       1 AGS500      0.0000 
      9 PA         54.7870   52.6730   59.2950 P.3       1 AGS500      0.0000 
     10 O1A        55.8860   52.0110   58.5530 O.co2     1 AGS500      0.0000 
     11 O2A        53.3740   52.2730   59.1300 O.co2     1 AGS500      0.0000 
     12 O3A        55.0390   54.3170   59.0130 O.3       1 AGS500      0.0000 
     13 O5'        55.0200   52.6950   60.8680 O.3       1 AGS500      0.0000 
     14 C5'        54.6570   51.6040   61.6730 C.3       1 AGS500      0.0000 
     15 C4'        55.0540   52.0000   63.1000 C.3       1 AGS500      0.0000 
     16 O4'        54.3180   53.1210   63.4820 O.3       1 AGS500      0.0000 
     17 C3'        54.8670   50.9240   64.1730 C.3       1 AGS500      0.0000 
     18 O3'        55.8420   51.1260   65.1760 O.3       1 AGS500      0.0000 
     19 C2'        53.5330   51.3820   64.7930 C.3       1 AGS500      0.0000 
     20 O2'        53.2940   50.9060   66.1370 O.3       1 AGS500      0.0000 
     21 C1'        53.6990   52.9150   64.7010 C.3       1 AGS500      0.0000 
     22 N9         52.3690   53.5450   64.6220 N.pl3     1 AGS500      0.0000 
     23 C8         51.1210   53.0150   64.3520 C.2       1 AGS500      0.0000 
     24 N7         50.0670   53.8020   64.4410 N.2       1 AGS500      0.0000 
     25 C5         50.6820   54.9850   64.7810 C.ar      1 AGS500      0.0000 
     26 C6         50.1810   56.2680   65.0820 C.ar      1 AGS500      0.0000 
     27 N6         48.7620   56.5640   64.9510 N.pl3     1 AGS500      0.0000 
     28 N1         51.0490   57.2300   65.4960 N.ar      1 AGS500      0.0000 
     29 C2         52.3990   57.0100   65.4490 C.ar      1 AGS500      0.0000 
     30 N3         53.0220   55.8490   65.1440 N.ar      1 AGS500      0.0000 
     31 C4         52.1060   54.8660   64.8160 C.ar      1 AGS500      0.0000 
     32 H          55.1943   50.6991   61.4232 H         1 AGS500      0.0000 
     33 H          53.5921   51.4145   61.6704 H         1 AGS500      0.0000 
     34 H          56.1285   52.2570   63.0822 H         1 AGS500      0.0000 
     35 H          54.7782   50.0151   63.7753 H         1 AGS500      0.0000 
     36 H          52.7591   51.1187   64.0936 H         1 AGS500      0.0000 
     37 H          54.2452   53.2476   65.5172 H         1 AGS500      0.0000 
     38 H          51.0472   52.0190   64.0883 H         1 AGS500      0.0000 
     39 H          48.1369   55.7989   65.1053 H         1 AGS500      0.0000 
     40 H          48.5291   57.5080   64.7175 H         1 AGS500      0.0000 
     41 H          53.0317   57.8616   65.6823 H         1 AGS500      0.0000 
     42 H          55.3434   51.0535   66.0398 H         1 AGS500      0.0000 
     43 H          52.8451   51.6672   66.6050 H         1 AGS500      0.0000 
@<TRIPOS>BOND
     1    2    1 1    
     2    3    1 ar   
     3    4    1 ar   
     4    8    1 1    
     5    6    5 ar   
     6    7    5 ar   
     7    8    5 1    
     8   12    5 1    
     9   10    9 ar   
    10   11    9 ar   
    11   12    9 1    
    12   13    9 1    
    13   14   13 1    
    14   15   14 1    
    15   32   14 1    
    16   33   14 1    
    17   16   15 1    
    18   17   15 1    
    19   34   15 1    
    20   21   16 1    
    21   18   17 1    
    22   19   17 1    
    23   35   17 1    
    24   42   18 1    
    25   20   19 1    
    26   21   19 1    
    27   36   19 1    
    28   43   20 1    
    29   22   21 1    
    30   37   21 1    
    31   23   22 1    
    32   31   22 1    
    33   24   23 2    
    34   38   23 1    
    35   25   24 1    
    36   26   25 ar   
    37   31   25 ar   
    38   27   26 1    
    39   28   26 ar   
    40   39   27 1    
    41   40   27 1    
    42   29   28 ar   
    43   30   29 ar   
    44   41   29 1    
    45   31   30 ar   
@<TRIPOS>SUBSTRUCTURE
     1 AGS500      1 GROUP   
@<TRIPOS>SET

