#    Name: 2ji9_TPW_1_INTS_M
#    Modification time : Tue Mar 25 20:53:14 2014

@<TRIPOS>MOLECULE
2ji9_TPW_1_INTS_M
   84     0    12     0     0
SMALL
NO_CHARGES


@<TRIPOS>ATOM
      1 CA         68.3510   -3.1990   -2.5230 C.3       4 GLC5        0.0000 
      2 CA         68.4000   -4.1480   -4.2310 C.3      12 GLL5        0.0000 
      3 CA         68.3020   -2.2500   -0.8150 C.3       8 GLP5        0.0000 
      4 CA         68.2290   -4.9850   -6.0210 C.3       4 GLC5        0.0000 
      5 CA         68.0580   -5.8220   -7.8110 C.3       8 GLP5        0.0000 
      6 CA         75.8605   -3.0535   -3.1070 C.3       4 GLC5        0.0000 
      7 CA         74.0950   -4.2810   -3.2210 C.3      12 GLL5        0.0000 
      8 CA         77.6260   -1.8260   -2.9930 C.3       8 GLP5        0.0000 
      9 CA         74.4570   -2.5870   -4.4815 C.3       4 GLC5        0.0000 
     10 CA         74.8190   -0.8930   -5.7420 C.3       8 GLP5        0.0000 
     11 CA         76.5715   -8.0975    0.6475 C.3       4 GLC5        0.0000 
     12 CA         75.3120   -6.9980   -0.4740 C.3      12 GLL5        0.0000 
     13 CA         77.8310   -9.1970    1.7690 C.3       8 GLP5        0.0000 
     14 CA         73.4625   -7.7260   -0.2520 C.3       4 GLC5        0.0000 
     15 CA         71.6130   -8.4540   -0.0300 C.3       8 GLP5        0.0000 
     16 CA         71.4760   -2.9395   -0.2460 C.3       4 GLC5        0.0000 
     17 CA         73.4550   -3.3880   -0.3390 C.3      12 GLL5        0.0000 
     18 CA         69.4970   -2.4910   -0.1530 C.3       8 GLP5        0.0000 
     19 CA         72.6055   -1.4610   -0.3905 C.3       4 GLC5        0.0000 
     20 CA         71.7560    0.4660   -0.4420 C.3       8 GLP5        0.0000 
     21 CA         73.0175   -7.0220    0.8560 C.3       4 GLC5        0.0000 
     22 CA         74.4220   -5.5900    1.7420 C.3      12 GLL5        0.0000 
     23 CA         76.6950   -7.7220    2.1455 C.3       4 GLC5        0.0000 
     24 CA         75.5590   -6.2470    2.5220 C.3      12 GLL5        0.0000 
     25 CA         77.4565   -6.1675    1.6050 C.3       4 GLC5        0.0000 
     26 CA         79.3540   -6.0880    0.6880 C.3       8 GLP5        0.0000 
     27 N          75.6805   -9.2830    3.5615 N.am      2 SEC2        0.0000 
     28 N          75.7350   -8.3420    4.8450 N.am     10 SEL2        0.0000 
     29 N          75.6260  -10.2240    2.2780 N.am      6 SEP2        0.0000 
     30 N          72.0280   -6.9585    4.2575 N.am      2 SEC2        0.0000 
     31 N          73.3870   -7.6880    4.2590 N.am     10 SEL2        0.0000 
     32 N          70.6690   -6.2290    4.2560 N.am      6 SEP2        0.0000 
     33 Zn         75.1160   -6.3765    7.0190 Zn        3 ZIC7        0.0000 
     34 Zn         74.4590   -6.5190    6.1850 Zn       11 ZIL7        0.0000 
     35 Zn         75.7730   -6.2340    7.8530 Zn        7 ZIP7        0.0000 
     36 N          73.1335   -5.8260    6.4140 N.am      2 SEC2        0.0000 
     37 N          74.4590   -6.5190    6.1850 N.am     10 SEL2        0.0000 
     38 N          71.8080   -5.1330    6.6430 N.am      6 SEP2        0.0000 
     39 N          78.2870   -9.9250    4.3445 N.am      2 SEC2        0.0000 
     40 N          78.2360   -8.6100    5.0670 N.am     10 SEL2        0.0000 
     41 N          78.3380  -11.2400    3.6220 N.am      6 SEP2        0.0000 
     42 N          79.5255   -9.1305    4.8740 N.am      2 SEC2        0.0000 
     43 N          80.8150   -9.6510    4.6810 N.am      6 SEP2        0.0000 
     44 Zn         76.3925   -6.8010    7.3445 Zn        3 ZIC7        0.0000 
     45 Zn         77.0120   -7.3680    6.8360 Zn       11 ZIL7        0.0000 
     46 N          77.9815   -7.1410    8.1530 N.am      2 SEC2        0.0000 
     47 N          77.0120   -7.3680    6.8360 N.am     10 SEL2        0.0000 
     48 N          78.9510   -6.9140    9.4700 N.am      6 SEP2        0.0000 
     49 N          77.9220   -6.2715    5.9010 N.am      2 SEC2        0.0000 
     50 N          78.8320   -5.1750    4.9660 N.am      6 SEP2        0.0000 
     51 N          77.5750  -10.0155    7.6645 N.am      2 SEC2        0.0000 
     52 N          76.8020   -9.8250    6.6120 N.am     10 SEL2        0.0000 
     53 N          78.3480  -10.2060    8.7170 N.am      6 SEP2        0.0000 
     54 N          76.7250  -11.2395    5.9915 N.am      2 SEC2        0.0000 
     55 N          76.6480  -12.6540    5.3710 N.am      6 SEP2        0.0000 
     56 N          75.9110   -9.0545    7.5245 N.am      2 SEC2        0.0000 
     57 N          75.0200   -8.2840    8.4370 N.am      6 SEP2        0.0000 
     58 CA         69.6700   -5.1365   -5.9355 C.3       4 GLC5        0.0000 
     59 CA         69.8690   -4.1820   -3.9710 C.3      12 GLL5        0.0000 
     60 CA         69.4710   -6.0910   -7.9000 C.3       8 GLP5        0.0000 
     61 N          69.8040   -6.6935   -3.3875 N.am      2 SEC2        0.0000 
     62 N          70.5780   -5.3480   -4.1670 N.am     10 SEL2        0.0000 
     63 N          69.0300   -8.0390   -2.6080 N.am      6 SEP2        0.0000 
     64 O          72.0710   -7.7840   -4.4980 O.2       1 ALC1        0.0000 
     65 O          72.6170   -6.5560   -4.1430 O.2       9 ALL1        0.0000 
     66 O          71.5250   -9.0120   -4.8530 O.2       5 ALP1        0.0000 
     67 CA         69.3948   -5.3950   -2.4010 C.3       4 GLC5        0.0000 
     68 CA         69.6550   -6.6250   -0.7010 C.3       8 GLP5        0.0000 
     69 CA         69.1713   -2.8395   -5.6015 C.3       4 GLC5        0.0000 
     70 CA         69.2080   -1.5140   -7.1020 C.3       8 GLP5        0.0000 
     71 CA         72.9273   -6.3087   -1.4183 C.3       4 GLC5        0.0000 
     72 CA         74.4210   -5.0770   -1.9810 C.3      12 GLL5        0.0000 
     73 CA         71.1200   -6.9290   -0.8250 C.3       8 GLP5        0.0000 
     74 CA         72.5114   -5.5975   -0.5555 C.3       4 GLC5        0.0000 
     75 CA         74.1400   -4.6790   -0.7060 C.3      12 GLL5        0.0000 
     76 CA         73.8652   -4.9973    3.3820 C.3       4 GLC5        0.0000 
     77 CA         72.7400   -4.0760    4.6320 C.3       8 GLP5        0.0000 
     78 CA         76.0911   -4.5151    2.1082 C.3       4 GLC5        0.0000 
     79 CA         77.1570   -3.1070    2.4600 C.3       8 GLP5        0.0000 
     80 CA         71.6970   -5.8822   -2.2707 C.3       4 GLC5        0.0000 
     81 CA         72.6020   -4.2650   -3.4930 C.3      12 GLL5        0.0000 
     82 CA         72.4200   -2.9894   -5.0921 C.3       4 GLC5        0.0000 
     83 CA         71.8780   -3.0900   -3.2940 C.3      12 GLL5        0.0000 
     84 CA         72.7640   -2.0160   -6.6790 C.3       8 GLP5        0.0000 
@<TRIPOS>BOND
@<TRIPOS>SUBSTRUCTURE
     1 ALC1       64 GROUP        1 X    ALC  0     ROOT ALC X 1
     2 SEC2       27 GROUP        1 X    SEC  0     **** SEC X 2
     3 ZIC7       33 GROUP        1 X    ZIC  0     **** ZIC X 5
     4 GLC5        1 GROUP        1 X    GLC  0     **** GLC X 6
     5 ALP1       66 GROUP        1 Y    ALP  0     ROOT ALP Y 8
     6 SEP2       29 GROUP        1 Y    SEP  0     **** SEP Y 9
     7 ZIP7       35 GROUP        1 Y    ZIP  0     **** ZIP Y 12
     8 GLP5        3 GROUP        1 Y    GLP  0     **** GLP Y 13
     9 ALL1       65 GROUP        1 Z    ALL  0     ROOT ALL Z 15
    10 SEL2       28 GROUP        1 Z    SEL  0     **** SEL Z 16
    11 ZIL7       34 GROUP        1 Z    ZIL  0     **** ZIL Z 19
    12 GLL5        2 GROUP        1 Z    GLL  0     **** GLL Z 20
@<TRIPOS>SET

