#    Name: 2ji9_TPW_1_ligand
#    Modification time : Tue Mar 25 20:53:14 2014

@<TRIPOS>MOLECULE
2ji9_TPW_1_ligand
   42    43     1     0     0
SMALL
NO_CHARGES


@<TRIPOS>ATOM
      1 C2A        68.4000   -4.1480   -4.2310 C.3       1 TPW1554     0.0000 
      2 C35        74.0950   -4.2810   -3.2210 C.3       1 TPW1554     0.0000 
      3 C2         75.0480   -6.3000   -2.0420 C.2       1 TPW1554     0.0000 
      4 S1         75.3120   -6.9980   -0.4740 S.3       1 TPW1554     0.0000 
      5 C5         74.5610   -5.6090    0.2400 C.2       1 TPW1554     0.0000 
      6 C4         74.1400   -4.6790   -0.7060 C.2       1 TPW1554     0.0000 
      7 C4A        73.4550   -3.3880   -0.3390 C.3       1 TPW1554     0.0000 
      8 C5A        74.4220   -5.5900    1.7420 C.3       1 TPW1554     0.0000 
      9 C5B        75.5590   -6.2470    2.5220 C.3       1 TPW1554     0.0000 
     10 O5G        75.3490   -6.0150    3.8970 O.3       1 TPW1554     0.0000 
     11 P1         74.6640   -7.1310    4.8310 P.3       1 TPW1554     0.0000 
     12 O11        75.7350   -8.3420    4.8450 O.3       1 TPW1554     0.0000 
     13 O12        73.3870   -7.6880    4.2590 O.co2     1 TPW1554     0.0000 
     14 O13        74.4590   -6.5190    6.1850 O.co2     1 TPW1554     0.0000 
     15 P2         76.9660   -8.5210    5.8700 P.3       1 TPW1554     0.0000 
     16 O21        78.2360   -8.6100    5.0670 O.co2     1 TPW1554     0.0000 
     17 O22        77.0120   -7.3680    6.8360 O.co2     1 TPW1554     0.0000 
     18 O23        76.8020   -9.8250    6.6120 O.co2     1 TPW1554     0.0000 
     19 N1'        70.5170   -3.0540   -3.5280 N.ar      1 TPW1554     0.0000 
     20 C2'        69.8690   -4.1820   -3.9710 C.ar      1 TPW1554     0.0000 
     21 N3'        70.5780   -5.3480   -4.1670 N.ar      1 TPW1554     0.0000 
     22 C4'        71.9460   -5.4060   -3.9400 C.ar      1 TPW1554     0.0000 
     23 N4'        72.6170   -6.5560   -4.1430 N.pl3     1 TPW1554     0.0000 
     24 C5'        72.6020   -4.2650   -3.4930 C.ar      1 TPW1554     0.0000 
     25 C6'        71.8780   -3.0900   -3.2940 C.ar      1 TPW1554     0.0000 
     26 C3         74.4210   -5.0770   -1.9810 C.2       1 TPW1554     0.0000 
     27 H          74.4484   -3.2525   -3.0979 H         1 TPW1554     0.0000 
     28 H          74.6119   -4.7175   -4.0813 H         1 TPW1554     0.0000 
     29 H          75.3620   -6.8363   -2.7360 H         1 TPW1554     0.0000 
     30 H          73.4682   -6.0873    2.0262 H         1 TPW1554     0.0000 
     31 H          74.3235   -4.5365    2.0857 H         1 TPW1554     0.0000 
     32 H          76.4975   -5.8140    2.1659 H         1 TPW1554     0.0000 
     33 H          75.5571   -7.3119    2.2750 H         1 TPW1554     0.0000 
     34 H          73.6024   -6.5260   -3.9752 H         1 TPW1554     0.0000 
     35 H          72.0701   -7.3374   -4.4435 H         1 TPW1554     0.0000 
     36 H          72.3695   -2.2412   -2.9683 H         1 TPW1554     0.0000 
     37 H          68.1622   -3.4744   -4.9308 H         1 TPW1554     0.0000 
     38 H          68.0583   -5.0328   -4.5477 H         1 TPW1554     0.0000 
     39 H          67.8827   -3.9114   -3.4086 H         1 TPW1554     0.0000 
     40 H          74.0305   -2.8150    0.2444 H         1 TPW1554     0.0000 
     41 H          73.2260   -2.8461   -1.1477 H         1 TPW1554     0.0000 
     42 H          72.6019   -3.5483    0.1576 H         1 TPW1554     0.0000 
@<TRIPOS>BOND
     1   20    1 1    
     2   37    1 1    
     3   38    1 1    
     4   39    1 1    
     5   24    2 1    
     6   26    2 1    
     7   27    2 1    
     8   28    2 1    
     9    4    3 1    
    10   26    3 2    
    11   29    3 1    
    12    5    4 1    
    13    6    5 2    
    14    8    5 1    
    15    7    6 1    
    16   26    6 1    
    17   40    7 1    
    18   41    7 1    
    19   42    7 1    
    20    9    8 1    
    21   30    8 1    
    22   31    8 1    
    23   10    9 1    
    24   32    9 1    
    25   33    9 1    
    26   11   10 1    
    27   12   11 1    
    28   13   11 ar   
    29   14   11 ar   
    30   15   12 1    
    31   16   15 ar   
    32   17   15 ar   
    33   18   15 ar   
    34   20   19 ar   
    35   25   19 ar   
    36   21   20 ar   
    37   22   21 ar   
    38   23   22 1    
    39   24   22 ar   
    40   34   23 1    
    41   35   23 1    
    42   25   24 ar   
    43   36   25 1    
@<TRIPOS>SUBSTRUCTURE
     1 TPW1554     1 GROUP   
@<TRIPOS>SET

