#    Name: 3roc_29A_1_INTS_M
#    Modification time : Tue Mar 25 11:45:21 2014

@<TRIPOS>MOLECULE
3roc_29A_1_INTS_M
   80     0     6     0     0
SMALL
NO_CHARGES


@<TRIPOS>ATOM
      1 CA         40.2890   38.5380   16.1880 C.3       2 GLC5        0.0000 
      2 CA         38.7510   37.4070   16.7260 C.3       6 GLL5        0.0000 
      3 CA         41.8270   39.6690   15.6500 C.3       4 GLP5        0.0000 
      4 CA         37.1030   34.7100   17.2535 C.3       2 GLC5        0.0000 
      5 CA         36.1010   36.5780   17.0020 C.3       6 GLL5        0.0000 
      6 CA         38.1050   32.8420   17.5050 C.3       4 GLP5        0.0000 
      7 CA         37.3985   35.2900   20.7385 C.3       2 GLC5        0.0000 
      8 CA         36.2810   36.6050   19.5050 C.3       6 GLL5        0.0000 
      9 CA         38.5160   33.9750   21.9720 C.3       4 GLP5        0.0000 
     10 CA         33.6185   37.2470   20.7030 C.3       2 GLC5        0.0000 
     11 CA         35.4370   38.2350   21.1970 C.3       6 GLL5        0.0000 
     12 CA         31.8000   36.2590   20.2090 C.3       4 GLP5        0.0000 
     13 CA         36.8000   38.3880   27.5815 C.3       2 GLC5        0.0000 
     14 CA         34.9860   39.4880   27.4900 C.3       6 GLL5        0.0000 
     15 CA         38.6140   37.2880   27.6730 C.3       4 GLP5        0.0000 
     16 CA         36.9745   38.1350   26.1775 C.3       2 GLC5        0.0000 
     17 CA         35.2770   39.3840   26.1350 C.3       6 GLL5        0.0000 
     18 CA         38.6720   36.8860   26.2200 C.3       4 GLP5        0.0000 
     19 CA         36.6260   40.7500   25.2430 C.3       2 GLC5        0.0000 
     20 CA         37.9750   42.1160   24.3510 C.3       4 GLP5        0.0000 
     21 CA         39.1100   36.7860   20.9570 C.3       2 GLC5        0.0000 
     22 CA         38.9780   37.3920   19.0810 C.3       6 GLL5        0.0000 
     23 CA         39.2420   36.1800   22.8330 C.3       4 GLP5        0.0000 
     24 CA         40.8725   37.5840   19.3005 C.3       2 GLC5        0.0000 
     25 CA         42.7670   37.7760   19.5200 C.3       4 GLP5        0.0000 
     26 CA         38.8860   37.8795   12.9095 C.3       2 GLC5        0.0000 
     27 CA         38.4470   37.4370   14.3820 C.3       6 GLL5        0.0000 
     28 CA         39.3250   38.3220   11.4370 C.3       4 GLP5        0.0000 
     29 CA         40.1370   38.5530   15.0160 C.3       2 GLC5        0.0000 
     30 CA         37.9610   39.2935   15.2230 C.3       2 GLC5        0.0000 
     31 CA         37.4750   41.1500   16.0640 C.3       4 GLP5        0.0000 
     32 CA         37.1240   40.4115   20.7535 C.3       2 GLC5        0.0000 
     33 CA         35.3180   40.8440   20.4400 C.3       6 GLL5        0.0000 
     34 CA         38.9300   39.9790   21.0670 C.3       4 GLP5        0.0000 
     35 CA         34.0210   40.7495   18.9445 C.3       2 GLC5        0.0000 
     36 CA         32.7240   40.6550   17.4490 C.3       4 GLP5        0.0000 
     37 CA         36.2400   40.7230   18.9275 C.3       2 GLC5        0.0000 
     38 CA         37.1620   40.6020   17.4150 C.3       4 GLP5        0.0000 
     39 CA         36.3260   42.4210   21.1455 C.3       2 GLC5        0.0000 
     40 CA         37.3340   43.9980   21.8510 C.3       4 GLP5        0.0000 
     41 CA         33.9380   42.2665   20.6650 C.3       2 GLC5        0.0000 
     42 CA         32.5580   43.6890   20.8900 C.3       4 GLP5        0.0000 
     43 N          34.8110   42.4405   22.9810 N.am      1 SEC2        0.0000 
     44 N          34.5910   41.0350   23.3560 N.am      5 SEL2        0.0000 
     45 N          35.0310   43.8460   22.6060 N.am      3 SEP2        0.0000 
     46 N          34.3645   42.1115   24.2500 N.am      1 SEC2        0.0000 
     47 N          34.1380   43.1880   25.1440 N.am      3 SEP2        0.0000 
     48 CA         30.1305   37.8730   25.4075 C.3       2 GLC5        0.0000 
     49 CA         31.9470   37.9380   24.7980 C.3       6 GLL5        0.0000 
     50 CA         28.3140   37.8080   26.0170 C.3       4 GLP5        0.0000 
     51 CA         38.0180   38.8005   29.2715 C.3       2 GLC5        0.0000 
     52 CA         36.6350   39.0280   30.6490 C.3       6 GLL5        0.0000 
     53 CA         39.4010   38.5730   27.8940 C.3       4 GLP5        0.0000 
     54 CA         37.3410   37.4490   29.2590 C.3       2 GLC5        0.0000 
     55 CA         36.0680   37.6100   30.8450 C.3       6 GLL5        0.0000 
     56 CA         38.7645   38.6355   19.8002 C.3       2 GLC5        0.0000 
     57 CA         38.2200   37.1920   17.9860 C.3       6 GLL5        0.0000 
     58 CA         37.7578   38.9555   16.7900 C.3       2 GLC5        0.0000 
     59 CA         37.9560   37.2110   15.6040 C.3       6 GLL5        0.0000 
     60 CA         36.7640   38.6423   16.8930 C.3       2 GLC5        0.0000 
     61 CA         36.6310   36.7870   15.7400 C.3       6 GLL5        0.0000 
     62 CA         35.3471   37.9967   15.7950 C.3       2 GLC5        0.0000 
     63 CA         33.9970   39.2050   15.2530 C.3       4 GLP5        0.0000 
     64 CA         37.1235   39.4357   21.2242 C.3       2 GLC5        0.0000 
     65 CA         34.5320   41.1035   26.1375 C.3       2 GLC5        0.0000 
     66 CA         34.3650   38.8340   25.2370 C.3       6 GLL5        0.0000 
     67 CA         34.2430   43.0980   26.5890 C.3       4 GLP5        0.0000 
     68 CA         34.3008   41.1750   27.1520 C.3       2 GLC5        0.0000 
     69 CA         33.7310   39.0160   27.9400 C.3       6 GLL5        0.0000 
     70 CA         32.6767   40.3240   27.6145 C.3       2 GLC5        0.0000 
     71 CA         30.9950   41.3960   27.5140 C.3       4 GLP5        0.0000 
     72 CA         39.3351   35.7226   18.2263 C.3       2 GLC5        0.0000 
     73 CA         36.8870   36.7870   18.1310 C.3       6 GLL5        0.0000 
     74 CA         40.1050   34.1500   18.2160 C.3       4 GLP5        0.0000 
     75 CA         37.7139   38.8964   17.9924 C.3       2 GLC5        0.0000 
     76 CA         37.3181   36.1615   13.5675 C.3       2 GLC5        0.0000 
     77 CA         36.7660   35.1050   12.1080 C.3       4 GLP5        0.0000 
     78 CA         39.6471   36.4510   14.6172 C.3       2 GLC5        0.0000 
     79 CA         40.8940   35.5290   13.9610 C.3       4 GLP5        0.0000 
     80 CA         31.7235   39.7869   26.5532 C.3       2 GLC5        0.0000 
@<TRIPOS>BOND
@<TRIPOS>SUBSTRUCTURE
     1 SEC2       43 GROUP        1 X    SEC  0     ROOT SEC X 2
     2 GLC5        1 GROUP        1 X    GLC  0     **** GLC X 6
     3 SEP2       45 GROUP        1 Y    SEP  0     ROOT SEP Y 9
     4 GLP5        3 GROUP        1 Y    GLP  0     **** GLP Y 13
     5 SEL2       44 GROUP        1 Z    SEL  0     ROOT SEL Z 16
     6 GLL5        2 GROUP        1 Z    GLL  0     **** GLL Z 20
@<TRIPOS>SET

