#    Name: 3roc_29A_1_ligand
#    Modification time : Tue Mar 25 11:45:21 2014

@<TRIPOS>MOLECULE
3roc_29A_1_ligand
   49    51     1     0     0
SMALL
NO_CHARGES


@<TRIPOS>ATOM
      1 C1         36.8870   36.7870   18.1310 C.ar      1 29A401      0.0000 
      2 C2         38.2200   37.1920   17.9860 C.ar      1 29A401      0.0000 
      3 C3         38.7510   37.4070   16.7260 C.ar      1 29A401      0.0000 
      4 C4         37.9560   37.2110   15.6040 C.ar      1 29A401      0.0000 
      5 C5         36.6310   36.7870   15.7400 C.ar      1 29A401      0.0000 
      6 C6         36.1010   36.5780   17.0020 C.ar      1 29A401      0.0000 
      7 C7         36.2810   36.6050   19.5050 C.3       1 29A401      0.0000 
      8 O8         35.7810   37.9510   19.9070 O.3       1 29A401      0.0000 
      9 C9         35.4370   38.2350   21.1970 C.2       1 29A401      0.0000 
     10 C10        35.1970   39.5500   21.5660 C.2       1 29A401      0.0000 
     11 C11        34.8120   39.8480   23.0070 C.2       1 29A401      0.0000 
     12 N12        34.7280   38.7530   23.8450 N.am      1 29A401      0.0000 
     13 C13        35.0240   37.3930   23.2710 C.2       1 29A401      0.0000 
     14 N14        35.3470   37.2420   22.0290 N.2       1 29A401      0.0000 
     15 C15        34.3650   38.8340   25.2370 C.ar      1 29A401      0.0000 
     16 C16        33.1060   38.3730   25.7090 C.ar      1 29A401      0.0000 
     17 C17        32.8080   38.4620   27.0650 C.ar      1 29A401      0.0000 
     18 C18        33.7310   39.0160   27.9400 C.ar      1 29A401      0.0000 
     19 C19        34.9860   39.4880   27.4900 C.ar      1 29A401      0.0000 
     20 C20        35.2770   39.3840   26.1350 C.ar      1 29A401      0.0000 
     21 F21        38.9780   37.3920   19.0810 F         1 29A401      0.0000 
     22 F22        38.4470   37.4370   14.3820 F         1 29A401      0.0000 
     23 CL23       35.3180   40.8440   20.4400 Cl        1 29A401      0.0000 
     24 O24        34.5910   41.0350   23.3560 O.2       1 29A401      0.0000 
     25 C25        31.9470   37.9380   24.7980 C.3       1 29A401      0.0000 
     26 C26        35.9450   40.0840   28.4960 C.2       1 29A401      0.0000 
     27 O27        36.8810   40.7910   28.1070 O.2       1 29A401      0.0000 
     28 N28        35.7400   39.8540   29.8120 N.am      1 29A401      0.0000 
     29 C29        36.6350   39.0280   30.6490 C.3       1 29A401      0.0000 
     30 C30        36.0680   37.6100   30.8450 C.3       1 29A401      0.0000 
     31 O31        34.6420   37.6370   30.8830 O.3       1 29A401      0.0000 
     32 H          39.7263   37.7095   16.6190 H         1 29A401      0.0000 
     33 H          36.0571   36.6326   14.9027 H         1 29A401      0.0000 
     34 H          35.1252   36.2678   17.1082 H         1 29A401      0.0000 
     35 H          37.0372   36.2676   20.1884 H         1 29A401      0.0000 
     36 H          35.4682   35.9058   19.4485 H         1 29A401      0.0000 
     37 H          34.9420   36.6196   23.9612 H         1 29A401      0.0000 
     38 H          31.9056   38.1176   27.4160 H         1 29A401      0.0000 
     39 H          33.5069   39.0909   28.9485 H         1 29A401      0.0000 
     40 H          36.1927   39.7229   25.7833 H         1 29A401      0.0000 
     41 H          34.9149   40.2613   30.3142 H         1 29A401      0.0000 
     42 H          36.7661   39.4821   31.6372 H         1 29A401      0.0000 
     43 H          37.6231   38.9386   30.1846 H         1 29A401      0.0000 
     44 H          36.4952   37.2120   31.7764 H         1 29A401      0.0000 
     45 H          36.4441   36.9895   30.0192 H         1 29A401      0.0000 
     46 H          32.2053   37.1729   24.2082 H         1 29A401      0.0000 
     47 H          31.1496   37.6452   25.3257 H         1 29A401      0.0000 
     48 H          31.6460   38.6806   24.1998 H         1 29A401      0.0000 
     49 H          34.4146   38.0591   31.7605 H         1 29A401      0.0000 
@<TRIPOS>BOND
     1    2    1 ar   
     2    6    1 ar   
     3    7    1 1    
     4    3    2 ar   
     5   21    2 1    
     6    4    3 ar   
     7   32    3 1    
     8    5    4 ar   
     9   22    4 1    
    10    6    5 ar   
    11   33    5 1    
    12   34    6 1    
    13    8    7 1    
    14   35    7 1    
    15   36    7 1    
    16    9    8 1    
    17   10    9 2    
    18   14    9 1    
    19   11   10 1    
    20   23   10 1    
    21   12   11 am   
    22   24   11 2    
    23   13   12 1    
    24   15   12 1    
    25   14   13 2    
    26   37   13 1    
    27   16   15 ar   
    28   20   15 ar   
    29   17   16 ar   
    30   25   16 1    
    31   18   17 ar   
    32   38   17 1    
    33   19   18 ar   
    34   39   18 1    
    35   20   19 ar   
    36   26   19 1    
    37   40   20 1    
    38   46   25 1    
    39   47   25 1    
    40   48   25 1    
    41   27   26 2    
    42   28   26 am   
    43   29   28 1    
    44   41   28 1    
    45   30   29 1    
    46   42   29 1    
    47   43   29 1    
    48   31   30 1    
    49   44   30 1    
    50   45   30 1    
    51   49   31 1    
@<TRIPOS>SUBSTRUCTURE
     1 29A401      1 GROUP   
@<TRIPOS>SET

