#    Name: 1pbq_DK1_1_INTS_M
#    Modification time : Mon Mar 24 21:14:36 2014

@<TRIPOS>MOLECULE
1pbq_DK1_1_INTS_M
   43     0     9     0     0
SMALL
NO_CHARGES


@<TRIPOS>ATOM
      1 NZ          7.1430   33.7580  -20.3490 N.4       2 LYC4        0.0000 
      2 NZ          6.3810   34.7180  -19.5990 N.4       8 LYL4        0.0000 
      3 NZ          8.5290   31.8030  -20.4840 N.4       5 LYP4        0.0000 
      4 N           6.1020   35.0545  -20.9820 N.am      1 SEC2        0.0000 
      5 N           6.3810   34.7180  -19.5990 N.am      7 SEL2        0.0000 
      6 N           5.8230   35.3910  -22.3650 N.am      4 SEP2        0.0000 
      7 N           7.1430   33.7580  -20.3490 N.am      1 SEC2        0.0000 
      8 N           7.9050   32.7980  -21.0990 N.am      4 SEP2        0.0000 
      9 NZ          7.9295   33.5330  -19.5975 N.4       2 LYC4        0.0000 
     10 NZ          7.9540   34.2680  -18.0960 N.4       8 LYL4        0.0000 
     11 N           7.9295   33.5330  -19.5975 N.am      1 SEC2        0.0000 
     12 N           7.9540   34.2680  -18.0960 N.am      7 SEL2        0.0000 
     13 N           8.2285   32.9955  -18.6250 N.am      1 SEC2        0.0000 
     14 N           8.5030   31.7230  -19.1540 N.am      4 SEP2        0.0000 
     15 CA          6.1425   34.1190  -17.2135 C.3       3 GLC5        0.0000 
     16 CA          6.5880   36.1440  -17.7170 C.3       9 GLL5        0.0000 
     17 CA          5.6970   32.0940  -16.7100 C.3       6 GLP5        0.0000 
     18 CA          1.4095   39.6820  -16.7200 C.3       3 GLC5        0.0000 
     19 CA          2.1810   40.7420  -18.1170 C.3       9 GLL5        0.0000 
     20 CA          0.6380   38.6220  -15.3230 C.3       6 GLP5        0.0000 
     21 CA          0.8375   41.4985  -18.8125 C.3       3 GLC5        0.0000 
     22 CA         -0.5060   42.2550  -19.5080 C.3       6 GLP5        0.0000 
     23 CA          1.3885   39.1625  -18.5590 C.3       3 GLC5        0.0000 
     24 CA          0.5960   37.5830  -19.0010 C.3       6 GLP5        0.0000 
     25 CA          2.1330   42.2435  -16.6625 C.3       3 GLC5        0.0000 
     26 CA          2.0850   43.7450  -15.2080 C.3       6 GLP5        0.0000 
     27 CA          3.0695   40.6320  -19.7695 C.3       3 GLC5        0.0000 
     28 CA          3.9580   40.5220  -21.4220 C.3       6 GLP5        0.0000 
     29 CA          3.0800   42.0355  -15.7370 C.3       3 GLC5        0.0000 
     30 CA          4.0750   40.3260  -16.2660 C.3       9 GLL5        0.0000 
     31 CA          6.2455   40.8880  -12.8775 C.3       3 GLC5        0.0000 
     32 CA          5.7330   40.3200  -14.2550 C.3       9 GLL5        0.0000 
     33 CA          6.7580   41.4560  -11.5000 C.3       6 GLP5        0.0000 
     34 CA          2.1635   38.4427  -18.3995 C.3       3 GLC5        0.0000 
     35 CA          3.5000   39.8680  -17.4640 C.3       9 GLL5        0.0000 
     36 CA          4.6982   41.8475  -16.9800 C.3       3 GLC5        0.0000 
     37 CA          5.6090   43.5980  -17.0950 C.3       6 GLP5        0.0000 
     38 CA          2.2705   39.2181  -16.1775 C.3       3 GLC5        0.0000 
     39 CA          5.5210   41.7878  -16.0380 C.3       3 GLC5        0.0000 
     40 CA          5.1330   39.6350  -15.7070 C.3       9 GLL5        0.0000 
     41 CA          9.0265   37.0300  -15.9385 C.3       3 GLC5        0.0000 
     42 CA          6.8160   37.6290  -15.7600 C.3       9 GLL5        0.0000 
     43 CA         11.0370   37.0090  -15.7260 C.3       6 GLP5        0.0000 
@<TRIPOS>BOND
@<TRIPOS>SUBSTRUCTURE
     1 SEC2        4 GROUP        1 X    SEC  0     ROOT SEC X 2
     2 LYC4        1 GROUP        1 X    LYC  0     **** LYC X 4
     3 GLC5       15 GROUP        1 X    GLC  0     **** GLC X 6
     4 SEP2        6 GROUP        1 Y    SEP  0     ROOT SEP Y 9
     5 LYP4        3 GROUP        1 Y    LYP  0     **** LYP Y 11
     6 GLP5       17 GROUP        1 Y    GLP  0     **** GLP Y 13
     7 SEL2        5 GROUP        1 Z    SEL  0     ROOT SEL Z 16
     8 LYL4        2 GROUP        1 Z    LYL  0     **** LYL Z 18
     9 GLL5       16 GROUP        1 Z    GLL  0     **** GLL Z 20
@<TRIPOS>SET

