#    Name: 1pbq_DK1_1_ligand
#    Modification time : Mon Mar 24 21:14:36 2014

@<TRIPOS>MOLECULE
1pbq_DK1_1_ligand
   20    21     1     0     0
SMALL
NO_CHARGES


@<TRIPOS>ATOM
      1 O1          6.3810   34.7180  -19.5990 O.co2     1 DK11001     0.0000 
      2 C2          6.9650   34.9610  -18.5750 C.2       1 DK11001     0.0000 
      3 O2          7.9540   34.2680  -18.0960 O.co2     1 DK11001     0.0000 
      4 C1          6.5880   36.1440  -17.7170 C.ar      1 DK11001     0.0000 
      5 N1          5.5390   36.8930  -18.2050 N.ar      1 DK11001     0.0000 
      6 C10         5.0630   38.0240  -17.5460 C.ar      1 DK11001     0.0000 
      7 C9          3.9620   38.7370  -18.1320 C.ar      1 DK11001     0.0000 
      8 C8          3.5000   39.8680  -17.4640 C.ar      1 DK11001     0.0000 
      9 CL2         2.1810   40.7420  -18.1170 Cl        1 DK11001     0.0000 
     10 C7          4.0750   40.3260  -16.2660 C.ar      1 DK11001     0.0000 
     11 C6          5.1330   39.6350  -15.7070 C.ar      1 DK11001     0.0000 
     12 CL1         5.7330   40.3200  -14.2550 Cl        1 DK11001     0.0000 
     13 C5          5.6880   38.4370  -16.3070 C.ar      1 DK11001     0.0000 
     14 C4          6.8160   37.6290  -15.7600 C.ar      1 DK11001     0.0000 
     15 O3          7.4080   37.8950  -14.6970 O.3       1 DK11001     0.0000 
     16 C3          7.2160   36.4730  -16.5420 C.ar      1 DK11001     0.0000 
     17 H           3.5557   38.4155  -18.9906 H         1 DK11001     0.0000 
     18 H           3.7036   41.1696  -15.8175 H         1 DK11001     0.0000 
     19 H           7.9980   35.9043  -16.1754 H         1 DK11001     0.0000 
     20 H           7.8619   37.0437  -14.4337 H         1 DK11001     0.0000 
@<TRIPOS>BOND
     1    2    1 ar   
     2    3    2 ar   
     3    4    2 1    
     4    5    4 ar   
     5   16    4 ar   
     6    6    5 ar   
     7    7    6 ar   
     8   13    6 ar   
     9    8    7 ar   
    10   17    7 1    
    11    9    8 1    
    12   10    8 ar   
    13   11   10 ar   
    14   18   10 1    
    15   12   11 1    
    16   13   11 ar   
    17   14   13 ar   
    18   15   14 1    
    19   16   14 ar   
    20   20   15 1    
    21   19   16 1    
@<TRIPOS>SUBSTRUCTURE
     1 DK11001     1 GROUP   
@<TRIPOS>SET

