#    Name: 4a9j_TYL_3_INTS_M
#    Modification time : Tue Mar 25 05:18:53 2014

@<TRIPOS>MOLECULE
4a9j_TYL_3_INTS_M
   18     0     6     0     0
SMALL
NO_CHARGES


@<TRIPOS>ATOM
      1 CA          0.0565   11.8425   23.5335 C.3       2 GLC5        0.0000 
      2 CA         -1.1250   10.4130   22.7270 C.3       6 GLL5        0.0000 
      3 CA          1.2380   13.2720   24.3400 C.3       4 GLP5        0.0000 
      4 CA         -2.4080    9.9380   21.5645 C.3       2 GLC5        0.0000 
      5 CA         -3.6910    9.4630   20.4020 C.3       4 GLP5        0.0000 
      6 CA          0.6075    9.7840   23.1095 C.3       2 GLC5        0.0000 
      7 CA          2.3400    9.1550   23.4920 C.3       4 GLP5        0.0000 
      8 N          -0.9945    7.6990   25.1840 N.am      1 SEC2        0.0000 
      9 N          -1.4040    8.3380   23.8740 N.am      5 SEL2        0.0000 
     10 N          -0.5850    7.0600   26.4940 N.am      3 SEP2        0.0000 
     11 CA         -0.1356    5.9979   19.3511 C.3       2 GLC5        0.0000 
     12 CA          0.1150    6.9510   21.8070 C.3       6 GLL5        0.0000 
     13 CA         -1.1990    5.9730   17.7900 C.3       4 GLP5        0.0000 
     14 CA         -1.4195    4.5510   21.4780 C.3       2 GLC5        0.0000 
     15 CA          0.9730    4.3140   21.4960 C.3       6 GLL5        0.0000 
     16 CA         -3.0060    3.8660   20.5680 C.3       4 GLP5        0.0000 
     17 CA          1.2381    7.7649   22.7459 C.3       2 GLC5        0.0000 
     18 CA         -0.2420    5.9790   22.7360 C.3       6 GLL5        0.0000 
@<TRIPOS>BOND
@<TRIPOS>SUBSTRUCTURE
     1 SEC2        8 GROUP        1 X    SEC  0     ROOT SEC X 2
     2 GLC5        1 GROUP        1 X    GLC  0     **** GLC X 6
     3 SEP2       10 GROUP        1 Y    SEP  0     ROOT SEP Y 9
     4 GLP5        3 GROUP        1 Y    GLP  0     **** GLP Y 13
     5 SEL2        9 GROUP        1 Z    SEL  0     ROOT SEL Z 16
     6 GLL5        2 GROUP        1 Z    GLL  0     **** GLL Z 20
@<TRIPOS>SET

