#    Name: 4a9j_TYL_3_ligand
#    Modification time : Tue Mar 25 05:18:53 2014

@<TRIPOS>MOLECULE
4a9j_TYL_3_ligand
   20    20     1     0     0
SMALL
NO_CHARGES


@<TRIPOS>ATOM
      1 C1          0.1150    6.9510   21.8070 C.ar      1 TYL1184     0.0000 
      2 C2          0.9140    6.5900   20.7200 C.ar      1 TYL1184     0.0000 
      3 C3          1.3410    5.2750   20.5610 C.ar      1 TYL1184     0.0000 
      4 C4          0.9730    4.3140   21.4960 C.ar      1 TYL1184     0.0000 
      5 C5          0.1790    4.6720   22.5840 C.ar      1 TYL1184     0.0000 
      6 C6         -0.2420    5.9790   22.7360 C.ar      1 TYL1184     0.0000 
      7 N          -0.2680    8.3130   21.9060 N.am      1 TYL1184     0.0000 
      8 C          -0.9590    8.9290   22.9020 C.2       1 TYL1184     0.0000 
      9 CM         -1.1250   10.4130   22.7270 C.3       1 TYL1184     0.0000 
     10 O4          1.3920    3.0280   21.3450 O.3       1 TYL1184     0.0000 
     11 O          -1.4040    8.3380   23.8740 O.2       1 TYL1184     0.0000 
     12 H           1.1889    7.3056   20.0303 H         1 TYL1184     0.0000 
     13 H           1.9244    5.0166   19.7577 H         1 TYL1184     0.0000 
     14 H          -0.0918    3.9561   23.2739 H         1 TYL1184     0.0000 
     15 H          -0.8281    6.2415   23.5465 H         1 TYL1184     0.0000 
     16 H           0.0422    8.9298   21.0622 H         1 TYL1184     0.0000 
     17 H          -0.2433   10.8826   22.6817 H         1 TYL1184     0.0000 
     18 H          -1.6188   10.6349   21.8862 H         1 TYL1184     0.0000 
     19 H          -1.6360   10.8213   23.4834 H         1 TYL1184     0.0000 
     20 H           2.3572    3.0983   21.0931 H         1 TYL1184     0.0000 
@<TRIPOS>BOND
     1    2    1 ar   
     2    6    1 ar   
     3    7    1 1    
     4    3    2 ar   
     5   12    2 1    
     6    4    3 ar   
     7   13    3 1    
     8    5    4 ar   
     9   10    4 1    
    10    6    5 ar   
    11   14    5 1    
    12   15    6 1    
    13    8    7 am   
    14   16    7 1    
    15    9    8 1    
    16   11    8 2    
    17   17    9 1    
    18   18    9 1    
    19   19    9 1    
    20   20   10 1    
@<TRIPOS>SUBSTRUCTURE
     1 TYL1184     1 GROUP   
@<TRIPOS>SET

