#    Name: 4e5w_0NT_2_INTS_M
#    Modification time : Mon Apr  7 23:26:57 2014

@<TRIPOS>MOLECULE
4e5w_0NT_2_INTS_M
   65     0     9     0     0
SMALL
NO_CHARGES


@<TRIPOS>ATOM
      1 CA         11.4120   10.0755    2.7920 C.3       3 GLC5        0.0000 
      2 CA         12.4650    9.8370    0.9480 C.3       9 GLL5        0.0000 
      3 CA         10.3590   10.3140    4.6360 C.3       6 GLP5        0.0000 
      4 O          14.7140   12.3220    0.7440 O.2       1 ALC1        0.0000 
      5 O          14.0280   11.5490    1.7550 O.2       7 ALL1        0.0000 
      6 O          15.4000   13.0950   -0.2670 O.2       4 ALP1        0.0000 
      7 CA         11.5470   11.2355    2.9710 C.3       3 GLC5        0.0000 
      8 CA         12.7350   12.1570    1.3060 C.3       9 GLL5        0.0000 
      9 CA         17.8330    7.1385   -0.3030 C.3       3 GLC5        0.0000 
     10 CA         16.2610    7.2620    0.6010 C.3       9 GLL5        0.0000 
     11 CA         19.4050    7.0150   -1.2070 C.3       6 GLP5        0.0000 
     12 CA         16.9255    7.3980    2.6960 C.3       3 GLC5        0.0000 
     13 CA         17.5900    7.5340    4.7910 C.3       6 GLP5        0.0000 
     14 CA         15.3165    5.4300   -2.2115 C.3       3 GLC5        0.0000 
     15 CA         15.6960    6.1510   -0.3060 C.3       9 GLL5        0.0000 
     16 CA         14.9370    4.7090   -4.1170 C.3       6 GLP5        0.0000 
     17 CA         17.1915    6.3215   -1.3790 C.3       3 GLC5        0.0000 
     18 CA         18.6870    6.4920   -2.4520 C.3       6 GLP5        0.0000 
     19 CA         13.5040    6.9795    4.0590 C.3       3 GLC5        0.0000 
     20 CA         14.2340    7.1360    2.0750 C.3       9 GLL5        0.0000 
     21 CA         12.7740    6.8230    6.0430 C.3       6 GLP5        0.0000 
     22 CA         15.9120    7.3350    3.4330 C.3       3 GLC5        0.0000 
     23 CA         14.9235    3.7760   -2.2165 C.3       3 GLC5        0.0000 
     24 CA         14.9100    2.8430   -0.3160 C.3       9 GLL5        0.0000 
     25 CA         18.0880    3.8840   -0.8860 C.3       3 GLC5        0.0000 
     26 CA         17.3250    2.7970    0.7880 C.3       9 GLL5        0.0000 
     27 CA         18.8510    4.9710   -2.5600 C.3       6 GLP5        0.0000 
     28 CA         18.4365    0.4575    2.3300 C.3       3 GLC5        0.0000 
     29 CA         18.1850    1.7670    0.8860 C.3       9 GLL5        0.0000 
     30 CA         18.6880   -0.8520    3.7740 C.3       6 GLP5        0.0000 
     31 O          18.3200   -0.6000    0.0950 O.2       1 ALC1        0.0000 
     32 O          17.6290    0.6480    0.3160 O.2       7 ALL1        0.0000 
     33 O          19.0110   -1.8480   -0.1260 O.2       4 ALP1        0.0000 
     34 CA         16.8595   -0.9735   -1.1690 C.3       3 GLC5        0.0000 
     35 CA         16.3850    0.9300   -0.1830 C.3       9 GLL5        0.0000 
     36 CA         17.3340   -2.8770   -2.1550 C.3       6 GLP5        0.0000 
     37 N          15.3260   -1.3195   -0.9320 N.am      2 SEC2        0.0000 
     38 N          15.4670    0.1830   -0.8150 N.am      8 SEL2        0.0000 
     39 N          15.1850   -2.8220   -1.0490 N.am      5 SEP2        0.0000 
     40 CA         14.1310   -1.3275   -0.8660 C.3       3 GLC5        0.0000 
     41 CA         14.3260    0.6840   -1.2590 C.3       9 GLL5        0.0000 
     42 CA         13.9360   -3.3390   -0.4730 C.3       6 GLP5        0.0000 
     43 CA         13.3180    9.8700   -1.1292 C.3       3 GLC5        0.0000 
     44 CA         14.3230    9.2310   -2.8670 C.3       6 GLP5        0.0000 
     45 CA         16.6099   12.6636    2.0199 C.3       3 GLC5        0.0000 
     46 CA         15.8880   11.4890    3.4480 C.3       9 GLL5        0.0000 
     47 CA         17.9960   13.1850    0.7550 C.3       6 GLP5        0.0000 
     48 CA         15.1507    7.9688   -1.3598 C.3       3 GLC5        0.0000 
     49 CA         13.7755    3.9838    1.8250 C.3       3 GLC5        0.0000 
     50 CA         14.8150    5.2190    0.5370 C.3       9 GLL5        0.0000 
     51 CA         13.3110    2.3780    2.7520 C.3       6 GLP5        0.0000 
     52 CA         15.1088    1.9070   -2.7580 C.3       3 GLC5        0.0000 
     53 CA         13.9850    2.0140   -0.9950 C.3       9 GLL5        0.0000 
     54 CA         16.0620    2.4650   -4.3890 C.3       6 GLP5        0.0000 
     55 CA         12.0518    0.9840   -0.7470 C.3       3 GLC5        0.0000 
     56 CA          9.9480    0.6190   -0.3670 C.3       6 GLP5        0.0000 
     57 CA         16.1625    2.0385   -2.2183 C.3       3 GLC5        0.0000 
     58 CA         16.1410    2.2940    0.0880 C.3       9 GLL5        0.0000 
     59 CA         19.6355    2.9105    0.6015 C.3       3 GLC5        0.0000 
     60 CA         21.5160    3.5390    0.3660 C.3       6 GLP5        0.0000 
     61 CA         18.1380    1.3031   -1.1027 C.3       3 GLC5        0.0000 
     62 CA         19.3540    1.0630   -2.4450 C.3       6 GLP5        0.0000 
     63 CA         16.0935    1.1851    1.7198 C.3       3 GLC5        0.0000 
     64 CA         15.2650    0.8270    3.2000 C.3       6 GLP5        0.0000 
     65 CA         13.8489    1.9671    0.8974 C.3       3 GLC5        0.0000 
@<TRIPOS>BOND
@<TRIPOS>SUBSTRUCTURE
     1 ALC1        4 GROUP        1 X    ALC  0     ROOT ALC X 1
     2 SEC2       37 GROUP        1 X    SEC  0     **** SEC X 2
     3 GLC5        1 GROUP        1 X    GLC  0     **** GLC X 6
     4 ALP1        6 GROUP        1 Y    ALP  0     ROOT ALP Y 8
     5 SEP2       39 GROUP        1 Y    SEP  0     **** SEP Y 9
     6 GLP5        3 GROUP        1 Y    GLP  0     **** GLP Y 13
     7 ALL1        5 GROUP        1 Z    ALL  0     ROOT ALL Z 15
     8 SEL2       38 GROUP        1 Z    SEL  0     **** SEL Z 16
     9 GLL5        2 GROUP        1 Z    GLL  0     **** GLL Z 20
@<TRIPOS>SET

