#    Name: 4e5w_0NT_2_ligand
#    Modification time : Mon Apr  7 23:26:57 2014

@<TRIPOS>MOLECULE
4e5w_0NT_2_ligand
   57    61     1     0     0
SMALL
NO_CHARGES


@<TRIPOS>ATOM
      1 C7         12.4650    9.8370    0.9480 C.3       1 0NT1202     0.0000 
      2 C2         14.4960   12.0320    3.0890 C.3       1 0NT1202     0.0000 
      3 C10        14.9580    9.3200    1.0890 C.2       1 0NT1202     0.0000 
      4 C6         12.1610   11.1810    0.2690 C.3       1 0NT1202     0.0000 
      5 C1         14.6230   13.5590    3.1540 C.3       1 0NT1202     0.0000 
      6 C3         15.8880   11.4890    3.4480 C.3       1 0NT1202     0.0000 
      7 N4         14.0280   11.5490    1.7550 N.4       1 0NT1202     0.0000 
      8 C5         12.7350   12.1570    1.3060 C.3       1 0NT1202     0.0000 
      9 C8         13.7880   10.0640    1.7240 C.3       1 0NT1202     0.0000 
     10 O11        15.7510    9.9630    0.4010 O.2       1 0NT1202     0.0000 
     11 N12        15.1300    7.9740    1.2500 N.am      1 0NT1202     0.0000 
     12 C13        16.2610    7.2620    0.6010 C.3       1 0NT1202     0.0000 
     13 C14        15.6960    6.1510   -0.3060 C.3       1 0NT1202     0.0000 
     14 C15        14.8150    5.2190    0.5370 C.3       1 0NT1202     0.0000 
     15 C16        13.6650    5.9600    1.2590 C.3       1 0NT1202     0.0000 
     16 C17        14.2340    7.1360    2.0750 C.3       1 0NT1202     0.0000 
     17 N18        14.2970    4.0660   -0.2070 N.pl3     1 0NT1202     0.0000 
     18 C19        13.0500    3.9610   -0.7680 C.2       1 0NT1202     0.0000 
     19 N20        12.8830    2.7660   -1.2490 N.2       1 0NT1202     0.0000 
     20 C21        13.9850    2.0140   -0.9950 C.ar      1 0NT1202     0.0000 
     21 C22        14.9100    2.8430   -0.3160 C.ar      1 0NT1202     0.0000 
     22 C23        16.1410    2.2940    0.0880 C.ar      1 0NT1202     0.0000 
     23 C24        17.3250    2.7970    0.7880 C.2       1 0NT1202     0.0000 
     24 C25        18.1850    1.7670    0.8860 C.2       1 0NT1202     0.0000 
     25 N26        17.6290    0.6480    0.3160 N.pl3     1 0NT1202     0.0000 
     26 C28        16.3850    0.9300   -0.1830 C.ar      1 0NT1202     0.0000 
     27 N29        15.4670    0.1830   -0.8150 N.ar      1 0NT1202     0.0000 
     28 C30        14.3260    0.6840   -1.2590 C.ar      1 0NT1202     0.0000 
     29 H          12.6146    9.0862    0.2116 H         1 0NT1202     0.0000 
     30 H          11.6918    9.5968    1.6356 H         1 0NT1202     0.0000 
     31 H          13.8164   11.7253    3.8702 H         1 0NT1202     0.0000 
     32 H          11.1260   11.3134    0.1902 H         1 0NT1202     0.0000 
     33 H          12.6977   11.2564   -0.6261 H         1 0NT1202     0.0000 
     34 H          14.7807   11.7698    0.9929 H         1 0NT1202     0.0000 
     35 H          12.0524   12.2368    2.1255 H         1 0NT1202     0.0000 
     36 H          12.9070   13.1029    0.8373 H         1 0NT1202     0.0000 
     37 H          13.6386    9.7134    2.7330 H         1 0NT1202     0.0000 
     38 H          16.9027    6.8040    1.3449 H         1 0NT1202     0.0000 
     39 H          16.8412    7.9427   -0.0114 H         1 0NT1202     0.0000 
     40 H          16.5132    5.5883   -0.7291 H         1 0NT1202     0.0000 
     41 H          15.1019    6.5984   -1.0873 H         1 0NT1202     0.0000 
     42 H          15.4735    4.8228    1.3618 H         1 0NT1202     0.0000 
     43 H          13.1634    5.2716    1.9244 H         1 0NT1202     0.0000 
     44 H          12.9702    6.3379    0.5223 H         1 0NT1202     0.0000 
     45 H          13.3935    7.7268    2.4527 H         1 0NT1202     0.0000 
     46 H          14.7736    6.7250    2.9340 H         1 0NT1202     0.0000 
     47 H          12.4088    4.7028   -0.7830 H         1 0NT1202     0.0000 
     48 H          17.4012    3.6808    1.0835 H         1 0NT1202     0.0000 
     49 H          19.0643    1.7942    1.2928 H         1 0NT1202     0.0000 
     50 H          18.0596   -0.2213    0.2736 H         1 0NT1202     0.0000 
     51 H          13.6541    0.1108   -1.8123 H         1 0NT1202     0.0000 
     52 H          14.8916   13.8709    4.0654 H         1 0NT1202     0.0000 
     53 H          15.3092   13.9022    2.5127 H         1 0NT1202     0.0000 
     54 H          13.7604   14.0132    2.9312 H         1 0NT1202     0.0000 
     55 H          16.5881   11.8114    2.8109 H         1 0NT1202     0.0000 
     56 H          16.1723   11.7724    4.3639 H         1 0NT1202     0.0000 
     57 H          15.9128   10.4895    3.4296 H         1 0NT1202     0.0000 
@<TRIPOS>BOND
     1    4    1 1    
     2    9    1 1    
     3   29    1 1    
     4   30    1 1    
     5    5    2 1    
     6    6    2 1    
     7    7    2 1    
     8   31    2 1    
     9    9    3 1    
    10   10    3 2    
    11   11    3 am   
    12    8    4 1    
    13   32    4 1    
    14   33    4 1    
    15   52    5 1    
    16   53    5 1    
    17   54    5 1    
    18   55    6 1    
    19   56    6 1    
    20   57    6 1    
    21    8    7 1    
    22    9    7 1    
    23   34    7 1    
    24   35    8 1    
    25   36    8 1    
    26   37    9 1    
    27   12   11 1    
    28   16   11 1    
    29   13   12 1    
    30   38   12 1    
    31   39   12 1    
    32   14   13 1    
    33   40   13 1    
    34   41   13 1    
    35   15   14 1    
    36   17   14 1    
    37   42   14 1    
    38   16   15 1    
    39   43   15 1    
    40   44   15 1    
    41   45   16 1    
    42   46   16 1    
    43   18   17 1    
    44   21   17 1    
    45   19   18 2    
    46   47   18 1    
    47   20   19 1    
    48   21   20 ar   
    49   28   20 ar   
    50   22   21 ar   
    51   23   22 1    
    52   26   22 ar   
    53   24   23 2    
    54   48   23 1    
    55   25   24 1    
    56   49   24 1    
    57   26   25 1    
    58   50   25 1    
    59   27   26 ar   
    60   28   27 ar   
    61   51   28 1    
@<TRIPOS>SUBSTRUCTURE
     1 0NT1202     1 GROUP   
@<TRIPOS>SET

