#    Name: 1hvr_XK2_1_INTS_M
#    Modification time : Tue Mar 25 06:17:49 2014

@<TRIPOS>MOLECULE
1hvr_XK2_1_INTS_M
  115     0     9     0     0
SMALL
NO_CHARGES


@<TRIPOS>ATOM
      1 N          -8.2775   12.4945   27.8635 N.am      2 SEC2        0.0000 
      2 N          -7.9390   14.0390   27.9410 N.am      8 SEL2        0.0000 
      3 N          -8.6160   10.9500   27.7860 N.am      5 SEP2        0.0000 
      4 N          -6.3625   13.6935   28.0640 N.am      2 SEC2        0.0000 
      5 N          -4.7860   13.3480   28.1870 N.am      5 SEP2        0.0000 
      6 CA         -8.2530   13.2660   25.4915 C.3       3 GLC5        0.0000 
      7 CA         -7.8540   15.3510   25.6960 C.3       9 GLL5        0.0000 
      8 CA         -8.6520   11.1810   25.2870 C.3       6 GLP5        0.0000 
      9 N         -11.2965   19.7685   26.9130 N.am      2 SEC2        0.0000 
     10 N          -9.9290   19.2740   26.9980 N.am      8 SEL2        0.0000 
     11 N         -12.6640   20.2630   26.8280 N.am      5 SEP2        0.0000 
     12 O          -9.6125   19.9945   28.2835 O.2       1 ALC1        0.0000 
     13 O          -9.9290   19.2740   26.9980 O.2       7 ALL1        0.0000 
     14 O          -9.2960   20.7150   29.5690 O.2       4 ALP1        0.0000 
     15 CA        -10.6910   18.5135   30.7675 C.3       3 GLC5        0.0000 
     16 CA        -10.4610   17.6450   28.7330 C.3       9 GLL5        0.0000 
     17 CA        -10.9210   19.3820   32.8020 C.3       6 GLP5        0.0000 
     18 N         -12.1780   19.2585   27.9240 N.am      2 SEC2        0.0000 
     19 N         -11.6920   18.2540   29.0200 N.am      8 SEL2        0.0000 
     20 O         -11.5315   19.6645   29.2105 O.2       1 ALC1        0.0000 
     21 O         -11.6920   18.2540   29.0200 O.2       7 ALL1        0.0000 
     22 O         -11.3710   21.0750   29.4010 O.2       4 ALP1        0.0000 
     23 O         -10.4940   19.4845   29.2945 O.2       1 ALC1        0.0000 
     24 CA         -7.2495   13.8845   30.3725 C.3       3 GLC5        0.0000 
     25 CA         -9.2710   14.4910   30.2150 C.3       9 GLL5        0.0000 
     26 CA         -5.2280   13.2780   30.5300 C.3       6 GLP5        0.0000 
     27 CA        -10.3935   13.7210   24.5275 C.3       3 GLC5        0.0000 
     28 CA         -9.7690   15.7120   24.0220 C.3       9 GLL5        0.0000 
     29 CA        -11.0180   11.7300   25.0330 C.3       6 GLP5        0.0000 
     30 CA         -9.3425   15.3350   17.8525 C.3       3 GLC5        0.0000 
     31 CA         -8.6260   16.5080   19.3490 C.3       9 GLL5        0.0000 
     32 CA        -10.0590   14.1620   16.3560 C.3       6 GLP5        0.0000 
     33 CA         -6.5880   14.5445   20.0960 C.3       3 GLC5        0.0000 
     34 CA         -6.8600   16.4030   21.0060 C.3       9 GLL5        0.0000 
     35 CA         -6.3160   12.6860   19.1860 C.3       6 GLP5        0.0000 
     36 CA         -4.8740   15.7140   29.1530 C.3       3 GLC5        0.0000 
     37 CA         -5.2260   16.8260   27.4940 C.3       9 GLL5        0.0000 
     38 CA         -4.5220   14.6020   30.8120 C.3       6 GLP5        0.0000 
     39 CA         -2.2660   16.0395   27.3830 C.3       3 GLC5        0.0000 
     40 CA         -4.0290   16.6670   26.7500 C.3       9 GLL5        0.0000 
     41 CA         -0.5030   15.4120   28.0160 C.3       6 GLP5        0.0000 
     42 CA         -6.0995   20.8085   26.8870 C.3       3 GLC5        0.0000 
     43 CA         -5.8030   18.8110   26.1630 C.3       9 GLL5        0.0000 
     44 CA         -6.3960   22.8060   27.6110 C.3       6 GLP5        0.0000 
     45 CA        -12.6140   14.8660   26.2610 C.3       3 GLC5        0.0000 
     46 CA        -11.7120   15.4510   28.0790 C.3       9 GLL5        0.0000 
     47 CA        -13.5160   14.2810   24.4430 C.3       6 GLP5        0.0000 
     48 CA        -14.8635   15.5430   29.2235 C.3       3 GLC5        0.0000 
     49 CA        -13.1670   14.4220   29.8980 C.3       9 GLL5        0.0000 
     50 CA        -16.5600   16.6640   28.5490 C.3       6 GLP5        0.0000 
     51 CA        -15.4400   11.6600   29.4190 C.3       3 GLC5        0.0000 
     52 CA        -13.3740   11.9820   30.0580 C.3       9 GLL5        0.0000 
     53 CA        -17.5060   11.3380   28.7800 C.3       6 GLP5        0.0000 
     54 CA        -12.7540   13.6175   26.3735 C.3       3 GLC5        0.0000 
     55 CA        -11.9920   12.9540   28.3040 C.3       9 GLL5        0.0000 
     56 CA         -9.6965   13.5430   37.1245 C.3       3 GLC5        0.0000 
     57 CA        -11.2450   14.7480   36.0440 C.3       9 GLL5        0.0000 
     58 CA         -8.1480   12.3380   38.2050 C.3       6 GLP5        0.0000 
     59 CA         -7.4175   17.1170   35.1805 C.3       3 GLC5        0.0000 
     60 CA         -9.5400   16.4750   35.5530 C.3       9 GLL5        0.0000 
     61 CA         -5.2950   17.7590   34.8080 C.3       6 GLP5        0.0000 
     62 CA         -6.9500   17.2250   34.0480 C.3       3 GLC5        0.0000 
     63 CA         -8.6050   16.6910   33.2880 C.3       9 GLL5        0.0000 
     64 CA        -10.6395   17.5288   23.2285 C.3       3 GLC5        0.0000 
     65 CA        -11.2970   19.2420   23.0990 C.3       6 GLP5        0.0000 
     66 CA        -11.7490   15.0483   23.9005 C.3       3 GLC5        0.0000 
     67 CA        -10.1950   15.9190   22.6940 C.3       9 GLL5        0.0000 
     68 CA        -10.8545   14.9642   21.2733 C.3       3 GLC5        0.0000 
     69 CA        -12.0020   13.8930   20.3530 C.3       6 GLP5        0.0000 
     70 CA        -10.3552   17.7350   22.0600 C.3       3 GLC5        0.0000 
     71 CA         -9.6080   16.3040   20.3490 C.3       9 GLL5        0.0000 
     72 CA        -10.5595   15.1495   20.1010 C.3       3 GLC5        0.0000 
     73 CA         -7.3277   14.9140   18.6743 C.3       3 GLC5        0.0000 
     74 CA         -6.7110   13.2930   17.8430 C.3       6 GLP5        0.0000 
     75 CA         -9.3080   17.3615   18.3538 C.3       3 GLC5        0.0000 
     76 CA         -7.2630   16.5620   19.6620 C.3       9 GLL5        0.0000 
     77 CA        -10.4260   18.2390   16.9520 C.3       6 GLP5        0.0000 
     78 CA         -8.6259   14.2820   20.8487 C.3       3 GLC5        0.0000 
     79 CA         -9.2190   16.1520   21.6930 C.3       9 GLL5        0.0000 
     80 CA         -8.6310   12.3540   20.1760 C.3       6 GLP5        0.0000 
     81 CA         -6.3829   14.4834   25.0105 C.3       3 GLC5        0.0000 
     82 CA         -7.4080   15.9830   23.3460 C.3       9 GLL5        0.0000 
     83 CA         -5.0030   13.2050   25.8400 C.3       6 GLP5        0.0000 
     84 CA         -4.3230   18.8000   27.9997 C.3       3 GLC5        0.0000 
     85 CA         -6.1240   17.8900   27.1930 C.3       9 GLL5        0.0000 
     86 CA         -2.9710   20.2420   28.6560 C.3       6 GLP5        0.0000 
     87 CA         -5.9150   18.1483   29.2434 C.3       3 GLC5        0.0000 
     88 CA         -5.8170   18.9180   30.9680 C.3       6 GLP5        0.0000 
     89 CA         -4.8152   14.9757   26.4810 C.3       3 GLC5        0.0000 
     90 CA         -3.4253   18.6840   27.4462 C.3       3 GLC5        0.0000 
     91 CA         -4.0880   19.4887   27.2267 C.3       3 GLC5        0.0000 
     92 CA         -4.6070   18.6600   25.4320 C.3       9 GLL5        0.0000 
     93 CA        -13.2112   10.2375   28.7160 C.3       3 GLC5        0.0000 
     94 CA        -12.5290   11.8140   28.9440 C.3       9 GLL5        0.0000 
     95 CA        -13.4710    8.5770   27.9310 C.3       6 GLP5        0.0000 
     96 CA        -10.5247   11.7050   29.3820 C.3       3 GLC5        0.0000 
     97 CA         -8.7890   11.0260   30.1400 C.3       6 GLP5        0.0000 
     98 CA        -11.6393   12.0570   26.8285 C.3       3 GLC5        0.0000 
     99 CA         -9.2821   12.8409   30.9125 C.3       3 GLC5        0.0000 
    100 CA         -8.7610   14.1660   34.9417 C.3       3 GLC5        0.0000 
    101 CA        -10.2720   14.9260   33.8000 C.3       9 GLL5        0.0000 
    102 CA         -6.8080   13.7280   35.6290 C.3       6 GLP5        0.0000 
    103 CA        -12.7630   16.2323   36.4823 C.3       3 GLC5        0.0000 
    104 CA        -14.6860   17.1720   36.7170 C.3       6 GLP5        0.0000 
    105 CA        -10.2212   17.1740   37.5050 C.3       3 GLC5        0.0000 
    106 CA        -10.4350   15.8370   36.4510 C.3       9 GLL5        0.0000 
    107 CA        -10.4550   18.1920   39.0080 C.3       6 GLP5        0.0000 
    108 CA         -8.3978   14.9420   35.8155 C.3       3 GLC5        0.0000 
    109 CA        -10.2092   17.8167   33.8422 C.3       3 GLC5        0.0000 
    110 CA         -7.9190   15.0437   34.6895 C.3       3 GLC5        0.0000 
    111 CA         -9.4550   16.0280   34.2120 C.3       9 GLL5        0.0000 
    112 CA         -9.7553   17.9267   32.7135 C.3       3 GLC5        0.0000 
    113 CA         -7.2033   17.6947   31.7965 C.3       3 GLC5        0.0000 
    114 CA         -6.9303   15.7527   32.2831 C.3       3 GLC5        0.0000 
    115 CA         -5.0710   15.3100   32.0390 C.3       6 GLP5        0.0000 
@<TRIPOS>BOND
@<TRIPOS>SUBSTRUCTURE
     1 ALC1       12 GROUP        1 X    ALC  0     ROOT ALC X 1
     2 SEC2        1 GROUP        1 X    SEC  0     **** SEC X 2
     3 GLC5        6 GROUP        1 X    GLC  0     **** GLC X 6
     4 ALP1       14 GROUP        1 Y    ALP  0     ROOT ALP Y 8
     5 SEP2        3 GROUP        1 Y    SEP  0     **** SEP Y 9
     6 GLP5        8 GROUP        1 Y    GLP  0     **** GLP Y 13
     7 ALL1       13 GROUP        1 Z    ALL  0     ROOT ALL Z 15
     8 SEL2        2 GROUP        1 Z    SEL  0     **** SEL Z 16
     9 GLL5        7 GROUP        1 Z    GLL  0     **** GLL Z 20
@<TRIPOS>SET

