#    Name: 1hvr_XK2_1_ligand
#    Modification time : Tue Mar 25 06:17:49 2014

@<TRIPOS>MOLECULE
1hvr_XK2_1_ligand
   84    90     1     0     0
SMALL
NO_CHARGES


@<TRIPOS>ATOM
      1 C1         -8.6110   15.0600   27.9540 C.2       1 XK2263      0.0000 
      2 O1         -7.9390   14.0390   27.9410 O.2       1 XK2263      0.0000 
      3 N2         -8.4610   15.9230   26.9050 N.am      1 XK2263      0.0000 
      4 C2         -7.8540   15.3510   25.6960 C.3       1 XK2263      0.0000 
      5 C3         -8.6270   17.3880   27.0110 C.3       1 XK2263      0.0000 
      6 C4        -10.0290   17.9100   27.2980 C.3       1 XK2263      0.0000 
      7 O4         -9.9290   19.2740   26.9980 O.3       1 XK2263      0.0000 
      8 C5        -10.4610   17.6450   28.7330 C.3       1 XK2263      0.0000 
      9 O5        -11.6920   18.2540   29.0200 O.3       1 XK2263      0.0000 
     10 C6        -10.6570   16.1520   28.9640 C.3       1 XK2263      0.0000 
     11 N7         -9.4610   15.2940   29.0040 N.am      1 XK2263      0.0000 
     12 C7         -9.2710   14.4910   30.2150 C.3       1 XK2263      0.0000 
     13 C20        -8.3810   15.7300   24.3360 C.ar      1 XK2263      0.0000 
     14 C21        -9.7690   15.7120   24.0220 C.ar      1 XK2263      0.0000 
     15 C22       -10.1950   15.9190   22.6940 C.ar      1 XK2263      0.0000 
     16 C23        -9.2190   16.1520   21.6930 C.ar      1 XK2263      0.0000 
     17 C24        -9.6080   16.3040   20.3490 C.ar      1 XK2263      0.0000 
     18 C25        -8.6260   16.5080   19.3490 C.ar      1 XK2263      0.0000 
     19 C26        -7.2630   16.5620   19.6620 C.ar      1 XK2263      0.0000 
     20 C27        -6.8600   16.4030   21.0060 C.ar      1 XK2263      0.0000 
     21 C28        -7.8280   16.1920   22.0220 C.ar      1 XK2263      0.0000 
     22 C29        -7.4080   15.9830   23.3460 C.ar      1 XK2263      0.0000 
     23 C31        -7.4760   17.9720   27.8940 C.3       1 XK2263      0.0000 
     24 C32        -6.1240   17.8900   27.1930 C.ar      1 XK2263      0.0000 
     25 C33        -5.2260   16.8260   27.4940 C.ar      1 XK2263      0.0000 
     26 C34        -4.0290   16.6670   26.7500 C.ar      1 XK2263      0.0000 
     27 C35        -3.7300   17.5850   25.7230 C.ar      1 XK2263      0.0000 
     28 C36        -4.6070   18.6600   25.4320 C.ar      1 XK2263      0.0000 
     29 C37        -5.8030   18.8110   26.1630 C.ar      1 XK2263      0.0000 
     30 C61       -11.7120   15.4510   28.0790 C.3       1 XK2263      0.0000 
     31 C62       -12.3100   14.2480   28.7790 C.ar      1 XK2263      0.0000 
     32 C63       -13.1670   14.4220   29.8980 C.ar      1 XK2263      0.0000 
     33 C64       -13.7000   13.2810   30.5420 C.ar      1 XK2263      0.0000 
     34 C65       -13.3740   11.9820   30.0580 C.ar      1 XK2263      0.0000 
     35 C66       -12.5290   11.8140   28.9440 C.ar      1 XK2263      0.0000 
     36 C67       -11.9920   12.9540   28.3040 C.ar      1 XK2263      0.0000 
     37 C70        -9.3740   15.1480   31.5710 C.ar      1 XK2263      0.0000 
     38 C71       -10.2280   14.4920   32.4770 C.ar      1 XK2263      0.0000 
     39 C72       -10.2720   14.9260   33.8000 C.ar      1 XK2263      0.0000 
     40 C73       -11.1560   14.2820   34.7090 C.ar      1 XK2263      0.0000 
     41 C74       -11.2450   14.7480   36.0440 C.ar      1 XK2263      0.0000 
     42 C75       -10.4350   15.8370   36.4510 C.ar      1 XK2263      0.0000 
     43 C76        -9.5400   16.4750   35.5530 C.ar      1 XK2263      0.0000 
     44 C77        -9.4550   16.0280   34.2120 C.ar      1 XK2263      0.0000 
     45 C78        -8.6050   16.6910   33.2880 C.ar      1 XK2263      0.0000 
     46 C79        -8.5740   16.2520   31.9620 C.ar      1 XK2263      0.0000 
     47 H          -7.8791   14.2150   25.7699 H         1 XK2263      0.0000 
     48 H          -6.7361   15.5674   25.7039 H         1 XK2263      0.0000 
     49 H          -8.3579   17.7937   25.9495 H         1 XK2263      0.0000 
     50 H         -10.6995   17.4095   26.6175 H         1 XK2263      0.0000 
     51 H          -9.6851   17.9790   29.4000 H         1 XK2263      0.0000 
     52 H         -11.1218   16.0599   30.0310 H         1 XK2263      0.0000 
     53 H          -8.2620   13.9693   30.1637 H         1 XK2263      0.0000 
     54 H          -9.9982   13.6171   30.2025 H         1 XK2263      0.0000 
     55 H         -10.4514   15.5488   24.7622 H         1 XK2263      0.0000 
     56 H         -11.1784   15.9022   22.4565 H         1 XK2263      0.0000 
     57 H         -10.5946   16.2679   20.0914 H         1 XK2263      0.0000 
     58 H          -8.9303   16.6187   18.3676 H         1 XK2263      0.0000 
     59 H          -6.5678   16.7134   18.9355 H         1 XK2263      0.0000 
     60 H          -5.8689   16.4395   21.2509 H         1 XK2263      0.0000 
     61 H          -6.4239   16.0128   23.5889 H         1 XK2263      0.0000 
     62 H          -7.4426   17.4098   28.8270 H         1 XK2263      0.0000 
     63 H          -7.7125   19.0117   28.1192 H         1 XK2263      0.0000 
     64 H          -5.4474   16.1764   28.2491 H         1 XK2263      0.0000 
     65 H          -3.3977   15.8999   26.9577 H         1 XK2263      0.0000 
     66 H          -2.8675   17.4768   25.1772 H         1 XK2263      0.0000 
     67 H          -4.3697   19.3225   24.6931 H         1 XK2263      0.0000 
     68 H          -6.4393   19.5803   25.9544 H         1 XK2263      0.0000 
     69 H         -11.2337   15.1377   27.1500 H         1 XK2263      0.0000 
     70 H         -12.4984   16.1686   27.8412 H         1 XK2263      0.0000 
     71 H         -13.3923   15.3530   30.2290 H         1 XK2263      0.0000 
     72 H         -14.3128   13.3832   31.3463 H         1 XK2263      0.0000 
     73 H         -13.7644   11.1596   30.5332 H         1 XK2263      0.0000 
     74 H         -12.3061   10.8828   28.6017 H         1 XK2263      0.0000 
     75 H         -11.3745   12.8442   27.4988 H         1 XK2263      0.0000 
     76 H         -10.8029   13.7121   32.1637 H         1 XK2263      0.0000 
     77 H         -11.7179   13.4946   34.4014 H         1 XK2263      0.0000 
     78 H         -11.8803   14.3078   36.6999 H         1 XK2263      0.0000 
     79 H         -10.4965   16.1749   37.4228 H         1 XK2263      0.0000 
     80 H          -8.9632   17.2492   35.8724 H         1 XK2263      0.0000 
     81 H          -8.0328   17.4707   33.5961 H         1 XK2263      0.0000 
     82 H          -7.9832   16.7160   31.2726 H         1 XK2263      0.0000 
     83 H          -9.4391   19.6740   27.7726 H         1 XK2263      0.0000 
     84 H         -11.4642   19.0390   29.5962 H         1 XK2263      0.0000 
@<TRIPOS>BOND
     1    2    1 2    
     2    3    1 am   
     3   11    1 am   
     4    4    3 1    
     5    5    3 1    
     6   13    4 1    
     7   47    4 1    
     8   48    4 1    
     9    6    5 1    
    10   23    5 1    
    11   49    5 1    
    12    7    6 1    
    13    8    6 1    
    14   50    6 1    
    15   83    7 1    
    16    9    8 1    
    17   10    8 1    
    18   51    8 1    
    19   84    9 1    
    20   11   10 1    
    21   30   10 1    
    22   52   10 1    
    23   12   11 1    
    24   37   12 1    
    25   53   12 1    
    26   54   12 1    
    27   14   13 ar   
    28   22   13 ar   
    29   15   14 ar   
    30   55   14 1    
    31   16   15 ar   
    32   56   15 1    
    33   17   16 ar   
    34   21   16 ar   
    35   18   17 ar   
    36   57   17 1    
    37   19   18 ar   
    38   58   18 1    
    39   20   19 ar   
    40   59   19 1    
    41   21   20 ar   
    42   60   20 1    
    43   22   21 ar   
    44   61   22 1    
    45   24   23 1    
    46   62   23 1    
    47   63   23 1    
    48   25   24 ar   
    49   29   24 ar   
    50   26   25 ar   
    51   64   25 1    
    52   27   26 ar   
    53   65   26 1    
    54   28   27 ar   
    55   66   27 1    
    56   29   28 ar   
    57   67   28 1    
    58   68   29 1    
    59   31   30 1    
    60   69   30 1    
    61   70   30 1    
    62   32   31 ar   
    63   36   31 ar   
    64   33   32 ar   
    65   71   32 1    
    66   34   33 ar   
    67   72   33 1    
    68   35   34 ar   
    69   73   34 1    
    70   36   35 ar   
    71   74   35 1    
    72   75   36 1    
    73   38   37 ar   
    74   46   37 ar   
    75   39   38 ar   
    76   76   38 1    
    77   40   39 ar   
    78   44   39 ar   
    79   41   40 ar   
    80   77   40 1    
    81   42   41 ar   
    82   78   41 1    
    83   43   42 ar   
    84   79   42 1    
    85   44   43 ar   
    86   80   43 1    
    87   45   44 ar   
    88   46   45 ar   
    89   81   45 1    
    90   82   46 1    
@<TRIPOS>SUBSTRUCTURE
     1 XK2263      1 GROUP   
@<TRIPOS>SET

