#    Name: 4a9r_RU5_1_INTS_M
#    Modification time : Tue Mar 25 05:19:53 2014

@<TRIPOS>MOLECULE
4a9r_RU5_1_INTS_M
   49     0     6     0     0
SMALL
NO_CHARGES


@<TRIPOS>ATOM
      1 CA        -13.5120   45.6395    5.0650 C.3       2 GLC5        0.0000 
      2 CA        -12.9800   47.6350    4.8850 C.3       6 GLL5        0.0000 
      3 CA        -14.0440   43.6440    5.2450 C.3       4 GLP5        0.0000 
      4 CA        -11.0725   55.2820   16.5425 C.3       2 GLC5        0.0000 
      5 CA         -9.3920   53.9070   16.3940 C.3       6 GLL5        0.0000 
      6 CA        -12.7530   56.6570   16.6910 C.3       4 GLP5        0.0000 
      7 CA         -6.9545   47.3090    8.6050 C.3       2 GLC5        0.0000 
      8 CA         -7.6260   49.3770    9.0930 C.3       6 GLL5        0.0000 
      9 CA         -6.2830   45.2410    8.1170 C.3       4 GLP5        0.0000 
     10 N         -13.2465   47.0045    1.1070 N.am      1 SEC2        0.0000 
     11 N         -12.7770   46.6870    2.1060 N.am      5 SEL2        0.0000 
     12 N         -13.7160   47.3220    0.1080 N.am      3 SEP2        0.0000 
     13 CA        -10.6575   49.0590    4.1300 C.3       2 GLC5        0.0000 
     14 CA        -11.7380   47.1090    4.1770 C.3       6 GLL5        0.0000 
     15 CA        -10.1650   50.9540    3.7970 C.3       4 GLP5        0.0000 
     16 CA        -12.3950   48.3360    2.7440 C.3       2 GLC5        0.0000 
     17 CA        -12.4310   49.3000    0.9570 C.3       4 GLP5        0.0000 
     18 CA        -11.8460   45.3220    4.9290 C.3       2 GLC5        0.0000 
     19 CA        -12.5420   43.4800    5.3950 C.3       4 GLP5        0.0000 
     20 CA        -10.5680   49.5273    5.1118 C.3       2 GLC5        0.0000 
     21 CA        -10.4390   47.8740    6.1220 C.3       6 GLL5        0.0000 
     22 CA        -11.6490   46.8233    7.4972 C.3       2 GLC5        0.0000 
     23 CA        -12.3270   45.5460    8.5680 C.3       4 GLP5        0.0000 
     24 CA        -11.5455   49.4357    4.6365 C.3       2 GLC5        0.0000 
     25 CA        -12.8720   48.2000    6.0670 C.3       6 GLL5        0.0000 
     26 CA        -14.4485   48.6058    4.9625 C.3       2 GLC5        0.0000 
     27 CA        -15.9710   49.2940    4.4490 C.3       4 GLP5        0.0000 
     28 CA        -12.6265   46.7318    7.0220 C.3       2 GLC5        0.0000 
     29 CA        -10.4985   51.0562   11.5053 C.3       2 GLC5        0.0000 
     30 CA         -8.7360   49.8830   11.6560 C.3       6 GLL5        0.0000 
     31 CA        -11.8720   52.4250   11.8480 C.3       4 GLP5        0.0000 
     32 CA         -8.2640   48.1088   11.9307 C.3       2 GLC5        0.0000 
     33 CA         -9.5140   49.4920   10.6690 C.3       6 GLL5        0.0000 
     34 CA         -7.4030   46.5300   12.6990 C.3       4 GLP5        0.0000 
     35 CA         -8.1930   51.8815   10.6060 C.3       2 GLC5        0.0000 
     36 CA         -8.3980   53.7870    9.6740 C.3       4 GLP5        0.0000 
     37 CA         -7.1930   48.2403   11.7632 C.3       2 GLC5        0.0000 
     38 CA         -7.2400   50.0690   11.4200 C.3       6 GLL5        0.0000 
     39 CA         -6.7960   51.3612    8.9665 C.3       2 GLC5        0.0000 
     40 CA         -6.7260   49.8320   10.2350 C.3       6 GLL5        0.0000 
     41 CA         -6.4160   53.1180    8.2690 C.3       4 GLP5        0.0000 
     42 CA         -9.3720   50.0575   15.7415 C.3       2 GLC5        0.0000 
     43 CA         -7.7890   50.6260   14.5740 C.3       6 GLL5        0.0000 
     44 CA        -10.6280   49.1140   16.4790 C.3       4 GLP5        0.0000 
     45 CA         -6.8105   53.7467   12.0228 C.3       2 GLC5        0.0000 
     46 CA         -7.9130   53.4390   14.1960 C.3       6 GLL5        0.0000 
     47 CA         -6.0870   54.4900   10.3480 C.3       4 GLP5        0.0000 
     48 CA        -10.4027   53.5404   14.4770 C.3       2 GLC5        0.0000 
     49 CA        -12.3740   53.6630   13.9500 C.3       4 GLP5        0.0000 
@<TRIPOS>BOND
@<TRIPOS>SUBSTRUCTURE
     1 SEC2       10 GROUP        1 X    SEC  0     ROOT SEC X 2
     2 GLC5        1 GROUP        1 X    GLC  0     **** GLC X 6
     3 SEP2       12 GROUP        1 Y    SEP  0     ROOT SEP Y 9
     4 GLP5        3 GROUP        1 Y    GLP  0     **** GLP Y 13
     5 SEL2       11 GROUP        1 Z    SEL  0     ROOT SEL Z 16
     6 GLL5        2 GROUP        1 Z    GLL  0     **** GLL Z 20
@<TRIPOS>SET

