#    Name: 4a9r_RU5_1_ligand
#    Modification time : Tue Mar 25 05:19:53 2014

@<TRIPOS>MOLECULE
4a9r_RU5_1_ligand
   40    43     1     0     0
SMALL
NO_CHARGES


@<TRIPOS>ATOM
      1 C1        -11.8510   46.4550    2.8050 C.2       1 RU51514     0.0000 
      2 N1        -10.8140   45.5480    2.3540 N.am      1 RU51514     0.0000 
      3 O1         -6.4010   50.4710   12.4620 O.3       1 RU51514     0.0000 
      4 C2        -11.7380   47.1090    4.1770 C.ar      1 RU51514     0.0000 
      5 C3        -10.5620   47.2190    4.7490 C.ar      1 RU51514     0.0000 
      6 N3         -9.3400   48.1210    6.9480 N.pl3     1 RU51514     0.0000 
      7 C4        -10.4390   47.8740    6.1220 C.ar      1 RU51514     0.0000 
      8 N4        -11.0710   48.9070    8.0410 N.2       1 RU51514     0.0000 
      9 C5         -9.7970   48.7670    8.1330 C.2       1 RU51514     0.0000 
     10 C6        -11.5030   48.3270    6.7310 C.ar      1 RU51514     0.0000 
     11 C7        -12.8720   48.2000    6.0670 C.ar      1 RU51514     0.0000 
     12 C8        -12.9800   47.6350    4.8850 C.ar      1 RU51514     0.0000 
     13 C9         -8.9140   49.2120    9.2940 C.ar      1 RU51514     0.0000 
     14 CLA        -9.3920   53.9070   16.3940 Cl        1 RU51514     0.0000 
     15 C10        -9.5140   49.4920   10.6690 C.ar      1 RU51514     0.0000 
     16 C11        -8.7360   49.8830   11.6560 C.ar      1 RU51514     0.0000 
     17 C12        -7.2400   50.0690   11.4200 C.ar      1 RU51514     0.0000 
     18 C13        -6.7260   49.8320   10.2350 C.ar      1 RU51514     0.0000 
     19 C14        -7.6260   49.3770    9.0930 C.ar      1 RU51514     0.0000 
     20 C15        -7.1000   51.2660   13.3730 C.ar      1 RU51514     0.0000 
     21 C16        -7.7890   50.6260   14.5740 C.ar      1 RU51514     0.0000 
     22 C17        -8.4430   51.3760   15.4340 C.ar      1 RU51514     0.0000 
     23 C18        -8.5080   52.8860   15.2300 C.ar      1 RU51514     0.0000 
     24 C19        -7.9130   53.4390   14.1960 C.ar      1 RU51514     0.0000 
     25 C20        -7.1550   52.5680   13.1990 C.ar      1 RU51514     0.0000 
     26 OAB       -12.7770   46.6870    2.1060 O.2       1 RU51514     0.0000 
     27 H         -10.9419   45.1502    1.4455 H         1 RU51514     0.0000 
     28 H         -10.0565   45.3952    2.9887 H         1 RU51514     0.0000 
     29 H          -9.6745   46.8970    4.3542 H         1 RU51514     0.0000 
     30 H          -8.4404   47.9030    6.7664 H         1 RU51514     0.0000 
     31 H         -13.6451   48.5826    6.6167 H         1 RU51514     0.0000 
     32 H         -13.8514   47.5050    4.3656 H         1 RU51514     0.0000 
     33 H         -10.5236   49.3493   10.7280 H         1 RU51514     0.0000 
     34 H          -9.0425   50.0851   12.6101 H         1 RU51514     0.0000 
     35 H          -5.7385   49.9248    9.9851 H         1 RU51514     0.0000 
     36 H          -7.1389   49.2244    8.2053 H         1 RU51514     0.0000 
     37 H          -7.6885   49.6096   14.6277 H         1 RU51514     0.0000 
     38 H          -8.9355   51.0388   16.2635 H         1 RU51514     0.0000 
     39 H          -7.9037   54.4376   13.9786 H         1 RU51514     0.0000 
     40 H          -6.7229   53.0842   12.4292 H         1 RU51514     0.0000 
@<TRIPOS>BOND
     1    2    1 am   
     2    4    1 1    
     3   26    1 2    
     4   27    2 1    
     5   28    2 1    
     6   17    3 1    
     7   20    3 1    
     8    5    4 ar   
     9   12    4 ar   
    10    7    5 ar   
    11   29    5 1    
    12    7    6 1    
    13    9    6 1    
    14   30    6 1    
    15   10    7 ar   
    16    9    8 2    
    17   10    8 1    
    18   13    9 1    
    19   11   10 ar   
    20   12   11 ar   
    21   31   11 1    
    22   32   12 1    
    23   15   13 ar   
    24   19   13 ar   
    25   23   14 1    
    26   16   15 ar   
    27   33   15 1    
    28   17   16 ar   
    29   34   16 1    
    30   18   17 ar   
    31   19   18 ar   
    32   35   18 1    
    33   36   19 1    
    34   21   20 ar   
    35   25   20 ar   
    36   22   21 ar   
    37   37   21 1    
    38   23   22 ar   
    39   38   22 1    
    40   24   23 ar   
    41   25   24 ar   
    42   39   24 1    
    43   40   25 1    
@<TRIPOS>SUBSTRUCTURE
     1 RU51514     1 GROUP   
@<TRIPOS>SET

