#    Name: 2vto_LZ8_1_INTS_M
#    Modification time : Tue Mar 25 02:54:38 2014

@<TRIPOS>MOLECULE
2vto_LZ8_1_INTS_M
   58     0     9     0     0
SMALL
NO_CHARGES


@<TRIPOS>ATOM
      1 CA         30.9840    6.9945   63.2715 C.3       3 GLC5        0.0000 
      2 CA         31.3900    8.2020   64.8890 C.3       9 GLL5        0.0000 
      3 CA         30.5780    5.7870   61.6540 C.3       6 GLP5        0.0000 
      4 O          31.0040    5.4825   66.4300 O.2       1 ALC1        0.0000 
      5 O          30.1130    6.3450   65.8150 O.2       7 ALL1        0.0000 
      6 O          31.8950    4.6200   67.0450 O.2       4 ALP1        0.0000 
      7 N          29.6125    3.1845   66.3210 N.am      2 SEC2        0.0000 
      8 N          28.5150    4.1060   65.7230 N.am      8 SEL2        0.0000 
      9 N          30.7100    2.2630   66.9190 N.am      5 SEP2        0.0000 
     10 O          27.4510    1.9330   65.8435 O.2       1 ALC1        0.0000 
     11 O          27.6060    3.1490   65.4010 O.2       7 ALL1        0.0000 
     12 O          27.2960    0.7170   66.2860 O.2       4 ALP1        0.0000 
     13 CA         26.8190    1.8150   63.7240 C.3       3 GLC5        0.0000 
     14 CA         26.7240    3.5790   64.5040 C.3       9 GLL5        0.0000 
     15 CA         26.9140    0.0510   62.9440 C.3       6 GLP5        0.0000 
     16 CA         25.2575    2.3485   64.8850 C.3       3 GLC5        0.0000 
     17 CA         23.7910    1.1180   65.2660 C.3       6 GLP5        0.0000 
     18 CA         21.5040    7.1795   62.0055 C.3       3 GLC5        0.0000 
     19 CA         23.5840    7.0940   61.6650 C.3       9 GLL5        0.0000 
     20 CA         19.4240    7.2650   62.3460 C.3       6 GLP5        0.0000 
     21 CA         21.2585    8.3020   61.1205 C.3       3 GLC5        0.0000 
     22 CA         23.1990    8.1590   60.8710 C.3       9 GLL5        0.0000 
     23 CA         19.3180    8.4450   61.3700 C.3       6 GLP5        0.0000 
     24 CA         26.2990    7.7755   58.4320 C.3       3 GLC5        0.0000 
     25 CA         25.4750    8.5040   60.2190 C.3       9 GLL5        0.0000 
     26 CA         27.1230    7.0470   56.6450 C.3       6 GLP5        0.0000 
     27 CA         26.3945    5.4960   60.1330 C.3       3 GLC5        0.0000 
     28 CA         25.8650    7.4410   61.0130 C.3       9 GLL5        0.0000 
     29 CA         26.9240    3.5510   59.2530 C.3       6 GLP5        0.0000 
     30 CA         30.2640    9.5455   67.8655 C.3       3 GLC5        0.0000 
     31 CA         32.3440    8.8070   67.4320 C.3       9 GLL5        0.0000 
     32 CA         28.1840   10.2840   68.2990 C.3       6 GLP5        0.0000 
     33 CA         33.5600    7.8555   64.7878 C.3       3 GLC5        0.0000 
     34 CA         32.2580    9.2660   65.0640 C.3       9 GLL5        0.0000 
     35 CA         35.2960    6.9770   64.5990 C.3       6 GLP5        0.0000 
     36 CA         32.3330    8.6735   62.8372 C.3       3 GLC5        0.0000 
     37 CA         32.8420    8.6130   60.6980 C.3       6 GLP5        0.0000 
     38 CA         32.9939   11.4117   64.7336 C.3       3 GLC5        0.0000 
     39 CA         33.2840   13.1580   63.7250 C.3       6 GLP5        0.0000 
     40 CA         29.3723    7.7150   67.3385 C.3       3 GLC5        0.0000 
     41 CA         31.0030    7.4230   65.9860 C.3       9 GLL5        0.0000 
     42 CA         27.5000    7.8490   68.0550 C.3       6 GLP5        0.0000 
     43 CA         26.1367    4.2203   65.9002 C.3       3 GLC5        0.0000 
     44 CA         27.0630    4.8880   64.2070 C.3       9 GLL5        0.0000 
     45 CA         25.3800    4.2070   67.4450 C.3       6 GLP5        0.0000 
     46 CA         28.1208    3.9998   63.4172 C.3       3 GLC5        0.0000 
     47 CA         29.3480    3.7660   62.4790 C.3       6 GLP5        0.0000 
     48 CA         23.6167    8.2040   62.9488 C.3       3 GLC5        0.0000 
     49 CA         24.9210    6.7240   61.7420 C.3       9 GLL5        0.0000 
     50 CA         22.9810    9.4990   64.1940 C.3       6 GLP5        0.0000 
     51 CA         22.9140   10.2420   60.3695 C.3       3 GLC5        0.0000 
     52 CA         22.1570   11.9740   60.2300 C.3       6 GLP5        0.0000 
     53 CA         23.3260    9.0045   62.3515 C.3       3 GLC5        0.0000 
     54 CA         24.1430    8.8610   60.1470 C.3       9 GLL5        0.0000 
     55 CA         33.2290    6.5910   67.5215 C.3       3 GLC5        0.0000 
     56 CA         31.4860    7.7390   67.2580 C.3       9 GLL5        0.0000 
     57 CA         34.5430    4.9090   67.6980 C.3       6 GLP5        0.0000 
     58 CA         34.0214    8.2065   65.7626 C.3       3 GLC5        0.0000 
@<TRIPOS>BOND
@<TRIPOS>SUBSTRUCTURE
     1 ALC1        4 GROUP        1 X    ALC  0     ROOT ALC X 1
     2 SEC2        7 GROUP        1 X    SEC  0     **** SEC X 2
     3 GLC5        1 GROUP        1 X    GLC  0     **** GLC X 6
     4 ALP1        6 GROUP        1 Y    ALP  0     ROOT ALP Y 8
     5 SEP2        9 GROUP        1 Y    SEP  0     **** SEP Y 9
     6 GLP5        3 GROUP        1 Y    GLP  0     **** GLP Y 13
     7 ALL1        5 GROUP        1 Z    ALL  0     ROOT ALL Z 15
     8 SEL2        8 GROUP        1 Z    SEL  0     **** SEL Z 16
     9 GLL5        2 GROUP        1 Z    GLL  0     **** GLL Z 20
@<TRIPOS>SET

