#    Name: 2vto_LZ8_1_ligand
#    Modification time : Tue Mar 25 02:54:38 2014

@<TRIPOS>MOLECULE
2vto_LZ8_1_ligand
   37    39     1     0     0
SMALL
NO_CHARGES


@<TRIPOS>ATOM
      1 F1         33.5770   10.5780   66.5070 F         1 LZ81299     0.0000 
      2 C2         32.7220    9.5520   66.3340 C.ar      1 LZ81299     0.0000 
      3 C3         32.2580    9.2660   65.0640 C.ar      1 LZ81299     0.0000 
      4 C4         31.3900    8.2020   64.8890 C.ar      1 LZ81299     0.0000 
      5 C5         31.0030    7.4230   65.9860 C.ar      1 LZ81299     0.0000 
      6 N6         30.1130    6.3450   65.8150 N.am      1 LZ81299     0.0000 
      7 C7         28.9890    6.4120   65.0920 C.2       1 LZ81299     0.0000 
      8 O8         28.6320    7.4480   64.5320 O.2       1 LZ81299     0.0000 
      9 C9         28.1920    5.1680   64.9940 C.2       1 LZ81299     0.0000 
     10 N10        28.5150    4.1060   65.7230 N.2       1 LZ81299     0.0000 
     11 N11        27.6060    3.1490   65.4010 N.pl3     1 LZ81299     0.0000 
     12 C12        26.7240    3.5790   64.5040 C.2       1 LZ81299     0.0000 
     13 C13        27.0630    4.8880   64.2070 C.2       1 LZ81299     0.0000 
     14 N14        26.4680    5.7830   63.3360 N.am      1 LZ81299     0.0000 
     15 C15        25.3430    5.5830   62.6120 C.2       1 LZ81299     0.0000 
     16 O16        24.6900    4.5400   62.6630 O.2       1 LZ81299     0.0000 
     17 C17        24.9210    6.7240   61.7420 C.ar      1 LZ81299     0.0000 
     18 C18        23.5840    7.0940   61.6650 C.ar      1 LZ81299     0.0000 
     19 C20        23.1990    8.1590   60.8710 C.ar      1 LZ81299     0.0000 
     20 C21        24.1430    8.8610   60.1470 C.ar      1 LZ81299     0.0000 
     21 C22        25.4750    8.5040   60.2190 C.ar      1 LZ81299     0.0000 
     22 C23        25.8650    7.4410   61.0130 C.ar      1 LZ81299     0.0000 
     23 C25        31.4860    7.7390   67.2580 C.ar      1 LZ81299     0.0000 
     24 C26        32.3440    8.8070   67.4320 C.ar      1 LZ81299     0.0000 
     25 H          32.5516    9.8327   64.2629 H         1 LZ81299     0.0000 
     26 H          31.0247    7.9775   63.9539 H         1 LZ81299     0.0000 
     27 H          30.3749    5.4374   66.3001 H         1 LZ81299     0.0000 
     28 H          27.6130    2.2404   65.7976 H         1 LZ81299     0.0000 
     29 H          25.9917    3.1058   64.1206 H         1 LZ81299     0.0000 
     30 H          26.9636    6.7408   63.2308 H         1 LZ81299     0.0000 
     31 H          22.8770    6.5699   62.2039 H         1 LZ81299     0.0000 
     32 H          22.2043    8.4291   60.8198 H         1 LZ81299     0.0000 
     33 H          23.8526    9.6524   59.5523 H         1 LZ81299     0.0000 
     34 H          26.1803    9.0300   59.6806 H         1 LZ81299     0.0000 
     35 H          26.8605    7.1750   61.0678 H         1 LZ81299     0.0000 
     36 H          31.1965    7.1680   68.0661 H         1 LZ81299     0.0000 
     37 H          32.6957    9.0430   68.3665 H         1 LZ81299     0.0000 
@<TRIPOS>BOND
     1    2    1 1    
     2    3    2 ar   
     3   24    2 ar   
     4    4    3 ar   
     5   25    3 1    
     6    5    4 ar   
     7   26    4 1    
     8    6    5 1    
     9   23    5 ar   
    10    7    6 am   
    11   27    6 1    
    12    8    7 2    
    13    9    7 1    
    14   10    9 2    
    15   13    9 1    
    16   11   10 1    
    17   12   11 1    
    18   28   11 1    
    19   13   12 2    
    20   29   12 1    
    21   14   13 1    
    22   15   14 am   
    23   30   14 1    
    24   16   15 2    
    25   17   15 1    
    26   18   17 ar   
    27   22   17 ar   
    28   19   18 ar   
    29   31   18 1    
    30   20   19 ar   
    31   32   19 1    
    32   21   20 ar   
    33   33   20 1    
    34   22   21 ar   
    35   34   21 1    
    36   35   22 1    
    37   24   23 ar   
    38   36   23 1    
    39   37   24 1    
@<TRIPOS>SUBSTRUCTURE
     1 LZ81299     1 GROUP   
@<TRIPOS>SET

