#    Name: 3t37_FAD_1_INTS_M
#    Modification time : Mon Mar 24 19:03:43 2014

@<TRIPOS>MOLECULE
3t37_FAD_1_INTS_M
  122     0     9     0     0
SMALL
NO_CHARGES


@<TRIPOS>ATOM
      1 N         -18.0150    9.4455  -23.6620 N.am      2 SEC2        0.0000 
      2 N         -17.0100   10.2560  -23.9150 N.am      8 SEL2        0.0000 
      3 N         -19.0200    8.6350  -23.4090 N.am      5 SEP2        0.0000 
      4 N         -18.0750   11.7760  -27.4430 N.am      2 SEC2        0.0000 
      5 N         -18.1190   11.0820  -26.0170 N.am      8 SEL2        0.0000 
      6 N         -18.0310   12.4700  -28.8690 N.am      5 SEP2        0.0000 
      7 N         -18.3400    9.6075  -26.1480 N.am      2 SEC2        0.0000 
      8 N         -18.5610    8.1330  -26.2790 N.am      5 SEP2        0.0000 
      9 CA        -14.7450   12.8105  -23.3465 C.3       3 GLC5        0.0000 
     10 CA        -14.4120   11.4860  -25.0480 C.3       9 GLL5        0.0000 
     11 CA        -15.0780   14.1350  -21.6450 C.3       6 GLP5        0.0000 
     12 CA        -11.9325   11.9690  -26.8475 C.3       3 GLC5        0.0000 
     13 CA        -13.3730   10.8860  -25.9850 C.3       9 GLL5        0.0000 
     14 CA        -10.4920   13.0520  -27.7100 C.3       6 GLP5        0.0000 
     15 CA        -14.9780    8.7145  -26.8170 C.3       3 GLC5        0.0000 
     16 CA        -13.4160    9.3670  -25.9990 C.3       9 GLL5        0.0000 
     17 CA        -16.5400    8.0620  -27.6350 C.3       6 GLP5        0.0000 
     18 O         -12.3385    9.2660  -28.1220 O.2       1 ALC1        0.0000 
     19 O         -13.4360    8.9680  -27.3580 O.2       7 ALL1        0.0000 
     20 O         -11.2410    9.5640  -28.8860 O.2       4 ALP1        0.0000 
     21 CA        -11.1835    7.8610  -23.9145 C.3       3 GLC5        0.0000 
     22 CA        -12.1270    8.9770  -25.2840 C.3       9 GLL5        0.0000 
     23 CA        -10.2400    6.7450  -22.5450 C.3       6 GLP5        0.0000 
     24 O         -11.3215    7.5880  -26.9845 O.2       1 ALC1        0.0000 
     25 O         -11.5940    7.7270  -25.6720 O.2       7 ALL1        0.0000 
     26 O         -11.0490    7.4490  -28.2970 O.2       4 ALP1        0.0000 
     27 CA        -10.8515   11.5965  -26.6730 C.3       3 GLC5        0.0000 
     28 CA        -11.2110   10.1410  -25.6360 C.3       9 GLL5        0.0000 
     29 CA         -9.3650   11.2775  -21.8615 C.3       3 GLC5        0.0000 
     30 CA         -8.1920   10.9000  -23.7290 C.3       9 GLL5        0.0000 
     31 CA        -10.5380   11.6550  -19.9940 C.3       6 GLP5        0.0000 
     32 CA         -6.8725   13.1435  -24.6595 C.3       3 GLC5        0.0000 
     33 CA         -6.8290   11.1980  -23.7240 C.3       9 GLL5        0.0000 
     34 CA         -6.9160   15.0890  -25.5950 C.3       6 GLP5        0.0000 
     35 CA         -5.1815   10.0750  -24.5205 C.3       3 GLC5        0.0000 
     36 CA         -3.5340    8.9520  -25.3170 C.3       6 GLP5        0.0000 
     37 O          -4.7535   12.0085  -22.3495 O.2       1 ALC1        0.0000 
     38 O          -6.1950   11.5250  -22.5930 O.2       7 ALL1        0.0000 
     39 O          -3.3120   12.4920  -22.1060 O.2       4 ALP1        0.0000 
     40 O          -6.7285   11.6800  -21.1780 O.2       1 ALC1        0.0000 
     41 O          -7.2620   11.8350  -19.7630 O.2       4 ALP1        0.0000 
     42 N          -4.7335   11.3140  -24.8850 N.am      2 SEC2        0.0000 
     43 N          -6.1590   11.2860  -24.9310 N.am      8 SEL2        0.0000 
     44 N          -3.3080   11.3420  -24.8390 N.am      5 SEP2        0.0000 
     45 CA         -6.8725   13.0785  -25.8570 C.3       3 GLC5        0.0000 
     46 CA         -6.8290   11.0680  -26.1190 C.3       9 GLL5        0.0000 
     47 CA         -8.6605   12.0600  -26.9145 C.3       3 GLC5        0.0000 
     48 CA         -7.5105   10.3640  -28.0240 C.3       3 GLC5        0.0000 
     49 CA         -8.1920    9.6600  -29.9290 C.3       6 GLP5        0.0000 
     50 CA         -7.2180    9.1490  -25.9495 C.3       3 GLC5        0.0000 
     51 CA         -7.6070    7.2300  -25.7800 C.3       6 GLP5        0.0000 
     52 CA         -5.1815   10.0100  -25.7180 C.3       3 GLC5        0.0000 
     53 CA         -5.2015   12.4320  -26.2005 C.3       3 GLC5        0.0000 
     54 CA         -3.5740   13.7960  -26.2820 C.3       6 GLP5        0.0000 
     55 N          -8.0155    9.4945  -27.0610 N.am      2 SEC2        0.0000 
     56 N          -8.1760   10.7710  -26.1140 N.am      8 SEL2        0.0000 
     57 N          -7.8550    8.2180  -28.0080 N.am      5 SEP2        0.0000 
     58 CA         -9.6705   11.8700  -26.3235 C.3       3 GLC5        0.0000 
     59 CA         -8.8490   10.6880  -24.9370 C.3       9 GLL5        0.0000 
     60 N         -27.3025   13.2680  -24.6530 N.am      2 SEC2        0.0000 
     61 N         -28.1580   12.1870  -24.7870 N.am      8 SEL2        0.0000 
     62 N         -26.4470   14.3490  -24.5190 N.am      5 SEP2        0.0000 
     63 N         -28.9510   13.1415  -25.2875 N.am      2 SEC2        0.0000 
     64 N         -29.7440   14.0960  -25.7880 N.am      5 SEP2        0.0000 
     65 O         -29.5040   10.4400  -25.8995 O.2       1 ALC1        0.0000 
     66 O         -28.7170   10.0120  -24.7930 O.2       7 ALL1        0.0000 
     67 O         -30.2910   10.8680  -27.0060 O.2       4 ALP1        0.0000 
     68 N         -29.9585    7.9375  -25.9835 N.am      2 SEC2        0.0000 
     69 N         -29.1680    7.8050  -24.7130 N.am      8 SEL2        0.0000 
     70 N         -30.7490    8.0700  -27.2540 N.am      5 SEP2        0.0000 
     71 N         -27.1820    6.0705  -24.4025 N.am      2 SEC2        0.0000 
     72 N         -26.8510    7.1670  -23.5270 N.am      8 SEL2        0.0000 
     73 N         -27.5130    4.9740  -25.2780 N.am      5 SEP2        0.0000 
     74 CA        -22.5120    3.5090  -23.4310 C.3       3 GLC5        0.0000 
     75 CA        -23.7980    3.8060  -21.7160 C.3       9 GLL5        0.0000 
     76 CA        -21.2260    3.2120  -25.1460 C.3       6 GLP5        0.0000 
     77 CA        -24.6715    4.1760  -20.0855 C.3       3 GLC5        0.0000 
     78 CA        -25.5450    4.5460  -18.4550 C.3       6 GLP5        0.0000 
     79 CA        -21.7985    8.0270  -23.2090 C.3       3 GLC5        0.0000 
     80 CA        -23.5140    7.5910  -22.0790 C.3       9 GLL5        0.0000 
     81 CA        -20.0830    8.4630  -24.3390 C.3       6 GLP5        0.0000 
     82 CA        -25.5530   10.5945  -21.1415 C.3       3 GLC5        0.0000 
     83 CA        -24.1360   10.3420  -22.6800 C.3       9 GLL5        0.0000 
     84 CA        -26.9700   10.8470  -19.6030 C.3       6 GLP5        0.0000 
     85 CA        -24.7475   11.9165  -25.2430 C.3       3 GLC5        0.0000 
     86 CA        -23.3930   10.8220  -23.9080 C.3       9 GLL5        0.0000 
     87 CA        -26.1020   13.0110  -26.5780 C.3       6 GLP5        0.0000 
     88 CA        -22.6745   12.5240  -26.2170 C.3       3 GLC5        0.0000 
     89 CA        -21.5060   12.2990  -24.5990 C.3       9 GLL5        0.0000 
     90 CA        -23.8430   12.7490  -27.8350 C.3       6 GLP5        0.0000 
     91 N         -20.9960   11.7095  -26.8960 N.am      2 SEC2        0.0000 
     92 N         -21.0810   11.3130  -25.5130 N.am      8 SEL2        0.0000 
     93 N         -20.9110   12.1060  -28.2790 N.am      5 SEP2        0.0000 
     94 N         -17.7790   14.9805  -27.4835 N.am      2 SEC2        0.0000 
     95 N         -17.4080   14.5590  -26.0650 N.am      8 SEL2        0.0000 
     96 N         -18.1500   15.4020  -28.9020 N.am      5 SEP2        0.0000 
     97 N         -18.4020   16.3765  -22.9815 N.am      2 SEC2        0.0000 
     98 N         -18.1030   15.0430  -23.6550 N.am      8 SEL2        0.0000 
     99 N         -18.7010   17.7100  -22.3080 N.am      5 SEP2        0.0000 
    100 CA        -12.8407   12.6560  -24.5257 C.3       3 GLC5        0.0000 
    101 CA        -11.7890   14.1260  -23.5350 C.3       6 GLP5        0.0000 
    102 CA        -14.7696   10.8093  -27.3259 C.3       3 GLC5        0.0000 
    103 CA        -15.8850   11.3420  -28.8940 C.3       6 GLP5        0.0000 
    104 CA         -8.0637    9.0120  -25.0565 C.3       3 GLC5        0.0000 
    105 CA         -9.4913   12.4475  -23.5615 C.3       3 GLC5        0.0000 
    106 CA        -10.4620   14.1010  -22.7900 C.3       6 GLP5        0.0000 
    107 CA        -25.0117    6.5650  -20.7912 C.3       3 GLC5        0.0000 
    108 CA        -25.6380    6.8780  -22.9310 C.3       9 GLL5        0.0000 
    109 CA        -24.5350    6.9150  -18.8030 C.3       6 GLP5        0.0000 
    110 CA        -24.9397    5.3217  -24.0907 C.3       3 GLC5        0.0000 
    111 CA        -24.1260    5.2350  -22.0510 C.3       9 GLL5        0.0000 
    112 CA        -25.1470    5.2500  -25.8420 C.3       6 GLP5        0.0000 
    113 CA        -23.6702    6.3651  -20.1659 C.3       3 GLC5        0.0000 
    114 CA        -24.6935    7.1466  -24.1810 C.3       3 GLC5        0.0000 
    115 CA        -25.0370    6.8020  -25.9230 C.3       6 GLP5        0.0000 
    116 CA        -24.3295    7.3315  -20.5880 C.3       3 GLC5        0.0000 
    117 CA        -24.7340    7.9050  -22.6670 C.3       9 GLL5        0.0000 
    118 CA        -20.5950   13.0270  -26.3940 C.3       3 GLC5        0.0000 
    119 CA        -20.2800   13.3650  -28.4620 C.3       6 GLP5        0.0000 
    120 CA        -21.1152   10.1091  -24.2369 C.3       3 GLC5        0.0000 
    121 CA        -21.6185   14.6550  -24.1080 C.3       3 GLC5        0.0000 
    122 CA        -22.3270   16.6210  -23.8900 C.3       6 GLP5        0.0000 
@<TRIPOS>BOND
@<TRIPOS>SUBSTRUCTURE
     1 ALC1       18 GROUP        1 X    ALC  0     ROOT ALC X 1
     2 SEC2        1 GROUP        1 X    SEC  0     **** SEC X 2
     3 GLC5        9 GROUP        1 X    GLC  0     **** GLC X 6
     4 ALP1       20 GROUP        1 Y    ALP  0     ROOT ALP Y 8
     5 SEP2        3 GROUP        1 Y    SEP  0     **** SEP Y 9
     6 GLP5       11 GROUP        1 Y    GLP  0     **** GLP Y 13
     7 ALL1       19 GROUP        1 Z    ALL  0     ROOT ALL Z 15
     8 SEL2        2 GROUP        1 Z    SEL  0     **** SEL Z 16
     9 GLL5       10 GROUP        1 Z    GLL  0     **** GLL Z 20
@<TRIPOS>SET

