#    Name: 3t37_FAD_1_ligand
#    Modification time : Mon Mar 24 19:03:43 2014

@<TRIPOS>MOLECULE
3t37_FAD_1_ligand
   84    89     1     0     0
SMALL
NO_CHARGES


@<TRIPOS>ATOM
      1 PA        -17.0340   11.3240  -24.9790 P.3       1 FAD601      0.0000 
      2 O1A       -17.0100   10.2560  -23.9150 O.co2     1 FAD601      0.0000 
      3 O2A       -18.1190   11.0820  -26.0170 O.co2     1 FAD601      0.0000 
      4 O5B       -15.6280   11.4190  -25.7490 O.3       1 FAD601      0.0000 
      5 C5B       -14.4120   11.4860  -25.0480 C.3       1 FAD601      0.0000 
      6 C4B       -13.3730   10.8860  -25.9850 C.3       1 FAD601      0.0000 
      7 O4B       -12.0750   11.2610  -25.5700 O.3       1 FAD601      0.0000 
      8 C3B       -13.4160    9.3670  -25.9990 C.3       1 FAD601      0.0000 
      9 O3B       -13.4360    8.9680  -27.3580 O.3       1 FAD601      0.0000 
     10 C2B       -12.1270    8.9770  -25.2840 C.3       1 FAD601      0.0000 
     11 O2B       -11.5940    7.7270  -25.6720 O.3       1 FAD601      0.0000 
     12 C1B       -11.2110   10.1410  -25.6360 C.3       1 FAD601      0.0000 
     13 N9A       -10.1570   10.3960  -24.6460 N.pl3     1 FAD601      0.0000 
     14 C8A       -10.3070   10.4530  -23.2820 C.2       1 FAD601      0.0000 
     15 N7A        -9.0960   10.7480  -22.7440 N.2       1 FAD601      0.0000 
     16 C5A        -8.1920   10.9000  -23.7290 C.ar      1 FAD601      0.0000 
     17 C6A        -6.8290   11.1980  -23.7240 C.ar      1 FAD601      0.0000 
     18 N6A        -6.1950   11.5250  -22.5930 N.pl3     1 FAD601      0.0000 
     19 N1A        -6.1590   11.2860  -24.9310 N.ar      1 FAD601      0.0000 
     20 C2A        -6.8290   11.0680  -26.1190 C.ar      1 FAD601      0.0000 
     21 N3A        -8.1760   10.7710  -26.1140 N.ar      1 FAD601      0.0000 
     22 C4A        -8.8490   10.6880  -24.9370 C.ar      1 FAD601      0.0000 
     23 N1        -26.6310   10.7840  -23.9080 N.2       1 FAD601      0.0000 
     24 C2        -27.8380   11.0350  -24.5140 C.2       1 FAD601      0.0000 
     25 O2        -28.1580   12.1870  -24.7870 O.2       1 FAD601      0.0000 
     26 N3        -28.7170   10.0120  -24.7930 N.am      1 FAD601      0.0000 
     27 C4        -28.3890    8.7200  -24.4630 C.2       1 FAD601      0.0000 
     28 O4        -29.1680    7.8050  -24.7130 O.2       1 FAD601      0.0000 
     29 C4X       -27.1720    8.4560  -23.8550 C.2       1 FAD601      0.0000 
     30 N5        -26.8510    7.1670  -23.5270 N.2       1 FAD601      0.0000 
     31 C5X       -25.6380    6.8780  -22.9310 C.ar      1 FAD601      0.0000 
     32 C6        -25.3390    5.5520  -22.6280 C.ar      1 FAD601      0.0000 
     33 C7        -24.1260    5.2350  -22.0510 C.ar      1 FAD601      0.0000 
     34 C7M       -23.7980    3.8060  -21.7160 C.3       1 FAD601      0.0000 
     35 C8        -23.2260    6.2540  -21.7820 C.ar      1 FAD601      0.0000 
     36 C8M       -21.9350    5.8860  -21.1410 C.3       1 FAD601      0.0000 
     37 C9        -23.5140    7.5910  -22.0790 C.ar      1 FAD601      0.0000 
     38 C9A       -24.7340    7.9050  -22.6670 C.ar      1 FAD601      0.0000 
     39 N10       -25.0670    9.2130  -22.9860 N.pl3     1 FAD601      0.0000 
     40 C10       -26.2850    9.4880  -23.5830 C.2       1 FAD601      0.0000 
     41 C1'       -24.1360   10.3420  -22.6800 C.3       1 FAD601      0.0000 
     42 C2'       -23.3930   10.8220  -23.9080 C.3       1 FAD601      0.0000 
     43 O2'       -22.9920    9.6990  -24.6590 O.3       1 FAD601      0.0000 
     44 C3'       -22.1850   11.6010  -23.4330 C.3       1 FAD601      0.0000 
     45 O3'       -22.5830   12.5630  -22.4700 O.3       1 FAD601      0.0000 
     46 C4'       -21.5060   12.2990  -24.5990 C.3       1 FAD601      0.0000 
     47 O4'       -21.0810   11.3130  -25.5130 O.3       1 FAD601      0.0000 
     48 C5'       -20.3140   13.0790  -24.0530 C.3       1 FAD601      0.0000 
     49 O5'       -19.4760   13.4580  -25.1090 O.3       1 FAD601      0.0000 
     50 P         -18.0030   14.0080  -24.7790 P.3       1 FAD601      0.0000 
     51 O1P       -17.4080   14.5590  -26.0650 O.co2     1 FAD601      0.0000 
     52 O2P       -18.1030   15.0430  -23.6550 O.co2     1 FAD601      0.0000 
     53 O3P       -17.1610   12.7510  -24.2410 O.3       1 FAD601      0.0000 
     54 H         -14.4203   10.8977  -24.1398 H         1 FAD601      0.0000 
     55 H         -14.1129   12.5021  -24.8263 H         1 FAD601      0.0000 
     56 H         -13.5697   11.2355  -26.9897 H         1 FAD601      0.0000 
     57 H         -14.2412    9.0553  -25.4368 H         1 FAD601      0.0000 
     58 H         -12.3237    9.0537  -24.2209 H         1 FAD601      0.0000 
     59 H         -10.8298   10.0143  -26.6043 H         1 FAD601      0.0000 
     60 H         -11.1224   10.3092  -22.8055 H         1 FAD601      0.0000 
     61 H          -6.7445   11.5013  -21.7579 H         1 FAD601      0.0000 
     62 H          -5.2282   11.7639  -22.6838 H         1 FAD601      0.0000 
     63 H          -6.3179   11.1279  -27.0156 H         1 FAD601      0.0000 
     64 H         -29.6199   10.2179  -25.2492 H         1 FAD601      0.0000 
     65 H         -26.0250    4.8139  -22.8361 H         1 FAD601      0.0000 
     66 H         -22.8351    8.3222  -21.8653 H         1 FAD601      0.0000 
     67 H         -23.4046   10.0235  -21.9223 H         1 FAD601      0.0000 
     68 H         -24.7024   11.1836  -22.2541 H         1 FAD601      0.0000 
     69 H         -24.0334   11.4772  -24.4549 H         1 FAD601      0.0000 
     70 H         -21.4763   10.8977  -23.0070 H         1 FAD601      0.0000 
     71 H         -22.1997   12.9871  -25.0280 H         1 FAD601      0.0000 
     72 H         -19.8043   12.4321  -23.3245 H         1 FAD601      0.0000 
     73 H         -20.7119   13.9435  -23.5023 H         1 FAD601      0.0000 
     74 H         -22.8893    3.7195  -21.3075 H         1 FAD601      0.0000 
     75 H         -24.4502    3.4181  -21.0648 H         1 FAD601      0.0000 
     76 H         -23.8114    3.2218  -22.5275 H         1 FAD601      0.0000 
     77 H         -21.4120    5.2436  -21.7012 H         1 FAD601      0.0000 
     78 H         -21.3533    6.6856  -20.9917 H         1 FAD601      0.0000 
     79 H         -22.0728    5.4532  -20.2501 H         1 FAD601      0.0000 
     80 H         -12.5789    9.3121  -27.7413 H         1 FAD601      0.0000 
     81 H         -11.4964    7.7845  -26.6656 H         1 FAD601      0.0000 
     82 H         -22.1930   10.0056  -25.1763 H         1 FAD601      0.0000 
     83 H         -21.8754   12.5305  -21.7641 H         1 FAD601      0.0000 
     84 H         -20.0852   11.3995  -25.5423 H         1 FAD601      0.0000 
@<TRIPOS>BOND
     1    2    1 ar   
     2    3    1 ar   
     3    4    1 1    
     4   53    1 1    
     5    5    4 1    
     6    6    5 1    
     7   54    5 1    
     8   55    5 1    
     9    7    6 1    
    10    8    6 1    
    11   56    6 1    
    12   12    7 1    
    13    9    8 1    
    14   10    8 1    
    15   57    8 1    
    16   80    9 1    
    17   11   10 1    
    18   12   10 1    
    19   58   10 1    
    20   81   11 1    
    21   13   12 1    
    22   59   12 1    
    23   14   13 1    
    24   22   13 1    
    25   15   14 2    
    26   60   14 1    
    27   16   15 1    
    28   17   16 ar   
    29   22   16 ar   
    30   18   17 1    
    31   19   17 ar   
    32   61   18 1    
    33   62   18 1    
    34   20   19 ar   
    35   21   20 ar   
    36   63   20 1    
    37   22   21 ar   
    38   24   23 1    
    39   40   23 2    
    40   25   24 2    
    41   26   24 am   
    42   27   26 am   
    43   64   26 1    
    44   28   27 2    
    45   29   27 1    
    46   30   29 2    
    47   40   29 1    
    48   31   30 1    
    49   32   31 ar   
    50   38   31 ar   
    51   33   32 ar   
    52   65   32 1    
    53   34   33 1    
    54   35   33 ar   
    55   74   34 1    
    56   75   34 1    
    57   76   34 1    
    58   36   35 1    
    59   37   35 ar   
    60   77   36 1    
    61   78   36 1    
    62   79   36 1    
    63   38   37 ar   
    64   66   37 1    
    65   39   38 1    
    66   40   39 1    
    67   41   39 1    
    68   42   41 1    
    69   67   41 1    
    70   68   41 1    
    71   43   42 1    
    72   44   42 1    
    73   69   42 1    
    74   82   43 1    
    75   45   44 1    
    76   46   44 1    
    77   70   44 1    
    78   83   45 1    
    79   47   46 1    
    80   48   46 1    
    81   71   46 1    
    82   84   47 1    
    83   49   48 1    
    84   72   48 1    
    85   73   48 1    
    86   50   49 1    
    87   51   50 ar   
    88   52   50 ar   
    89   53   50 1    
@<TRIPOS>SUBSTRUCTURE
     1 FAD601      1 GROUP   
@<TRIPOS>SET

