#    Name: 3o2m_46A_1_INTS_M
#    Modification time : Tue Mar 25 03:10:43 2014

@<TRIPOS>MOLECULE
3o2m_46A_1_INTS_M
   57     0     3     0     0
SMALL
NO_CHARGES


@<TRIPOS>ATOM
      1 CA         36.6095   83.6810   47.7300 C.3       1 GLC5        0.0000 
      2 CA         37.1450   82.1460   46.5290 C.3       3 GLL5        0.0000 
      3 CA         36.0740   85.2160   48.9310 C.3       2 GLP5        0.0000 
      4 CA         39.5625   88.4390   46.9190 C.3       1 GLC5        0.0000 
      5 CA         39.3830   86.6190   46.7160 C.3       3 GLL5        0.0000 
      6 CA         39.7420   90.2590   47.1220 C.3       2 GLP5        0.0000 
      7 CA         37.7655   83.9295   49.7450 C.3       1 GLC5        0.0000 
      8 CA         38.5730   82.0620   49.6850 C.3       3 GLL5        0.0000 
      9 CA         36.9580   85.7970   49.8050 C.3       2 GLP5        0.0000 
     10 CA         40.3700   84.9020   49.6610 C.3       1 GLC5        0.0000 
     11 CA         40.0680   85.7900   47.6360 C.3       3 GLL5        0.0000 
     12 CA         40.6720   84.0140   51.6860 C.3       2 GLP5        0.0000 
     13 CA         41.6250   84.9725   49.8465 C.3       1 GLC5        0.0000 
     14 CA         41.2180   86.3010   48.4510 C.3       3 GLL5        0.0000 
     15 CA         42.0320   83.6440   51.2420 C.3       2 GLP5        0.0000 
     16 CA         40.4800   88.2800   47.7865 C.3       1 GLC5        0.0000 
     17 CA         42.5515   87.8410   48.2545 C.3       1 GLC5        0.0000 
     18 CA         43.8850   89.3810   48.0580 C.3       2 GLP5        0.0000 
     19 CA         36.3830   88.2620   44.1490 C.3       1 GLC5        0.0000 
     20 CA         37.5110   86.8180   45.0020 C.3       3 GLL5        0.0000 
     21 CA         35.2550   89.7060   43.2960 C.3       2 GLP5        0.0000 
     22 CA         36.5190   87.0965   46.5430 C.3       1 GLC5        0.0000 
     23 CA         35.5270   87.3750   48.0840 C.3       2 GLP5        0.0000 
     24 CA         35.7280   81.7175   51.4715 C.3       1 GLC5        0.0000 
     25 CA         37.6640   80.8270   51.7550 C.3       3 GLL5        0.0000 
     26 CA         33.7920   82.6080   51.1880 C.3       2 GLP5        0.0000 
     27 CA         39.1815   81.7080   52.7500 C.3       1 GLC5        0.0000 
     28 CA         40.6990   82.5890   53.7450 C.3       2 GLP5        0.0000 
     29 CA         36.4850   80.8990   53.3550 C.3       1 GLC5        0.0000 
     30 CA         35.3060   80.9710   54.9550 C.3       2 GLP5        0.0000 
     31 CA         37.2347   79.3250   45.4985 C.3       1 GLC5        0.0000 
     32 CA         37.3730   81.4940   45.1750 C.3       3 GLL5        0.0000 
     33 CA         37.6080   77.5850   46.0480 C.3       2 GLP5        0.0000 
     34 CA         34.5767   80.3915   44.2350 C.3       1 GLC5        0.0000 
     35 CA         36.3500   80.6360   44.7230 C.3       3 GLL5        0.0000 
     36 CA         32.7510   80.4820   44.3630 C.3       2 GLP5        0.0000 
     37 CA         37.3115   78.8175   44.5645 C.3       1 GLC5        0.0000 
     38 CA         36.4550   79.9660   43.4910 C.3       3 GLL5        0.0000 
     39 CA         39.9582   77.1238   38.7632 C.3       1 GLC5        0.0000 
     40 CA         38.9410   77.7820   40.0180 C.3       3 GLL5        0.0000 
     41 CA         41.4450   76.4500   38.0340 C.3       2 GLP5        0.0000 
     42 CA         35.9248   77.3525   40.7080 C.3       1 GLC5        0.0000 
     43 CA         36.8570   78.6310   39.0770 C.3       3 GLL5        0.0000 
     44 CA         35.1000   75.6850   41.7680 C.3       2 GLP5        0.0000 
     45 CA         36.1950   79.8852   50.6988 C.3       1 GLC5        0.0000 
     46 CA         37.9900   80.7880   50.2600 C.3       3 GLL5        0.0000 
     47 CA         34.5630   78.9630   50.3900 C.3       2 GLP5        0.0000 
     48 CA         38.9660   79.6308   52.1437 C.3       1 GLC5        0.0000 
     49 CA         40.1050   78.4540   53.2800 C.3       2 GLP5        0.0000 
     50 CA         40.3062   80.6450   50.2853 C.3       1 GLC5        0.0000 
     51 CA         42.3310   79.8650   50.5980 C.3       2 GLP5        0.0000 
     52 CA         39.6466   82.8095   50.3926 C.3       1 GLC5        0.0000 
     53 CA         38.1300   88.2915   46.5675 C.3       1 GLC5        0.0000 
     54 CA         38.3050   86.0280   46.0020 C.3       3 GLL5        0.0000 
     55 CA         38.3520   90.1600   47.6330 C.3       2 GLP5        0.0000 
     56 CA         39.3054   87.0314   49.2833 C.3       1 GLC5        0.0000 
     57 CA         38.1390   87.8100   50.7530 C.3       2 GLP5        0.0000 
@<TRIPOS>BOND
@<TRIPOS>SUBSTRUCTURE
     1 GLC5        1 GROUP        1 X    GLC  0     ROOT GLC X 6
     2 GLP5        3 GROUP        1 Y    GLP  0     ROOT GLP Y 13
     3 GLL5        2 GROUP        1 Z    GLL  0     ROOT GLL Z 20
@<TRIPOS>SET

