#    Name: 3o2m_46A_1_ligand
#    Modification time : Tue Mar 25 03:10:43 2014

@<TRIPOS>MOLECULE
3o2m_46A_1_ligand
   58    61     1     0     0
SMALL
NO_CHARGES


@<TRIPOS>ATOM
      1 N1         37.9530   84.7360   46.1900 N.ar      1 46A701      0.0000 
      2 C5         37.1450   82.1460   46.5290 C.3       1 46A701      0.0000 
      3 C6         37.3730   81.4940   45.1750 C.ar      1 46A701      0.0000 
      4 C7         36.3500   80.6360   44.7230 C.ar      1 46A701      0.0000 
      5 C8         36.4550   79.9660   43.4910 C.ar      1 46A701      0.0000 
      6 C10        38.6050   80.9910   43.1090 C.ar      1 46A701      0.0000 
      7 C13        38.7560   78.5520   41.1860 C.ar      1 46A701      0.0000 
      8 C15        38.0020   77.8130   38.9670 C.ar      1 46A701      0.0000 
      9 C17        36.6420   79.4090   40.2190 C.ar      1 46A701      0.0000 
     10 C28        39.3830   86.6190   46.7160 C.ar      1 46A701      0.0000 
     11 C          37.9900   80.7880   50.2600 C.3       1 46A701      0.0000 
     12 C2         38.5730   82.0620   49.6850 C.3       1 46A701      0.0000 
     13 C3         38.9610   81.7850   48.2260 C.3       1 46A701      0.0000 
     14 N          38.2770   82.6930   47.2740 N.pl3     1 46A701      0.0000 
     15 C9         37.5750   80.1340   42.6710 C.ar      1 46A701      0.0000 
     16 C11        38.5150   81.6730   44.3550 C.ar      1 46A701      0.0000 
     17 C12        37.6660   79.3700   41.3570 C.ar      1 46A701      0.0000 
     18 C14        38.9410   77.7820   40.0180 C.ar      1 46A701      0.0000 
     19 C16        36.8570   78.6310   39.0770 C.ar      1 46A701      0.0000 
     20 C18        35.4150   80.2220   40.2520 C.2       1 46A701      0.0000 
     21 N19        34.2010   79.7380   39.9440 N.2       1 46A701      0.0000 
     22 N20        33.2970   80.7330   40.0940 N.2       1 46A701      0.0000 
     23 N21        33.9700   81.8610   40.5040 N.pl3     1 46A701      0.0000 
     24 N22        35.2800   81.5310   40.5970 N.2       1 46A701      0.0000 
     25 C23        38.3050   86.0280   46.0020 C.ar      1 46A701      0.0000 
     26 C25        38.6580   84.0010   47.0960 C.ar      1 46A701      0.0000 
     27 N2         39.7060   84.4990   47.8110 N.ar      1 46A701      0.0000 
     28 C27        40.0680   85.7900   47.6360 C.ar      1 46A701      0.0000 
     29 C29        41.2180   86.3010   48.4510 C.3       1 46A701      0.0000 
     30 C30        37.5110   86.8180   45.0020 C.3       1 46A701      0.0000 
     31 C31        37.6640   80.8270   51.7550 C.3       1 46A701      0.0000 
     32 H          36.5950   81.3902   47.1775 H         1 46A701      0.0000 
     33 H          36.3604   82.9569   46.3836 H         1 46A701      0.0000 
     34 H          35.5117   80.4983   45.3061 H         1 46A701      0.0000 
     35 H          35.6909   79.3408   43.1903 H         1 46A701      0.0000 
     36 H          39.4377   81.1296   42.5227 H         1 46A701      0.0000 
     37 H          39.4794   78.4867   41.9344 H         1 46A701      0.0000 
     38 H          38.1484   77.2478   38.1315 H         1 46A701      0.0000 
     39 H          39.6411   87.5703   46.5735 H         1 46A701      0.0000 
     40 H          38.6960   79.9506   50.0762 H         1 46A701      0.0000 
     41 H          37.0631   80.5302   49.7050 H         1 46A701      0.0000 
     42 H          39.4533   82.3456   50.2369 H         1 46A701      0.0000 
     43 H          37.8373   82.8481   49.7117 H         1 46A701      0.0000 
     44 H          38.7137   80.7373   47.9978 H         1 46A701      0.0000 
     45 H          40.0526   81.8898   48.1351 H         1 46A701      0.0000 
     46 H          39.2693   82.2863   44.6536 H         1 46A701      0.0000 
     47 H          39.7774   77.1868   39.9324 H         1 46A701      0.0000 
     48 H          36.1767   78.6512   38.3058 H         1 46A701      0.0000 
     49 H          33.5767   82.7079   40.6848 H         1 46A701      0.0000 
     50 H          41.5919   85.5932   49.0504 H         1 46A701      0.0000 
     51 H          41.9685   86.6226   47.8736 H         1 46A701      0.0000 
     52 H          40.9482   87.0669   49.0346 H         1 46A701      0.0000 
     53 H          37.8401   87.7593   44.9266 H         1 46A701      0.0000 
     54 H          37.5604   86.4161   44.0876 H         1 46A701      0.0000 
     55 H          36.5433   86.8648   45.2497 H         1 46A701      0.0000 
     56 H          38.4759   81.0161   52.3073 H         1 46A701      0.0000 
     57 H          36.9916   81.5353   51.9702 H         1 46A701      0.0000 
     58 H          37.2872   79.9580   52.0757 H         1 46A701      0.0000 
@<TRIPOS>BOND
     1   25    1 ar   
     2   26    1 ar   
     3    3    2 1    
     4   14    2 1    
     5   32    2 1    
     6   33    2 1    
     7    4    3 ar   
     8   16    3 ar   
     9    5    4 ar   
    10   34    4 1    
    11   15    5 ar   
    12   35    5 1    
    13   15    6 ar   
    14   16    6 ar   
    15   36    6 1    
    16   17    7 ar   
    17   18    7 ar   
    18   37    7 1    
    19   18    8 ar   
    20   19    8 ar   
    21   38    8 1    
    22   17    9 ar   
    23   19    9 ar   
    24   20    9 1    
    25   25   10 ar   
    26   28   10 ar   
    27   39   10 1    
    28   12   11 1    
    29   31   11 1    
    30   40   11 1    
    31   41   11 1    
    32   13   12 1    
    33   42   12 1    
    34   43   12 1    
    35   14   13 1    
    36   44   13 1    
    37   45   13 1    
    38   26   14 1    
    39   17   15 1    
    40   46   16 1    
    41   47   18 1    
    42   48   19 1    
    43   21   20 1    
    44   24   20 2    
    45   22   21 2    
    46   23   22 1    
    47   24   23 1    
    48   49   23 1    
    49   30   25 1    
    50   27   26 ar   
    51   28   27 ar   
    52   29   28 1    
    53   50   29 1    
    54   51   29 1    
    55   52   29 1    
    56   53   30 1    
    57   54   30 1    
    58   55   30 1    
    59   56   31 1    
    60   57   31 1    
    61   58   31 1    
@<TRIPOS>SUBSTRUCTURE
     1 46A701      1 GROUP   
@<TRIPOS>SET

