#    Name: 2ejv_NAD_1_INTS_M
#    Modification time : Tue Mar 25 11:11:23 2014

@<TRIPOS>MOLECULE
2ejv_NAD_1_INTS_M
   84     0     9     0     0
SMALL
NO_CHARGES


@<TRIPOS>ATOM
      1 CA         69.5505    8.1800   38.6560 C.3       3 GLC5        0.0000 
      2 CA         68.9900    9.7530   37.3890 C.3       9 GLL5        0.0000 
      3 CA         70.1110    6.6070   39.9230 C.3       6 GLP5        0.0000 
      4 CA         71.4540   10.3445   35.2355 C.3       3 GLC5        0.0000 
      5 CA         69.3620    9.9730   35.9250 C.3       9 GLL5        0.0000 
      6 CA         73.5460   10.7160   34.5460 C.3       6 GLP5        0.0000 
      7 N          71.4520   11.6375   35.3515 N.am      2 SEC2        0.0000 
      8 N          70.7840   10.1460   35.7720 N.am      8 SEL2        0.0000 
      9 N          72.1200   13.1290   34.9310 N.am      5 SEP2        0.0000 
     10 O          71.1970    8.7415   36.0670 O.2       1 ALC1        0.0000 
     11 O          70.7840   10.1460   35.7720 O.2       7 ALL1        0.0000 
     12 O          71.6100    7.3370   36.3620 O.2       4 ALP1        0.0000 
     13 O          70.5510    7.2520   34.3670 O.2       1 ALC1        0.0000 
     14 O          69.7480    8.1850   34.3080 O.2       7 ALL1        0.0000 
     15 O          71.3540    6.3190   34.4260 O.2       4 ALP1        0.0000 
     16 O          70.6790    7.7610   35.3350 O.2       1 ALC1        0.0000 
     17 CA         69.3025    7.2035   38.1460 C.3       3 GLC5        0.0000 
     18 CA         68.4940    7.8000   36.3690 C.3       9 GLL5        0.0000 
     19 CA         67.3090    7.4520   37.9020 C.3       3 GLC5        0.0000 
     20 CA         66.1240    7.1040   39.4350 C.3       6 GLP5        0.0000 
     21 CA         67.3280    1.9855   35.3510 C.3       3 GLC5        0.0000 
     22 CA         66.1310    3.5310   36.1350 C.3       9 GLL5        0.0000 
     23 CA         68.5250    0.4400   34.5670 C.3       6 GLP5        0.0000 
     24 CA         67.9550    3.2095   39.5950 C.3       3 GLC5        0.0000 
     25 CA         68.1380    3.4340   37.3940 C.3       9 GLL5        0.0000 
     26 CA         67.7720    2.9850   41.7960 C.3       6 GLP5        0.0000 
     27 CA         69.5755    1.8870   38.0915 C.3       3 GLC5        0.0000 
     28 CA         71.0130    0.3400   38.7890 C.3       6 GLP5        0.0000 
     29 CA         69.8425    3.6335   36.6060 C.3       3 GLC5        0.0000 
     30 CA         71.5470    3.8330   35.8180 C.3       6 GLP5        0.0000 
     31 CA         68.7415    3.7660   35.6695 C.3       3 GLC5        0.0000 
     32 CA         69.3450    4.0980   33.9450 C.3       6 GLP5        0.0000 
     33 CA         68.3315    1.9370   35.9805 C.3       3 GLC5        0.0000 
     34 CA         66.2570    3.2395   38.2615 C.3       3 GLC5        0.0000 
     35 CA         64.3760    3.0450   39.1290 C.3       6 GLP5        0.0000 
     36 CA         68.8295    6.0500   38.1955 C.3       3 GLC5        0.0000 
     37 CA         67.5480    5.4930   36.4680 C.3       9 GLL5        0.0000 
     38 CA         69.5475    4.6630   36.1430 C.3       3 GLC5        0.0000 
     39 N          72.1370   13.3440   41.5640 N.am      2 SEC2        0.0000 
     40 N          70.7570   13.0870   40.6960 N.am      8 SEL2        0.0000 
     41 N          73.5170   13.6010   42.4320 N.am      5 SEP2        0.0000 
     42 CA         69.2540   14.2565   43.3815 C.3       3 GLC5        0.0000 
     43 CA         68.0980   12.8560   42.1790 C.3       9 GLL5        0.0000 
     44 CA         70.4100   15.6570   44.5840 C.3       6 GLP5        0.0000 
     45 CA         68.7185   10.9910   42.8795 C.3       3 GLC5        0.0000 
     46 CA         69.3390    9.1260   43.5800 C.3       6 GLP5        0.0000 
     47 N          63.5480   12.8125   42.3350 N.am      2 SEC2        0.0000 
     48 N          64.5770   13.2510   41.1570 N.am      8 SEL2        0.0000 
     49 N          62.5190   12.3740   43.5130 N.am      5 SEP2        0.0000 
     50 CA         64.8860   12.8350   43.9285 C.3       3 GLC5        0.0000 
     51 CA         65.5420   14.7920   43.5390 C.3       9 GLL5        0.0000 
     52 CA         64.2300   10.8780   44.3180 C.3       6 GLP5        0.0000 
     53 CA         63.7125   14.8620   44.1415 C.3       3 GLC5        0.0000 
     54 CA         61.8830   14.9320   44.7440 C.3       6 GLP5        0.0000 
     55 CA         66.1915   14.2690   46.7350 C.3       3 GLC5        0.0000 
     56 CA         65.2030   15.6220   45.8240 C.3       9 GLL5        0.0000 
     57 CA         67.1800   12.9160   47.6460 C.3       6 GLP5        0.0000 
     58 N          65.2255   17.3305   50.6005 N.am      2 SEC2        0.0000 
     59 N          64.7030   17.1790   49.0630 N.am      8 SEL2        0.0000 
     60 N          65.7480   17.4820   52.1380 N.am      5 SEP2        0.0000 
     61 O          64.0460   13.8665   47.4470 O.2       1 ALC1        0.0000 
     62 O          63.9690   15.1170   48.3980 O.2       7 ALL1        0.0000 
     63 O          64.1230   12.6160   46.4960 O.2       4 ALP1        0.0000 
     64 O          64.0175   14.2430   49.6170 O.2       1 ALC1        0.0000 
     65 O          64.0660   13.3690   50.8360 O.2       4 ALP1        0.0000 
     66 CA         70.6615   10.8990   38.1675 C.3       3 GLC5        0.0000 
     67 CA         68.2980   10.9330   38.0290 C.3       9 GLL5        0.0000 
     68 CA         72.6790   11.4550   38.6260 C.3       6 GLP5        0.0000 
     69 CA         67.3455    9.3835   38.9475 C.3       3 GLC5        0.0000 
     70 CA         66.0470    8.4240   40.1860 C.3       6 GLP5        0.0000 
     71 CA         66.5528    6.1485   37.8203 C.3       3 GLC5        0.0000 
     72 CA         66.4150    4.8930   35.9430 C.3       9 GLL5        0.0000 
     73 CA         64.5400    5.1995   36.6040 C.3       3 GLC5        0.0000 
     74 CA         62.8070    6.1870   37.1690 C.3       6 GLP5        0.0000 
     75 CA         65.3245    3.6285   37.5840 C.3       3 GLC5        0.0000 
     76 CA         68.1277    4.4752   35.0993 C.3       3 GLC5        0.0000 
     77 CA         65.2290   12.1502   43.1227 C.3       3 GLC5        0.0000 
     78 CA         66.6040   13.0020   42.4350 C.3       9 GLL5        0.0000 
     79 CA         63.6015   15.4880   45.5562 C.3       3 GLC5        0.0000 
     80 CA         66.4487   15.3117   47.9050 C.3       3 GLC5        0.0000 
     81 CA         65.4370   16.4660   46.9130 C.3       9 GLL5        0.0000 
     82 CA         66.9730   13.6370   48.9630 C.3       6 GLP5        0.0000 
     83 CA         68.7117   16.4543   44.7953 C.3       3 GLC5        0.0000 
     84 CA         67.1370   17.6860   45.5600 C.3       9 GLL5        0.0000 
@<TRIPOS>BOND
@<TRIPOS>SUBSTRUCTURE
     1 ALC1       10 GROUP        1 X    ALC  0     ROOT ALC X 1
     2 SEC2        7 GROUP        1 X    SEC  0     **** SEC X 2
     3 GLC5        1 GROUP        1 X    GLC  0     **** GLC X 6
     4 ALP1       12 GROUP        1 Y    ALP  0     ROOT ALP Y 8
     5 SEP2        9 GROUP        1 Y    SEP  0     **** SEP Y 9
     6 GLP5        3 GROUP        1 Y    GLP  0     **** GLP Y 13
     7 ALL1       11 GROUP        1 Z    ALL  0     ROOT ALL Z 15
     8 SEL2        8 GROUP        1 Z    SEL  0     **** SEL Z 16
     9 GLL5        2 GROUP        1 Z    GLL  0     **** GLL Z 20
@<TRIPOS>SET

