#    Name: 2ejv_NAD_1_ligand
#    Modification time : Tue Mar 25 11:11:23 2014

@<TRIPOS>MOLECULE
2ejv_NAD_1_ligand
   70    74     1     0     0
SMALL
NO_CHARGES


@<TRIPOS>ATOM
      1 PA         68.9210   13.4810   37.8690 P.3       1 NAD1350     0.0000 
      2 O1A        70.0650   14.2430   37.3110 O.co2     1 NAD1350     0.0000 
      3 O2A        67.5870   13.5520   37.2200 O.co2     1 NAD1350     0.0000 
      4 O5B        69.3010   11.9170   37.9720 O.3       1 NAD1350     0.0000 
      5 C5B        68.2980   10.9330   38.0290 C.3       1 NAD1350     0.0000 
      6 C4B        68.9900    9.7530   37.3890 C.3       1 NAD1350     0.0000 
      7 O4B        68.0590    8.6760   37.3960 O.3       1 NAD1350     0.0000 
      8 C3B        69.3620    9.9730   35.9250 C.3       1 NAD1350     0.0000 
      9 O3B        70.7840   10.1460   35.7720 O.3       1 NAD1350     0.0000 
     10 C2B        68.8170    8.7480   35.2340 C.3       1 NAD1350     0.0000 
     11 O2B        69.7480    8.1850   34.3080 O.3       1 NAD1350     0.0000 
     12 C1B        68.4940    7.8000   36.3690 C.3       1 NAD1350     0.0000 
     13 N9A        67.4540    6.7680   36.0520 N.pl3     1 NAD1350     0.0000 
     14 C8A        66.3190    6.8900   35.3330 C.2       1 NAD1350     0.0000 
     15 N7A        65.6520    5.7130   35.2550 N.2       1 NAD1350     0.0000 
     16 C5A        66.4150    4.8930   35.9430 C.ar      1 NAD1350     0.0000 
     17 C6A        66.1310    3.5310   36.1350 C.ar      1 NAD1350     0.0000 
     18 N6A        65.0450    2.9680   35.6180 N.pl3     1 NAD1350     0.0000 
     19 N1A        67.0420    2.8510   36.8800 N.ar      1 NAD1350     0.0000 
     20 C2A        68.1380    3.4340   37.3940 C.ar      1 NAD1350     0.0000 
     21 N3A        68.4130    4.7450   37.2010 N.ar      1 NAD1350     0.0000 
     22 C4A        67.5480    5.4930   36.4680 C.ar      1 NAD1350     0.0000 
     23 O3         68.7620   13.9130   39.4150 O.3       1 NAD1350     0.0000 
     24 PN         69.7500   14.2000   40.6440 P.3       1 NAD1350     0.0000 
     25 O1N        70.2470   15.5810   40.5480 O.co2     1 NAD1350     0.0000 
     26 O2N        70.7570   13.0870   40.6960 O.co2     1 NAD1350     0.0000 
     27 O5D        68.7240   14.1220   41.8870 O.3       1 NAD1350     0.0000 
     28 C5D        68.0980   12.8560   42.1790 C.3       1 NAD1350     0.0000 
     29 C4D        66.6040   13.0020   42.4350 C.3       1 NAD1350     0.0000 
     30 O4D        66.3860   13.6460   43.6900 O.3       1 NAD1350     0.0000 
     31 C3D        65.8520   13.8430   41.4200 C.3       1 NAD1350     0.0000 
     32 O3D        64.5770   13.2510   41.1570 O.3       1 NAD1350     0.0000 
     33 C2D        65.7010   15.1910   42.0950 C.3       1 NAD1350     0.0000 
     34 O2D        64.5630   15.9180   41.5910 O.3       1 NAD1350     0.0000 
     35 C1D        65.5420   14.7920   43.5390 C.3       1 NAD1350     0.0000 
     36 N1N        65.9100   15.7800   44.6070 N.pl3     1 NAD1350     0.0000 
     37 C2N        65.2030   15.6220   45.8240 C.ar      1 NAD1350     0.0000 
     38 C3N        65.4370   16.4660   46.9130 C.ar      1 NAD1350     0.0000 
     39 C7N        64.6530   16.2670   48.2320 C.2       1 NAD1350     0.0000 
     40 O7N        64.7030   17.1790   49.0630 O.2       1 NAD1350     0.0000 
     41 N7N        63.9690   15.1170   48.3980 N.am      1 NAD1350     0.0000 
     42 C4N        66.4120   17.5070   46.7810 C.ar      1 NAD1350     0.0000 
     43 C5N        67.1370   17.6860   45.5600 C.ar      1 NAD1350     0.0000 
     44 C6N        66.8900   16.8170   44.4530 C.ar      1 NAD1350     0.0000 
     45 H          67.4393   11.1818   37.4422 H         1 NAD1350     0.0000 
     46 H          68.0332   10.6685   39.0308 H         1 NAD1350     0.0000 
     47 H          69.8643    9.4983   37.9400 H         1 NAD1350     0.0000 
     48 H          68.8017   10.8277   35.5846 H         1 NAD1350     0.0000 
     49 H          67.8832    9.0238   34.7675 H         1 NAD1350     0.0000 
     50 H          69.4188    7.3219   36.6678 H         1 NAD1350     0.0000 
     51 H          66.0113    7.7270   34.9162 H         1 NAD1350     0.0000 
     52 H          64.4225    3.5794   35.1295 H         1 NAD1350     0.0000 
     53 H          64.9479    1.9835   35.7639 H         1 NAD1350     0.0000 
     54 H          68.8094    2.8539   37.9679 H         1 NAD1350     0.0000 
     55 H          68.5500   12.3855   43.0703 H         1 NAD1350     0.0000 
     56 H          68.2307   12.1452   41.3440 H         1 NAD1350     0.0000 
     57 H          66.1494   12.0144   42.4543 H         1 NAD1350     0.0000 
     58 H          66.4545   13.9524   40.5600 H         1 NAD1350     0.0000 
     59 H          66.6216   15.7144   41.9905 H         1 NAD1350     0.0000 
     60 H          64.5071   14.4641   43.6910 H         1 NAD1350     0.0000 
     61 H          64.5038   14.8672   45.8999 H         1 NAD1350     0.0000 
     62 H          63.4743   15.0200   49.2616 H         1 NAD1350     0.0000 
     63 H          64.0172   14.4634   47.6427 H         1 NAD1350     0.0000 
     64 H          66.5921   18.1303   47.5699 H         1 NAD1350     0.0000 
     65 H          67.8237   18.4277   45.4818 H         1 NAD1350     0.0000 
     66 H          67.3872   16.9266   43.5895 H         1 NAD1350     0.0000 
     67 H          71.1730    9.2375   35.9245 H         1 NAD1350     0.0000 
     68 H          70.4743    7.7967   34.8752 H         1 NAD1350     0.0000 
     69 H          63.9228   14.0040   41.2272 H         1 NAD1350     0.0000 
     70 H          64.9328   16.5176   40.8813 H         1 NAD1350     0.0000 
@<TRIPOS>BOND
     1    2    1 ar   
     2    3    1 ar   
     3    4    1 1    
     4   23    1 1    
     5    5    4 1    
     6    6    5 1    
     7   45    5 1    
     8   46    5 1    
     9    7    6 1    
    10    8    6 1    
    11   47    6 1    
    12   12    7 1    
    13    9    8 1    
    14   10    8 1    
    15   48    8 1    
    16   67    9 1    
    17   11   10 1    
    18   12   10 1    
    19   49   10 1    
    20   68   11 1    
    21   13   12 1    
    22   50   12 1    
    23   14   13 1    
    24   22   13 1    
    25   15   14 2    
    26   51   14 1    
    27   16   15 1    
    28   17   16 ar   
    29   22   16 ar   
    30   18   17 1    
    31   19   17 ar   
    32   52   18 1    
    33   53   18 1    
    34   20   19 ar   
    35   21   20 ar   
    36   54   20 1    
    37   22   21 ar   
    38   24   23 1    
    39   25   24 ar   
    40   26   24 ar   
    41   27   24 1    
    42   28   27 1    
    43   29   28 1    
    44   55   28 1    
    45   56   28 1    
    46   30   29 1    
    47   31   29 1    
    48   57   29 1    
    49   35   30 1    
    50   32   31 1    
    51   33   31 1    
    52   58   31 1    
    53   69   32 1    
    54   34   33 1    
    55   35   33 1    
    56   59   33 1    
    57   70   34 1    
    58   36   35 1    
    59   60   35 1    
    60   37   36 ar   
    61   44   36 ar   
    62   38   37 ar   
    63   61   37 1    
    64   39   38 1    
    65   42   38 ar   
    66   40   39 2    
    67   41   39 am   
    68   62   41 1    
    69   63   41 1    
    70   43   42 ar   
    71   64   42 1    
    72   44   43 ar   
    73   65   43 1    
    74   66   44 1    
@<TRIPOS>SUBSTRUCTURE
     1 NAD1350     1 GROUP   
@<TRIPOS>SET

