#    Name: 1KI4_2_CAVITY_N1_6.mol2
#    Modification time : Tue Mar 11 13:34:56 2014

@<TRIPOS>MOLECULE
1KI4_2_CAVITY_N1_6.mol2
   60     0     7     0     0
SMALL
NO_CHARGES


@<TRIPOS>ATOM
      1 CZ         21.7263   97.1345   45.6950 C.ar      5 PHE5        0.0000 
      2 OG         19.6456   96.8527   45.3929 O.2       1 SER1        0.0000 
      3 OG         17.5649   96.5709   45.0908 O.2       1 SER1        0.0000 
      4 CA         18.6259   95.8691   45.8856 C.3       6 GLY6        0.0000 
      5 O          16.5452   95.5872   45.5835 O.2       2 ALA2        0.0000 
      6 CA         17.6062   94.8854   46.3783 C.3       6 GLY6        0.0000 
      7 CZ         20.8496   91.6121   41.9890 C.ar      5 PHE5        0.0000 
      8 CZ         21.9107   90.9103   42.7838 C.ar      5 PHE5        0.0000 
      9 CA         22.9717   90.2085   43.5786 C.3       6 GLY6        0.0000 
     10 O          19.8300   90.6285   42.4817 O.2       2 ALA2        0.0000 
     11 CA         20.8910   89.9267   43.2765 C.3       6 GLY6        0.0000 
     12 CA         21.9520   89.2249   44.0713 C.3       6 GLY6        0.0000 
     13 OG         19.8713   88.9430   43.7692 O.2       1 SER1        0.0000 
     14 CZ         20.9324   88.2412   44.5640 C.ar      5 PHE5        0.0000 
     15 CA         21.1817   89.0379   42.1036 C.3       6 GLY6        0.0000 
     16 CA         22.2427   88.3361   42.8984 C.3       6 GLY6        0.0000 
     17 OG         20.9559   96.9475   43.7273 O.2       1 SER1        0.0000 
     18 CZ         22.0169   96.2457   44.5221 C.ar      5 PHE5        0.0000 
     19 CA         23.0780   95.5439   45.3169 C.3       6 GLY6        0.0000 
     20 OG         18.8752   96.6657   43.4252 O.2       1 SER1        0.0000 
     21 OG         19.9362   95.9639   44.2200 O.2       1 SER1        0.0000 
     22 CA         20.9973   95.2621   45.0148 C.3       6 GLY6        0.0000 
     23 CA         22.0583   94.5603   45.8096 C.3       6 GLY6        0.0000 
     24 CA         16.7945   96.3839   43.1232 C.3       6 GLY6        0.0000 
     25 CA         17.8555   95.6821   43.9179 C.3       6 GLY6        0.0000 
     26 DU         18.9166   94.9803   44.7127 H         7 CUB7        0.0000 
     27 CA         19.9776   94.2785   45.5075 C.3       6 GLY6        0.0000 
     28 OD1        15.7748   95.4002   43.6159 O.3       3 ASP3        0.0000 
     29 O          16.8359   94.6984   44.4106 O.2       2 ALA2        0.0000 
     30 CZ         17.8969   93.9966   45.2054 C.ar      5 PHE5        0.0000 
     31 CA         18.9579   93.2948   46.0002 C.3       6 GLY6        0.0000 
     32 OG         19.1659   95.7769   42.2524 O.2       1 SER1        0.0000 
     33 CZ         20.2269   95.0751   43.0472 C.ar      5 PHE5        0.0000 
     34 CZ         21.2879   94.3733   43.8420 C.ar      5 PHE5        0.0000 
     35 CA         22.3490   93.6715   44.6368 C.3       6 GLY6        0.0000 
     36 CA         23.4100   92.9697   45.4316 C.3       6 GLY6        0.0000 
     37 OG         18.1462   94.7933   42.7451 O.2       1 SER1        0.0000 
     38 CZ         19.2072   94.0915   43.5399 C.ar      5 PHE5        0.0000 
     39 CA         20.2683   93.3897   44.3347 C.3       6 GLY6        0.0000 
     40 CA         21.3293   92.6879   45.1295 C.3       6 GLY6        0.0000 
     41 CA         16.0655   94.5114   42.4430 C.3       6 GLY6        0.0000 
     42 NZ         17.1265   93.8096   43.2378 N.2       4 LYS4        0.0000 
     43 NZ         18.1876   93.1078   44.0326 N.2       4 LYS4        0.0000 
     44 CZ         19.2486   92.4060   44.8274 C.ar      5 PHE5        0.0000 
     45 CA         20.3096   91.7043   45.6222 C.3       6 GLY6        0.0000 
     46 O          12.9238   94.9314   41.3461 O.2       2 ALA2        0.0000 
     47 O          13.9848   94.2296   42.1409 O.2       2 ALA2        0.0000 
     48 CZ         22.6396   92.7827   43.4639 C.ar      5 PHE5        0.0000 
     49 O          23.7007   92.0809   44.2587 O.2       2 ALA2        0.0000 
     50 O          18.4369   93.9045   41.5723 O.2       2 ALA2        0.0000 
     51 CZ         19.4979   93.2027   42.3671 C.ar      5 PHE5        0.0000 
     52 CZ         20.5589   92.5009   43.1618 C.ar      5 PHE5        0.0000 
     53 CZ         21.6200   91.7991   43.9566 C.ar      5 PHE5        0.0000 
     54 CA         22.6810   91.0973   44.7514 C.3       6 GLY6        0.0000 
     55 CA         18.4782   92.2190   42.8597 C.3       6 GLY6        0.0000 
     56 CA         19.5393   91.5173   43.6545 C.3       6 GLY6        0.0000 
     57 CZ         20.6003   90.8155   44.4493 C.ar      5 PHE5        0.0000 
     58 CA         21.6614   90.1137   45.2441 C.3       6 GLY6        0.0000 
     59 CA         18.5196   90.5336   44.1472 C.3       6 GLY6        0.0000 
     60 CZ         19.5807   89.8318   44.9420 C.ar      5 PHE5        0.0000 
@<TRIPOS>BOND
@<TRIPOS>SUBSTRUCTURE
     1 SER1        2 GROUP   
     2 ALA2        5 GROUP   
     3 ASP3       28 GROUP   
     4 LYS4       42 GROUP   
     5 PHE5        1 GROUP   
     6 GLY6        4 GROUP   
     7 CUB7       26 GROUP   
@<TRIPOS>SET

