#    Name: 1KI4_2_CAVITY_N1_ALL.mol2
#    Modification time : Tue Mar 11 13:34:56 2014

@<TRIPOS>MOLECULE
1KI4_2_CAVITY_N1_ALL.mol2
   82     0     7     0     0
SMALL
NO_CHARGES


@<TRIPOS>ATOM
      1 CA          8.9100   98.0177   43.7678 C.3       6 GLY6        0.0000 
      2 N           9.9711   97.3159   44.5626 N.2       2 ALA2        0.0000 
      3 O           8.9514   96.3323   45.0553 O.2       2 ALA2        0.0000 
      4 O          10.0124   95.6305   45.8501 O.2       2 ALA2        0.0000 
      5 CZ         21.7263   97.1345   45.6950 C.ar      5 PHE5        0.0000 
      6 OG         19.6456   96.8527   45.3929 O.2       1 SER1        0.0000 
      7 OG         17.5649   96.5709   45.0908 O.2       1 SER1        0.0000 
      8 CA         18.6259   95.8691   45.8856 C.3       6 GLY6        0.0000 
      9 O          16.5452   95.5872   45.5835 O.2       2 ALA2        0.0000 
     10 CA         17.6062   94.8854   46.3783 C.3       6 GLY6        0.0000 
     11 O          11.2814   97.4108   42.8970 O.2       2 ALA2        0.0000 
     12 CA          9.2007   97.1289   42.5949 C.3       6 GLY6        0.0000 
     13 O          10.2617   96.4271   43.3897 O.2       2 ALA2        0.0000 
     14 OG          9.2421   95.4435   43.8824 O.2       1 SER1        0.0000 
     15 O          10.3031   94.7417   44.6772 O.2       2 ALA2        0.0000 
     16 OG          8.2224   94.4599   44.3751 O.2       1 SER1        0.0000 
     17 OG          9.2834   93.7581   45.1699 O.2       1 SER1        0.0000 
     18 N           9.6804   98.2047   45.7354 N.2       2 ALA2        0.0000 
     19 N          10.7414   97.5029   46.5302 N.2       2 ALA2        0.0000 
     20 CZ         20.8496   91.6121   41.9890 C.ar      5 PHE5        0.0000 
     21 CZ         21.9107   90.9103   42.7838 C.ar      5 PHE5        0.0000 
     22 CA         22.9717   90.2085   43.5786 C.3       6 GLY6        0.0000 
     23 O          19.8300   90.6285   42.4817 O.2       2 ALA2        0.0000 
     24 CA         20.8910   89.9267   43.2765 C.3       6 GLY6        0.0000 
     25 CA         21.9520   89.2249   44.0713 C.3       6 GLY6        0.0000 
     26 OG         19.8713   88.9430   43.7692 O.2       1 SER1        0.0000 
     27 CZ         20.9324   88.2412   44.5640 C.ar      5 PHE5        0.0000 
     28 CA         21.1817   89.0379   42.1036 C.3       6 GLY6        0.0000 
     29 CA         22.2427   88.3361   42.8984 C.3       6 GLY6        0.0000 
     30 OG         20.9559   96.9475   43.7273 O.2       1 SER1        0.0000 
     31 CZ         22.0169   96.2457   44.5221 C.ar      5 PHE5        0.0000 
     32 CA         23.0780   95.5439   45.3169 C.3       6 GLY6        0.0000 
     33 OG         18.8752   96.6657   43.4252 O.2       1 SER1        0.0000 
     34 OG         19.9362   95.9639   44.2200 O.2       1 SER1        0.0000 
     35 CA         20.9973   95.2621   45.0148 C.3       6 GLY6        0.0000 
     36 CA         22.0583   94.5603   45.8096 C.3       6 GLY6        0.0000 
     37 CA         16.7945   96.3839   43.1232 C.3       6 GLY6        0.0000 
     38 CA         17.8555   95.6821   43.9179 C.3       6 GLY6        0.0000 
     39 DU         18.9166   94.9803   44.7127 H         7 CUB7        0.0000 
     40 CA         19.9776   94.2785   45.5075 C.3       6 GLY6        0.0000 
     41 OD1        15.7748   95.4002   43.6159 O.3       3 ASP3        0.0000 
     42 O          16.8359   94.6984   44.4106 O.2       2 ALA2        0.0000 
     43 CZ         17.8969   93.9966   45.2054 C.ar      5 PHE5        0.0000 
     44 CA         18.9579   93.2948   46.0002 C.3       6 GLY6        0.0000 
     45 O          11.5721   96.5220   41.7242 O.2       2 ALA2        0.0000 
     46 CA          9.4914   96.2401   41.4221 C.3       6 GLY6        0.0000 
     47 O          10.5524   95.5383   42.2169 O.2       2 ALA2        0.0000 
     48 OG          8.4717   95.2565   41.9148 O.2       1 SER1        0.0000 
     49 OG         10.5938   93.8529   43.5044 O.2       1 SER1        0.0000 
     50 OG         19.1659   95.7769   42.2524 O.2       1 SER1        0.0000 
     51 CZ         20.2269   95.0751   43.0472 C.ar      5 PHE5        0.0000 
     52 CZ         21.2879   94.3733   43.8420 C.ar      5 PHE5        0.0000 
     53 CA         22.3490   93.6715   44.6368 C.3       6 GLY6        0.0000 
     54 CA         23.4100   92.9697   45.4316 C.3       6 GLY6        0.0000 
     55 OG         18.1462   94.7933   42.7451 O.2       1 SER1        0.0000 
     56 CZ         19.2072   94.0915   43.5399 C.ar      5 PHE5        0.0000 
     57 CA         20.2683   93.3897   44.3347 C.3       6 GLY6        0.0000 
     58 CA         21.3293   92.6879   45.1295 C.3       6 GLY6        0.0000 
     59 CA         16.0655   94.5114   42.4430 C.3       6 GLY6        0.0000 
     60 NZ         17.1265   93.8096   43.2378 N.2       4 LYS4        0.0000 
     61 NZ         18.1876   93.1078   44.0326 N.2       4 LYS4        0.0000 
     62 CZ         19.2486   92.4060   44.8274 C.ar      5 PHE5        0.0000 
     63 CA         20.3096   91.7043   45.6222 C.3       6 GLY6        0.0000 
     64 O          11.8627   95.6332   40.5513 O.2       2 ALA2        0.0000 
     65 O          12.9238   94.9314   41.3461 O.2       2 ALA2        0.0000 
     66 O          13.9848   94.2296   42.1409 O.2       2 ALA2        0.0000 
     67 CA          9.7820   95.3513   40.2493 C.3       6 GLY6        0.0000 
     68 O          10.8431   94.6495   41.0440 O.2       2 ALA2        0.0000 
     69 O          11.9041   93.9477   41.8388 O.2       2 ALA2        0.0000 
     70 CZ         22.6396   92.7827   43.4639 C.ar      5 PHE5        0.0000 
     71 O          23.7007   92.0809   44.2587 O.2       2 ALA2        0.0000 
     72 O          18.4369   93.9045   41.5723 O.2       2 ALA2        0.0000 
     73 CZ         19.4979   93.2027   42.3671 C.ar      5 PHE5        0.0000 
     74 CZ         20.5589   92.5009   43.1618 C.ar      5 PHE5        0.0000 
     75 CZ         21.6200   91.7991   43.9566 C.ar      5 PHE5        0.0000 
     76 CA         22.6810   91.0973   44.7514 C.3       6 GLY6        0.0000 
     77 CA         18.4782   92.2190   42.8597 C.3       6 GLY6        0.0000 
     78 CA         19.5393   91.5173   43.6545 C.3       6 GLY6        0.0000 
     79 CZ         20.6003   90.8155   44.4493 C.ar      5 PHE5        0.0000 
     80 CA         21.6614   90.1137   45.2441 C.3       6 GLY6        0.0000 
     81 CA         18.5196   90.5336   44.1472 C.3       6 GLY6        0.0000 
     82 CZ         19.5807   89.8318   44.9420 C.ar      5 PHE5        0.0000 
@<TRIPOS>BOND
@<TRIPOS>SUBSTRUCTURE
     1 SER1        6 GROUP   
     2 ALA2        2 GROUP   
     3 ASP3       41 GROUP   
     4 LYS4       60 GROUP   
     5 PHE5        5 GROUP   
     6 GLY6        1 GROUP   
     7 CUB7       39 GROUP   
@<TRIPOS>SET

