#    Name: 1ki4_BTD_2_INTS_M
#    Modification time : Tue Mar 25 10:03:07 2014

@<TRIPOS>MOLECULE
1ki4_BTD_2_INTS_M
   59     0     9     0     0
SMALL
NO_CHARGES


@<TRIPOS>ATOM
      1 CA         16.9965   93.0885   46.5485 C.3       3 GLC5        0.0000 
      2 CA         16.9490   94.6050   45.2350 C.3       9 GLL5        0.0000 
      3 CA         17.0440   91.5720   47.8620 C.3       6 GLP5        0.0000 
      4 CA         15.3690   95.3475   46.4480 C.3       3 GLC5        0.0000 
      5 CA         13.7890   96.0900   47.6610 C.3       6 GLP5        0.0000 
      6 CA         16.3005   96.4035   46.7900 C.3       3 GLC5        0.0000 
      7 CA         17.6410   95.8500   45.3890 C.3       9 GLL5        0.0000 
      8 CA         14.9600   96.9570   48.1910 C.3       6 GLP5        0.0000 
      9 CA         20.1555   97.8460   45.4920 C.3       3 GLC5        0.0000 
     10 CA         19.8710   95.9860   44.7410 C.3       9 GLL5        0.0000 
     11 CA         20.4400   99.7060   46.2430 C.3       6 GLP5        0.0000 
     12 CA         20.5520   94.6705   46.2950 C.3       3 GLC5        0.0000 
     13 CA         21.2330   93.3550   47.8490 C.3       6 GLP5        0.0000 
     14 CA         20.7815   93.4670   42.2720 C.3       3 GLC5        0.0000 
     15 CA         20.3740   93.4750   44.3920 C.3       9 GLL5        0.0000 
     16 CA         21.1890   93.4590   40.1520 C.3       6 GLP5        0.0000 
     17 O          24.7195   94.1900   44.7630 O.2       1 ALC1        0.0000 
     18 O          23.0060   94.1580   44.4280 O.2       7 ALL1        0.0000 
     19 O          26.4330   94.2220   45.0980 O.2       4 ALP1        0.0000 
     20 N          25.0405   92.0795   44.3360 N.am      2 SEC2        0.0000 
     21 N          23.6450   92.1350   44.1060 N.am      8 SEL2        0.0000 
     22 N          26.4360   92.0240   44.5660 N.am      5 SEP2        0.0000 
     23 CA         21.8455   92.7430   42.3905 C.3       3 GLC5        0.0000 
     24 CA         21.2490   92.4610   44.2220 C.3       9 GLL5        0.0000 
     25 CA         22.4420   93.0250   40.5590 C.3       6 GLP5        0.0000 
     26 CA         20.9475   86.2115   44.2120 C.3       3 GLC5        0.0000 
     27 CA         21.3080   87.0240   42.7950 C.3       9 GLL5        0.0000 
     28 CA         20.5870   85.3990   45.6290 C.3       6 GLP5        0.0000 
     29 CA         22.2405   85.3260   41.8930 C.3       3 GLC5        0.0000 
     30 CA         23.1730   83.6280   40.9910 C.3       6 GLP5        0.0000 
     31 CA         21.5170   87.9140   41.1935 C.3       3 GLC5        0.0000 
     32 CA         21.7260   88.8040   39.5920 C.3       6 GLP5        0.0000 
     33 CA         22.9795   87.5765   43.2390 C.3       3 GLC5        0.0000 
     34 CA         24.6510   88.1290   43.6830 C.3       6 GLP5        0.0000 
     35 CA         18.8425   97.0440   41.9660 C.3       3 GLC5        0.0000 
     36 CA         18.9560   96.3200   43.6600 C.3       9 GLL5        0.0000 
     37 CA         18.7290   97.7680   40.2720 C.3       6 GLP5        0.0000 
     38 CA         17.5525   97.2905   42.4550 C.3       3 GLC5        0.0000 
     39 CA         17.6780   96.7600   44.2740 C.3       9 GLL5        0.0000 
     40 CA         17.4270   97.8210   40.6360 C.3       6 GLP5        0.0000 
     41 O          18.7700   98.6755   44.4635 O.2       1 ALC1        0.0000 
     42 O          17.8620   97.9330   44.9220 O.2       7 ALL1        0.0000 
     43 O          19.6780   99.4180   44.0050 O.2       4 ALP1        0.0000 
     44 CA         17.5275   95.3218   47.0795 C.3       3 GLC5        0.0000 
     45 CA         17.7600   95.4160   48.8470 C.3       6 GLP5        0.0000 
     46 CA         20.6062   95.9400   42.4737 C.3       3 GLC5        0.0000 
     47 CA         21.7990   95.7270   40.7470 C.3       6 GLP5        0.0000 
     48 CA         21.0326   92.6967   46.0185 C.3       3 GLC5        0.0000 
     49 CA         18.6369   90.0072   42.8821 C.3       3 GLC5        0.0000 
     50 CA         19.5920   89.2150   44.1340 C.3       9 GLL5        0.0000 
     51 CA         17.3450   89.9920   41.5710 C.3       6 GLP5        0.0000 
     52 CA         19.3410   87.7280   42.0412 C.3       3 GLC5        0.0000 
     53 CA         20.6860   88.6580   43.4860 C.3       9 GLL5        0.0000 
     54 CA         17.6850   87.6150   40.9420 C.3       6 GLP5        0.0000 
     55 CA         21.5072   89.0230   41.4740 C.3       3 GLC5        0.0000 
     56 CA         22.9698   88.6855   43.5195 C.3       3 GLC5        0.0000 
     57 CA         21.8910   89.8260   43.2260 C.3       9 GLL5        0.0000 
     58 CA         19.2280   98.3835   44.4820 C.3       3 GLC5        0.0000 
     59 CA         20.1390  100.2270   44.9970 C.3       6 GLP5        0.0000 
@<TRIPOS>BOND
@<TRIPOS>SUBSTRUCTURE
     1 ALC1       17 GROUP        1 X    ALC  0     ROOT ALC X 1
     2 SEC2       20 GROUP        1 X    SEC  0     **** SEC X 2
     3 GLC5        1 GROUP        1 X    GLC  0     **** GLC X 6
     4 ALP1       19 GROUP        1 Y    ALP  0     ROOT ALP Y 8
     5 SEP2       22 GROUP        1 Y    SEP  0     **** SEP Y 9
     6 GLP5        3 GROUP        1 Y    GLP  0     **** GLP Y 13
     7 ALL1       18 GROUP        1 Z    ALL  0     ROOT ALL Z 15
     8 SEL2       21 GROUP        1 Z    SEL  0     **** SEL Z 16
     9 GLL5        2 GROUP        1 Z    GLL  0     **** GLL Z 20
@<TRIPOS>SET

