#    Name: 1ki4_BTD_2_ligand
#    Modification time : Tue Mar 25 10:03:07 2014

@<TRIPOS>MOLECULE
1ki4_BTD_2_ligand
   35    37     1     0     0
SMALL
NO_CHARGES


@<TRIPOS>ATOM
      1 O5'        17.5440   93.9230   44.1300 O.3       1 BTD2        0.0000 
      2 C5'        16.9490   94.6050   45.2350 C.3       1 BTD2        0.0000 
      3 C4'        17.6410   95.8500   45.3890 C.3       1 BTD2        0.0000 
      4 O4'        19.0020   95.4720   45.7050 O.3       1 BTD2        0.0000 
      5 C1'        19.8710   95.9860   44.7410 C.3       1 BTD2        0.0000 
      6 N1         20.7950   94.8020   44.5360 N.am      1 BTD2        0.0000 
      7 C6         20.3740   93.4750   44.3920 C.2       1 BTD2        0.0000 
      8 C2         22.1290   95.1500   44.5550 C.2       1 BTD2        0.0000 
      9 O2         22.5190   96.3110   44.6790 O.2       1 BTD2        0.0000 
     10 N3         23.0060   94.1580   44.4280 N.am      1 BTD2        0.0000 
     11 C4         22.6740   92.8490   44.2430 C.2       1 BTD2        0.0000 
     12 O4         23.6450   92.1350   44.1060 O.2       1 BTD2        0.0000 
     13 C5         21.2490   92.4610   44.2220 C.2       1 BTD2        0.0000 
     14 C55        20.8530   91.1090   44.0690 C.2       1 BTD2        0.0000 
     15 C44        19.6780   90.5510   44.4360 C.2       1 BTD2        0.0000 
     16 C33        19.5920   89.2150   44.1340 C.2       1 BTD2        0.0000 
     17 C22        20.6860   88.6580   43.4860 C.2       1 BTD2        0.0000 
     18 S11        21.8910   89.8260   43.2260 S.3       1 BTD2        0.0000 
     19 BR         21.3080   87.0240   42.7950 Br        1 BTD2        0.0000 
     20 C2'        18.9560   96.3200   43.6600 C.3       1 BTD2        0.0000 
     21 C3'        17.6780   96.7600   44.2740 C.3       1 BTD2        0.0000 
     22 O3'        17.8620   97.9330   44.9220 O.3       1 BTD2        0.0000 
     23 H          17.0356   94.0053   46.1485 H         1 BTD2        0.0000 
     24 H          15.8833   94.7818   45.0488 H         1 BTD2        0.0000 
     25 H          17.2523   96.3706   46.2840 H         1 BTD2        0.0000 
     26 H          20.3926   96.8049   45.1122 H         1 BTD2        0.0000 
     27 H          19.3441   93.2846   44.4199 H         1 BTD2        0.0000 
     28 H          24.0543   94.3916   44.4726 H         1 BTD2        0.0000 
     29 H          18.9428   91.0491   44.8807 H         1 BTD2        0.0000 
     30 H          18.7832   88.6625   44.3664 H         1 BTD2        0.0000 
     31 H          18.7750   95.4524   43.0281 H         1 BTD2        0.0000 
     32 H          19.3608   97.1247   43.0490 H         1 BTD2        0.0000 
     33 H          16.8958   96.6531   43.6713 H         1 BTD2        0.0000 
     34 H          17.3234   94.4829   43.3313 H         1 BTD2        0.0000 
     35 H          18.8329   98.1427   44.8065 H         1 BTD2        0.0000 
@<TRIPOS>BOND
     1    2    1 1    
     2   34    1 1    
     3    3    2 1    
     4   23    2 1    
     5   24    2 1    
     6    4    3 1    
     7   21    3 1    
     8   25    3 1    
     9    5    4 1    
    10    6    5 1    
    11   20    5 1    
    12   26    5 1    
    13    7    6 1    
    14    8    6 1    
    15   13    7 2    
    16   27    7 1    
    17    9    8 2    
    18   10    8 1    
    19   11   10 1    
    20   28   10 1    
    21   12   11 2    
    22   13   11 1    
    23   14   13 1    
    24   15   14 2    
    25   18   14 1    
    26   16   15 1    
    27   29   15 1    
    28   17   16 2    
    29   30   16 1    
    30   18   17 1    
    31   19   17 1    
    32   21   20 1    
    33   31   20 1    
    34   32   20 1    
    35   22   21 1    
    36   33   21 1    
    37   35   22 1    
@<TRIPOS>SUBSTRUCTURE
     1 BTD2        1 GROUP   
@<TRIPOS>SET

