#    Name: 1rpw_DID_1_INTS_M
#    Modification time : Tue Mar 25 01:05:40 2014

@<TRIPOS>MOLECULE
1rpw_DID_1_INTS_M
   35     0     6     0     0
SMALL
NO_CHARGES


@<TRIPOS>ATOM
      1 CA        -70.1545  -42.8975    9.3560 C.3       2 GLC5        0.0000 
      2 CA        -70.8430  -43.4330    7.3770 C.3       6 GLL5        0.0000 
      3 CA        -69.4660  -42.3620   11.3350 C.3       4 GLP5        0.0000 
      4 CA        -69.2285  -42.0580    7.3295 C.3       2 GLC5        0.0000 
      5 CA        -67.6140  -40.6830    7.2820 C.3       4 GLP5        0.0000 
      6 CA        -75.1005  -44.3085    7.4935 C.3       2 GLC5        0.0000 
      7 CA        -73.6380  -42.9380    7.1490 C.3       6 GLL5        0.0000 
      8 CA        -76.5630  -45.6790    7.8380 C.3       4 GLP5        0.0000 
      9 O         -73.3280  -44.8780   10.9725 O.2       1 ALC1        0.0000 
     10 O         -74.0610  -43.6470   10.6960 O.2       5 ALL1        0.0000 
     11 O         -72.5950  -46.1090   11.2490 O.2       3 ALP1        0.0000 
     12 CA        -67.9010  -42.8700    6.1380 C.3       2 GLC5        0.0000 
     13 CA        -69.2830  -43.9850    4.9930 C.3       6 GLL5        0.0000 
     14 CA        -66.5190  -41.7550    7.2830 C.3       4 GLP5        0.0000 
     15 CA        -65.8450  -43.6515    4.9915 C.3       2 GLC5        0.0000 
     16 CA        -67.1630  -44.5530    3.7030 C.3       6 GLL5        0.0000 
     17 CA        -64.5270  -42.7500    6.2800 C.3       4 GLP5        0.0000 
     18 CA        -64.7205  -43.9195    4.5680 C.3       2 GLC5        0.0000 
     19 CA        -64.9140  -45.0890    2.8560 C.3       6 GLL5        0.0000 
     20 CA        -59.9420  -46.4725    5.2710 C.3       2 GLC5        0.0000 
     21 CA        -60.3310  -45.7840    3.1800 C.3       6 GLL5        0.0000 
     22 CA        -59.5530  -47.1610    7.3620 C.3       4 GLP5        0.0000 
     23 CA        -71.5857  -42.9922   10.1227 C.3       2 GLC5        0.0000 
     24 CA        -71.6750  -43.1540    8.6010 C.3       6 GLL5        0.0000 
     25 CA        -70.8290  -42.9490   11.6970 C.3       4 GLP5        0.0000 
     26 CA        -75.0260  -42.2880    5.7033 C.3       2 GLC5        0.0000 
     27 CA        -72.9000  -43.1860    6.0460 C.3       6 GLL5        0.0000 
     28 CA        -76.7830  -41.5140    4.8090 C.3       4 GLP5        0.0000 
     29 CA        -73.4428  -43.8357    4.8755 C.3       2 GLC5        0.0000 
     30 CA        -73.9840  -44.5430    3.1300 C.3       4 GLP5        0.0000 
     31 CA        -63.2875  -43.8588    1.6643 C.3       2 GLC5        0.0000 
     32 CA        -62.2260  -42.4650    0.9900 C.3       4 GLP5        0.0000 
     33 CA        -60.9223  -43.8697    3.3705 C.3       2 GLC5        0.0000 
     34 CA        -61.2980  -45.7330    2.2300 C.3       6 GLL5        0.0000 
     35 CA        -61.0300  -41.9810    4.0360 C.3       4 GLP5        0.0000 
@<TRIPOS>BOND
@<TRIPOS>SUBSTRUCTURE
     1 ALC1        9 GROUP        1 X    ALC  0     ROOT ALC X 1
     2 GLC5        1 GROUP        1 X    GLC  0     **** GLC X 6
     3 ALP1       11 GROUP        1 Y    ALP  0     ROOT ALP Y 8
     4 GLP5        3 GROUP        1 Y    GLP  0     **** GLP Y 13
     5 ALL1       10 GROUP        1 Z    ALL  0     ROOT ALL Z 15
     6 GLL5        2 GROUP        1 Z    GLL  0     **** GLL Z 20
@<TRIPOS>SET

