#    Name: 1rpw_DID_1_ligand
#    Modification time : Tue Mar 25 01:05:40 2014

@<TRIPOS>MOLECULE
1rpw_DID_1_ligand
   54    55     1     0     0
SMALL
NO_CHARGES


@<TRIPOS>ATOM
      1 C4        -73.0100  -42.9170    8.4960 C.ar      1 DID193      0.0000 
      2 C5        -71.6750  -43.1540    8.6010 C.ar      1 DID193      0.0000 
      3 C6        -70.8430  -43.4330    7.3770 C.ar      1 DID193      0.0000 
      4 C1        -71.4300  -43.4520    6.1400 C.ar      1 DID193      0.0000 
      5 C2        -72.9000  -43.1860    6.0460 C.ar      1 DID193      0.0000 
      6 C3        -73.6380  -42.9380    7.1490 C.ar      1 DID193      0.0000 
      7 C9        -73.8470  -42.6410    9.7050 C.ar      1 DID193      0.0000 
      8 N1        -74.0610  -43.6470   10.6960 N.pl3     1 DID193      0.0000 
      9 N2        -74.3880  -41.5150    9.8810 N.pl3     1 DID193      0.0000 
     10 O1        -70.7140  -43.7190    4.9040 O.3       1 DID193      0.0000 
     11 C7        -69.2830  -43.9850    4.9930 C.3       1 DID193      0.0000 
     12 C8        -68.6870  -44.2690    3.5580 C.3       1 DID193      0.0000 
     13 C10       -67.1630  -44.5530    3.7030 C.3       1 DID193      0.0000 
     14 C11       -66.3810  -44.8710    2.3680 C.3       1 DID193      0.0000 
     15 C8'       -64.9140  -45.0890    2.8560 C.3       1 DID193      0.0000 
     16 C7'       -63.7840  -45.4160    1.8210 C.3       1 DID193      0.0000 
     17 O1'       -62.6260  -45.4970    2.7110 O.3       1 DID193      0.0000 
     18 C1'       -61.2980  -45.7330    2.2300 C.ar      1 DID193      0.0000 
     19 C6'       -60.3310  -45.7840    3.1800 C.ar      1 DID193      0.0000 
     20 C5'       -58.9090  -46.0080    2.8260 C.ar      1 DID193      0.0000 
     21 C4'       -58.5480  -46.1710    1.5370 C.ar      1 DID193      0.0000 
     22 C3'       -59.6030  -46.1200    0.4540 C.ar      1 DID193      0.0000 
     23 C2'       -60.9150  -45.9130    0.7810 C.ar      1 DID193      0.0000 
     24 C9'       -57.1190  -46.3910    1.2120 C.ar      1 DID193      0.0000 
     25 N1'       -56.7530  -46.5480    0.0030 N.pl3     1 DID193      0.0000 
     26 N2'       -56.1600  -46.4310    2.2400 N.pl3     1 DID193      0.0000 
     27 H         -71.1720  -43.1568    9.4905 H         1 DID193      0.0000 
     28 H         -69.8545  -43.5991    7.5322 H         1 DID193      0.0000 
     29 H         -73.2951  -43.2064    5.0971 H         1 DID193      0.0000 
     30 H         -74.6477  -42.7549    7.1196 H         1 DID193      0.0000 
     31 H         -74.6344  -43.3850   11.4723 H         1 DID193      0.0000 
     32 H         -73.6195  -44.5288   10.5303 H         1 DID193      0.0000 
     33 H         -74.2671  -40.8489    9.1450 H         1 DID193      0.0000 
     34 H         -74.8863  -41.3957   10.7397 H         1 DID193      0.0000 
     35 H         -69.0716  -44.8623    5.6040 H         1 DID193      0.0000 
     36 H         -68.7377  -43.1340    5.4007 H         1 DID193      0.0000 
     37 H         -68.8337  -43.4018    2.9483 H         1 DID193      0.0000 
     38 H         -69.1747  -45.1291    3.1486 H         1 DID193      0.0000 
     39 H         -67.0237  -45.4063    4.3899 H         1 DID193      0.0000 
     40 H         -66.6821  -43.6804    4.1790 H         1 DID193      0.0000 
     41 H         -66.4246  -44.0334    1.7385 H         1 DID193      0.0000 
     42 H         -66.7539  -45.7608    1.9570 H         1 DID193      0.0000 
     43 H         -64.9223  -45.9075    3.6245 H         1 DID193      0.0000 
     44 H         -64.6000  -44.1761    3.4293 H         1 DID193      0.0000 
     45 H         -63.7151  -44.6090    1.1504 H         1 DID193      0.0000 
     46 H         -64.0098  -46.3417    1.3761 H         1 DID193      0.0000 
     47 H         -60.5343  -45.6708    4.1842 H         1 DID193      0.0000 
     48 H         -58.2449  -46.0291    3.6042 H         1 DID193      0.0000 
     49 H         -59.2724  -46.2467   -0.4974 H         1 DID193      0.0000 
     50 H         -61.6662  -45.8705    0.1074 H         1 DID193      0.0000 
     51 H         -55.7802  -46.7283   -0.1424 H         1 DID193      0.0000 
     52 H         -57.4728  -46.4763   -0.6875 H         1 DID193      0.0000 
     53 H         -56.5021  -46.2776    3.1671 H         1 DID193      0.0000 
     54 H         -55.2179  -46.6094    1.9562 H         1 DID193      0.0000 
@<TRIPOS>BOND
     1    2    1 ar   
     2    6    1 ar   
     3    7    1 1    
     4    3    2 ar   
     5   27    2 1    
     6    4    3 ar   
     7   28    3 1    
     8    5    4 ar   
     9   10    4 1    
    10    6    5 ar   
    11   29    5 1    
    12   30    6 1    
    13    8    7 ar   
    14    9    7 ar   
    15   31    8 1    
    16   32    8 1    
    17   33    9 1    
    18   34    9 1    
    19   11   10 1    
    20   12   11 1    
    21   35   11 1    
    22   36   11 1    
    23   13   12 1    
    24   37   12 1    
    25   38   12 1    
    26   14   13 1    
    27   39   13 1    
    28   40   13 1    
    29   15   14 1    
    30   41   14 1    
    31   42   14 1    
    32   16   15 1    
    33   43   15 1    
    34   44   15 1    
    35   17   16 1    
    36   45   16 1    
    37   46   16 1    
    38   18   17 1    
    39   19   18 ar   
    40   23   18 ar   
    41   20   19 ar   
    42   47   19 1    
    43   21   20 ar   
    44   48   20 1    
    45   22   21 ar   
    46   24   21 1    
    47   23   22 ar   
    48   49   22 1    
    49   50   23 1    
    50   25   24 ar   
    51   26   24 ar   
    52   51   25 1    
    53   52   25 1    
    54   53   26 1    
    55   54   26 1    
@<TRIPOS>SUBSTRUCTURE
     1 DID193      1 GROUP   
@<TRIPOS>SET

