#    Name: 1guf_NDP_2_INTS_M
#    Modification time : Tue Mar 25 03:53:17 2014

@<TRIPOS>MOLECULE
1guf_NDP_2_INTS_M
   79     0     9     0     0
SMALL
NO_CHARGES


@<TRIPOS>ATOM
      1 NZ         62.5395  -27.4510   11.6090 N.4       2 LYC4        0.0000 
      2 NZ         63.8780  -28.8260   12.1110 N.4       8 LYL4        0.0000 
      3 NZ         61.2010  -26.0760   11.1070 N.4       5 LYP4        0.0000 
      4 CA         66.6215  -30.9155   14.7515 C.3       3 GLC5        0.0000 
      5 CA         65.4990  -32.6270   15.2470 C.3       9 GLL5        0.0000 
      6 CA         67.7440  -29.2040   14.2560 C.3       6 GLP5        0.0000 
      7 N          67.9830  -33.0735   14.8650 N.am      1 SEC2        0.0000 
      8 N          66.7860  -32.6580   14.5920 N.am      7 SEL2        0.0000 
      9 N          69.1800  -33.4890   15.1380 N.am      4 SEP2        0.0000 
     10 CA         65.2350  -31.3380   18.4950 C.3       3 GLC5        0.0000 
     11 CA         65.5000  -32.8970   17.5360 C.3       9 GLL5        0.0000 
     12 CA         64.9700  -29.7790   19.4540 C.3       6 GLP5        0.0000 
     13 CA         63.4070  -32.3620   20.9615 C.3       3 GLC5        0.0000 
     14 CA         64.3510  -34.1790   20.6840 C.3       9 GLL5        0.0000 
     15 CA         62.4630  -30.5450   21.2390 C.3       6 GLP5        0.0000 
     16 CA         66.0420  -36.0775   21.6660 C.3       3 GLC5        0.0000 
     17 CA         64.7600  -34.5090   21.9920 C.3       9 GLL5        0.0000 
     18 CA         67.3240  -37.6460   21.3400 C.3       6 GLP5        0.0000 
     19 CA         65.5880  -33.0990   23.4190 C.3       3 GLC5        0.0000 
     20 CA         66.4160  -31.6890   24.8460 C.3       6 GLP5        0.0000 
     21 CA         67.1385  -35.7510   21.3990 C.3       3 GLC5        0.0000 
     22 CA         66.9530  -33.8560   21.4580 C.3       9 GLL5        0.0000 
     23 CA         67.2145  -32.1360   22.2210 C.3       3 GLC5        0.0000 
     24 CA         67.4760  -30.4160   22.9840 C.3       6 GLP5        0.0000 
     25 CA         65.1500  -31.7415   19.6665 C.3       3 GLC5        0.0000 
     26 CA         65.3300  -33.7040   19.8790 C.3       9 GLL5        0.0000 
     27 N          66.4895  -25.4555   13.7130 N.am      1 SEC2        0.0000 
     28 N          65.2450  -25.9130   14.1150 N.am      7 SEL2        0.0000 
     29 N          67.7340  -24.9980   13.3110 N.am      4 SEP2        0.0000 
     30 NZ         61.9100  -25.7150   12.5090 N.4       2 LYC4        0.0000 
     31 NZ         62.6190  -25.3540   13.9110 N.4       8 LYL4        0.0000 
     32 N          63.4265  -24.4130   12.7055 N.am      1 SEC2        0.0000 
     33 N          62.6190  -25.3540   13.9110 N.am      7 SEL2        0.0000 
     34 N          64.2340  -23.4720   11.5000 N.am      4 SEP2        0.0000 
     35 N          61.9100  -25.7150   12.5090 N.am      1 SEC2        0.0000 
     36 N          61.2010  -26.0760   11.1070 N.am      4 SEP2        0.0000 
     37 CA         63.1225  -27.9595   18.3760 C.3       3 GLC5        0.0000 
     38 CA         62.8870  -25.9920   17.8960 C.3       9 GLL5        0.0000 
     39 CA         63.3580  -29.9270   18.8560 C.3       6 GLP5        0.0000 
     40 CA         62.0240  -27.6640   19.4425 C.3       3 GLC5        0.0000 
     41 CA         61.5830  -25.9120   18.6300 C.3       9 GLL5        0.0000 
     42 CA         62.4650  -29.4160   20.2550 C.3       6 GLP5        0.0000 
     43 CA         59.6945  -25.3530   17.3565 C.3       3 GLC5        0.0000 
     44 CA         61.1320  -24.5320   18.2060 C.3       9 GLL5        0.0000 
     45 CA         58.2570  -26.1740   16.5070 C.3       6 GLP5        0.0000 
     46 CA         64.2020  -22.9385   19.1700 C.3       3 GLC5        0.0000 
     47 CA         62.4700  -23.7880   18.6100 C.3       9 GLL5        0.0000 
     48 CA         65.9340  -22.0890   19.7300 C.3       6 GLP5        0.0000 
     49 CA         62.7470  -24.0160   20.5900 C.3       3 GLC5        0.0000 
     50 CA         63.0240  -24.2440   22.5700 C.3       6 GLP5        0.0000 
     51 CA         64.1275  -20.9280   20.2715 C.3       3 GLC5        0.0000 
     52 CA         62.4800  -21.3800   18.8530 C.3       9 GLL5        0.0000 
     53 CA         65.7750  -20.4760   21.6900 C.3       6 GLP5        0.0000 
     54 N          65.3810  -37.0365   17.1790 N.am      1 SEC2        0.0000 
     55 N          65.8390  -36.8930   15.7730 N.am      7 SEL2        0.0000 
     56 N          64.9230  -37.1800   18.5850 N.am      4 SEP2        0.0000 
     57 NZ         69.5130  -36.9575   16.0265 N.4       2 LYC4        0.0000 
     58 NZ         68.2160  -36.2410   15.8500 N.4       8 LYL4        0.0000 
     59 NZ         70.7020  -38.2380   15.0080 N.4       5 LYP4        0.0000 
     60 N          69.5130  -36.9575   16.0265 N.am      1 SEC2        0.0000 
     61 N          68.2160  -36.2410   15.8500 N.am      7 SEL2        0.0000 
     62 N          70.8100  -37.6740   16.2030 N.am      4 SEP2        0.0000 
     63 N          69.0095  -37.0175   14.9915 N.am      1 SEC2        0.0000 
     64 N          69.8030  -37.7940   14.1330 N.am      4 SEP2        0.0000 
     65 CA         65.9387  -29.6432   15.6105 C.3       3 GLC5        0.0000 
     66 CA         65.2880  -31.2800   15.9390 C.3       9 GLL5        0.0000 
     67 CA         67.1860  -28.4550   15.4640 C.3       6 GLP5        0.0000 
     68 CA         64.0247  -30.3792   17.3065 C.3       3 GLC5        0.0000 
     69 CA         60.7246  -26.4191   16.7209 C.3       3 GLC5        0.0000 
     70 CA         62.5520  -26.2170   16.3750 C.3       9 GLL5        0.0000 
     71 CA         59.2980  -26.8300   15.5590 C.3       6 GLP5        0.0000 
     72 CA         62.3687  -19.8212   14.8792 C.3       3 GLC5        0.0000 
     73 CA         62.9270  -19.9030   16.9560 C.3       9 GLL5        0.0000 
     74 CA         61.7440  -19.2030   13.2310 C.3       6 GLP5        0.0000 
     75 CA         64.7987  -19.6691   17.0005 C.3       3 GLC5        0.0000 
     76 CA         63.0600  -20.9760   16.0990 C.3       9 GLL5        0.0000 
     77 CA         66.6750  -18.8610   17.1320 C.3       6 GLP5        0.0000 
     78 CA         64.6278  -22.3142   15.6948 C.3       3 GLC5        0.0000 
     79 CA         66.2690  -23.0110   15.0370 C.3       6 GLP5        0.0000 
@<TRIPOS>BOND
@<TRIPOS>SUBSTRUCTURE
     1 SEC2        7 GROUP        1 X    SEC  0     ROOT SEC X 2
     2 LYC4        1 GROUP        1 X    LYC  0     **** LYC X 4
     3 GLC5        4 GROUP        1 X    GLC  0     **** GLC X 6
     4 SEP2        9 GROUP        1 Y    SEP  0     ROOT SEP Y 9
     5 LYP4        3 GROUP        1 Y    LYP  0     **** LYP Y 11
     6 GLP5        6 GROUP        1 Y    GLP  0     **** GLP Y 13
     7 SEL2        8 GROUP        1 Z    SEL  0     ROOT SEL Z 16
     8 LYL4        2 GROUP        1 Z    LYL  0     **** LYL Z 18
     9 GLL5        5 GROUP        1 Z    GLL  0     **** GLL Z 20
@<TRIPOS>SET

