#    Name: 1guf_NDP_2_ligand
#    Modification time : Tue Mar 25 03:53:18 2014

@<TRIPOS>MOLECULE
1guf_NDP_2_ligand
   74    78     1     0     0
SMALL
NO_CHARGES


@<TRIPOS>ATOM
      1 PA         63.3190  -29.0410   13.3980 P.3       1 NDP1392     0.0000 
      2 O1A        63.8780  -28.8260   12.1110 O.co2     1 NDP1392     0.0000 
      3 O2A        61.9280  -29.5620   13.5470 O.co2     1 NDP1392     0.0000 
      4 O5B        64.3530  -30.0280   14.2000 O.3       1 NDP1392     0.0000 
      5 C5B        64.0950  -30.3830   15.5750 C.3       1 NDP1392     0.0000 
      6 C4B        65.2880  -31.2800   15.9390 C.3       1 NDP1392     0.0000 
      7 O4B        65.2140  -31.5710   17.3360 O.3       1 NDP1392     0.0000 
      8 C3B        65.4990  -32.6270   15.2470 C.3       1 NDP1392     0.0000 
      9 O3B        66.7860  -32.6580   14.5920 O.3       1 NDP1392     0.0000 
     10 C2B        65.4480  -33.6900   16.3450 C.3       1 NDP1392     0.0000 
     11 O2B        66.4520  -34.7310   16.4440 O.3       1 NDP1392     0.0000 
     12 C1B        65.5000  -32.8970   17.5360 C.3       1 NDP1392     0.0000 
     13 N9A        64.7590  -33.4350   18.6650 N.pl3     1 NDP1392     0.0000 
     14 C8A        63.3960  -33.7760   18.7910 C.2       1 NDP1392     0.0000 
     15 N7A        63.1550  -34.2240   20.0060 N.2       1 NDP1392     0.0000 
     16 C5A        64.3510  -34.1790   20.6840 C.ar      1 NDP1392     0.0000 
     17 C6A        64.7600  -34.5090   21.9920 C.ar      1 NDP1392     0.0000 
     18 N6A        63.8810  -34.9800   22.8670 N.pl3     1 NDP1392     0.0000 
     19 N1A        66.0520  -34.3400   22.3510 N.ar      1 NDP1392     0.0000 
     20 C2A        66.9530  -33.8560   21.4580 C.ar      1 NDP1392     0.0000 
     21 N3A        66.6720  -33.5150   20.2040 N.ar      1 NDP1392     0.0000 
     22 C4A        65.3300  -33.7040   19.8790 C.ar      1 NDP1392     0.0000 
     23 O3         63.4500  -27.7560   14.2850 O.3       1 NDP1392     0.0000 
     24 PN         63.8010  -26.2480   13.9720 P.3       1 NDP1392     0.0000 
     25 O1N        65.2450  -25.9130   14.1150 O.co2     1 NDP1392     0.0000 
     26 O2N        62.6190  -25.3540   13.9110 O.co2     1 NDP1392     0.0000 
     27 O5D        63.7130  -26.0650   15.5830 O.3       1 NDP1392     0.0000 
     28 C5D        62.5520  -26.2170   16.3750 C.3       1 NDP1392     0.0000 
     29 C4D        62.8870  -25.9920   17.8960 C.3       1 NDP1392     0.0000 
     30 O4D        63.4780  -24.6820   18.0810 O.3       1 NDP1392     0.0000 
     31 C3D        61.5830  -25.9120   18.6300 C.3       1 NDP1392     0.0000 
     32 O3D        61.8360  -26.1100   20.0210 O.3       1 NDP1392     0.0000 
     33 C2D        61.1320  -24.5320   18.2060 C.3       1 NDP1392     0.0000 
     34 O2D        59.9420  -24.1540   18.8600 O.3       1 NDP1392     0.0000 
     35 C1D        62.4700  -23.7880   18.6100 C.3       1 NDP1392     0.0000 
     36 N1N        62.6240  -22.4550   17.9700 N.pl3     1 NDP1392     0.0000 
     37 C2N        62.4800  -21.3800   18.8530 C.2       1 NDP1392     0.0000 
     38 C3N        62.6430  -20.0540   18.3220 C.2       1 NDP1392     0.0000 
     39 C7N        62.5260  -18.9090   19.2360 C.2       1 NDP1392     0.0000 
     40 O7N        62.4230  -19.0350   20.4920 O.2       1 NDP1392     0.0000 
     41 N7N        62.5690  -17.6560   18.7510 N.am      1 NDP1392     0.0000 
     42 C4N        62.9270  -19.9030   16.9560 C.3       1 NDP1392     0.0000 
     43 C5N        63.0600  -20.9760   16.0990 C.2       1 NDP1392     0.0000 
     44 C6N        62.9130  -22.2590   16.6060 C.2       1 NDP1392     0.0000 
     45 P2B        66.8450  -35.8580   15.4920 P.3       1 NDP1392     0.0000 
     46 O1X        65.8390  -36.8930   15.7730 O.co2     1 NDP1392     0.0000 
     47 O2X        68.2160  -36.2410   15.8500 O.co2     1 NDP1392     0.0000 
     48 O3X        66.7870  -35.3990   14.0390 O.co2     1 NDP1392     0.0000 
     49 H          63.1999  -30.9557   15.6815 H         1 NDP1392     0.0000 
     50 H          64.1067  -29.5315   16.2194 H         1 NDP1392     0.0000 
     51 H          66.2167  -30.6827   15.7851 H         1 NDP1392     0.0000 
     52 H          64.6947  -32.7949   14.5748 H         1 NDP1392     0.0000 
     53 H          64.4312  -34.1282   16.3117 H         1 NDP1392     0.0000 
     54 H          66.6159  -32.9377   17.8833 H         1 NDP1392     0.0000 
     55 H          62.7681  -33.6757   18.0571 H         1 NDP1392     0.0000 
     56 H          62.9445  -35.0901   22.5341 H         1 NDP1392     0.0000 
     57 H          64.2344  -35.1823   23.7803 H         1 NDP1392     0.0000 
     58 H          67.9677  -33.7441   21.8019 H         1 NDP1392     0.0000 
     59 H          62.1158  -27.2211   16.3003 H         1 NDP1392     0.0000 
     60 H          61.7675  -25.4929   16.1214 H         1 NDP1392     0.0000 
     61 H          63.4670  -26.7629   18.2505 H         1 NDP1392     0.0000 
     62 H          60.9346  -26.6331   18.1950 H         1 NDP1392     0.0000 
     63 H          61.1112  -24.5366   17.1414 H         1 NDP1392     0.0000 
     64 H          62.5133  -23.7512   19.6561 H         1 NDP1392     0.0000 
     65 H          62.2706  -21.5103   19.8248 H         1 NDP1392     0.0000 
     66 H          62.7097  -17.5705   17.7646 H         1 NDP1392     0.0000 
     67 H          62.4564  -16.9212   19.4198 H         1 NDP1392     0.0000 
     68 H          63.8776  -19.2252   16.8601 H         1 NDP1392     0.0000 
     69 H          62.1425  -19.1581   16.5068 H         1 NDP1392     0.0000 
     70 H          63.2632  -20.8320   15.1074 H         1 NDP1392     0.0000 
     71 H          63.0138  -23.0762   15.9905 H         1 NDP1392     0.0000 
     72 H          66.9044  -33.6068   14.2992 H         1 NDP1392     0.0000 
     73 H          60.9348  -26.2536   20.4300 H         1 NDP1392     0.0000 
     74 H          59.7967  -23.1991   18.6011 H         1 NDP1392     0.0000 
@<TRIPOS>BOND
     1    2    1 ar   
     2    3    1 ar   
     3    4    1 1    
     4   23    1 1    
     5    5    4 1    
     6    6    5 1    
     7   49    5 1    
     8   50    5 1    
     9    7    6 1    
    10    8    6 1    
    11   51    6 1    
    12   12    7 1    
    13    9    8 1    
    14   10    8 1    
    15   52    8 1    
    16   72    9 1    
    17   11   10 1    
    18   12   10 1    
    19   53   10 1    
    20   45   11 1    
    21   13   12 1    
    22   54   12 1    
    23   14   13 1    
    24   22   13 1    
    25   15   14 2    
    26   55   14 1    
    27   16   15 1    
    28   17   16 ar   
    29   22   16 ar   
    30   18   17 1    
    31   19   17 ar   
    32   56   18 1    
    33   57   18 1    
    34   20   19 ar   
    35   21   20 ar   
    36   58   20 1    
    37   22   21 ar   
    38   24   23 1    
    39   25   24 ar   
    40   26   24 ar   
    41   27   24 1    
    42   28   27 1    
    43   29   28 1    
    44   59   28 1    
    45   60   28 1    
    46   30   29 1    
    47   31   29 1    
    48   61   29 1    
    49   35   30 1    
    50   32   31 1    
    51   33   31 1    
    52   62   31 1    
    53   73   32 1    
    54   34   33 1    
    55   35   33 1    
    56   63   33 1    
    57   74   34 1    
    58   36   35 1    
    59   64   35 1    
    60   37   36 1    
    61   44   36 1    
    62   38   37 2    
    63   65   37 1    
    64   39   38 1    
    65   42   38 1    
    66   40   39 2    
    67   41   39 am   
    68   66   41 1    
    69   67   41 1    
    70   43   42 1    
    71   68   42 1    
    72   69   42 1    
    73   44   43 2    
    74   70   43 1    
    75   71   44 1    
    76   46   45 ar   
    77   47   45 ar   
    78   48   45 ar   
@<TRIPOS>SUBSTRUCTURE
     1 NDP1392     1 GROUP   
@<TRIPOS>SET

