#    Name: 4kqw_NAP_2_INTS_M
#    Modification time : Tue Mar 25 08:51:06 2014

@<TRIPOS>MOLECULE
4kqw_NAP_2_INTS_M
   89     0     9     0     0
SMALL
NO_CHARGES


@<TRIPOS>ATOM
      1 N         -12.1215  -42.7705  -11.1530 N.am      2 SEC2        0.0000 
      2 N         -10.8540  -43.5030  -11.4580 N.am      8 SEL2        0.0000 
      3 N         -13.3890  -42.0380  -10.8480 N.am      5 SEP2        0.0000 
      4 CA        -13.7155  -48.5985  -10.9590 C.3       3 GLC5        0.0000 
      5 CA        -11.7410  -47.6390  -10.5340 C.3       9 GLL5        0.0000 
      6 CA        -15.6900  -49.5580  -11.3840 C.3       6 GLP5        0.0000 
      7 CA        -11.7480  -48.2990  -12.6570 C.3       3 GLC5        0.0000 
      8 CA        -11.7550  -48.9590  -14.7800 C.3       6 GLP5        0.0000 
      9 N         -14.4920  -48.1370   -9.3350 N.am      2 SEC2        0.0000 
     10 N         -13.2060  -48.5230   -8.8340 N.am      8 SEL2        0.0000 
     11 N         -15.7780  -47.7510   -9.8360 N.am      5 SEP2        0.0000 
     12 N         -10.2330  -51.2930   -7.7330 N.am      2 SEC2        0.0000 
     13 N         -11.2580  -50.1200   -7.9170 N.am      8 SEL2        0.0000 
     14 N          -9.2080  -52.4660   -7.5490 N.am      5 SEP2        0.0000 
     15 CA        -11.9220  -50.4120  -11.9330 C.3       3 GLC5        0.0000 
     16 CA        -11.1110  -49.8980  -10.2910 C.3       9 GLL5        0.0000 
     17 CA        -12.7330  -50.9260  -13.5750 C.3       6 GLP5        0.0000 
     18 CA        -10.0410  -49.1935  -12.0230 C.3       3 GLC5        0.0000 
     19 CA         -8.9710  -48.4890  -13.7550 C.3       6 GLP5        0.0000 
     20 CA         -9.3035  -54.4520  -12.9830 C.3       3 GLC5        0.0000 
     21 CA         -8.1270  -53.7140  -11.2370 C.3       9 GLL5        0.0000 
     22 CA        -10.4800  -55.1900  -14.7290 C.3       6 GLP5        0.0000 
     23 CA        -10.4980  -54.9950   -9.4680 C.3       3 GLC5        0.0000 
     24 CA        -10.4900  -54.0860  -11.1420 C.3       9 GLL5        0.0000 
     25 CA        -10.5060  -55.9040   -7.7940 C.3       6 GLP5        0.0000 
     26 CA        -11.9835  -55.5500  -11.1685 C.3       3 GLC5        0.0000 
     27 CA        -13.4770  -57.0140  -11.1950 C.3       6 GLP5        0.0000 
     28 CA         -9.3750  -53.4280  -12.8020 C.3       3 GLC5        0.0000 
     29 CA         -8.2600  -52.7700  -14.4620 C.3       6 GLP5        0.0000 
     30 CA        -10.4850  -54.6380  -12.9355 C.3       3 GLC5        0.0000 
     31 CA        -11.2630  -51.4405  -12.2065 C.3       3 GLC5        0.0000 
     32 CA         -9.7930  -51.9550  -10.8380 C.3       9 GLL5        0.0000 
     33 N         -13.8365  -42.1440  -13.6410 N.am      2 SEC2        0.0000 
     34 N         -12.7050  -42.9340  -14.0360 N.am      8 SEL2        0.0000 
     35 N         -14.9680  -41.3540  -13.2460 N.am      5 SEP2        0.0000 
     36 CA        -13.6995  -46.1130  -16.2810 C.3       3 GLC5        0.0000 
     37 CA        -12.3520  -44.7810  -16.4630 C.3       9 GLL5        0.0000 
     38 CA        -15.0470  -47.4450  -16.0990 C.3       6 GLP5        0.0000 
     39 CA        -14.5310  -44.8605  -17.7700 C.3       3 GLC5        0.0000 
     40 CA        -12.6110  -44.5340  -17.9300 C.3       9 GLL5        0.0000 
     41 CA        -16.4510  -45.1870  -17.6100 C.3       6 GLP5        0.0000 
     42 N         -11.6000  -46.7215  -19.8405 N.am      2 SEC2        0.0000 
     43 N         -11.7200  -45.2010  -20.0910 N.am      8 SEL2        0.0000 
     44 N         -11.4800  -48.2420  -19.5900 N.am      5 SEP2        0.0000 
     45 O         -10.5855  -45.5360  -20.7010 O.2       1 ALC1        0.0000 
     46 O         -11.7200  -45.2010  -20.0910 O.2       7 ALL1        0.0000 
     47 O          -9.4510  -45.8710  -21.3110 O.2       4 ALP1        0.0000 
     48 CA         -9.5240  -42.1345  -18.1090 C.3       3 GLC5        0.0000 
     49 CA        -11.0920  -43.1240  -19.0120 C.3       9 GLL5        0.0000 
     50 CA         -7.9560  -41.1450  -17.2060 C.3       6 GLP5        0.0000 
     51 O          -9.8855  -44.3390  -20.7550 O.2       1 ALC1        0.0000 
     52 O         -10.3200  -42.8070  -20.1990 O.2       7 ALL1        0.0000 
     53 O          -9.2145  -43.5845  -20.2560 O.2       1 ALC1        0.0000 
     54 O          -8.1090  -44.3620  -20.3130 O.2       4 ALP1        0.0000 
     55 CA        -13.7600  -41.6540  -17.7280 C.3       3 GLC5        0.0000 
     56 CA        -12.4530  -42.5270  -19.1980 C.3       9 GLL5        0.0000 
     57 CA        -15.0670  -40.7810  -16.2580 C.3       6 GLP5        0.0000 
     58 CA        -14.4020  -42.7600  -19.8155 C.3       3 GLC5        0.0000 
     59 CA        -16.3510  -42.9930  -20.4330 C.3       6 GLP5        0.0000 
     60 CA        -10.0430  -40.8630  -17.4710 C.3       3 GLC5        0.0000 
     61 CA        -12.1300  -40.5810  -17.7360 C.3       9 GLL5        0.0000 
     62 N         -13.9365  -38.0640  -16.1625 N.am      2 SEC2        0.0000 
     63 N         -12.4800  -37.7710  -15.7110 N.am      8 SEL2        0.0000 
     64 N         -15.3930  -38.3570  -16.6140 N.am      5 SEP2        0.0000 
     65 N         -13.4765  -37.2090  -14.8665 N.am      2 SEC2        0.0000 
     66 N         -14.4730  -36.6470  -14.0220 N.am      5 SEP2        0.0000 
     67 O         -10.7250  -38.8705  -13.9735 O.2       1 ALC1        0.0000 
     68 O         -11.2030  -39.4540  -15.2290 O.2       7 ALL1        0.0000 
     69 O         -10.2470  -38.2870  -12.7180 O.2       4 ALP1        0.0000 
     70 CA        -14.8575  -41.6845  -20.0515 C.3       3 GLC5        0.0000 
     71 CA        -13.3640  -40.3760  -19.6700 C.3       9 GLL5        0.0000 
     72 N         -10.4210  -51.7825   -6.6415 N.am      2 SEC2        0.0000 
     73 N         -11.6340  -51.0990   -5.7340 N.am      8 SEL2        0.0000 
     74 N         -12.6100  -51.1150   -4.8240 N.am      2 SEC2        0.0000 
     75 N         -13.5860  -51.1310   -3.9140 N.am      5 SEP2        0.0000 
     76 N         -13.1635  -48.1580   -5.3650 N.am      2 SEC2        0.0000 
     77 N         -12.5820  -48.8280   -6.2140 N.am      8 SEL2        0.0000 
     78 N         -13.7450  -47.4880   -4.5160 N.am      5 SEP2        0.0000 
     79 CA        -10.1190  -47.7585  -12.1575 C.3       3 GLC5        0.0000 
     80 CA        -10.7930  -46.4170  -10.5860 C.3       9 GLL5        0.0000 
     81 CA        -12.6032  -45.8350   -9.8078 C.3       3 GLC5        0.0000 
     82 CA        -13.6430  -44.1520   -9.7940 C.3       6 GLP5        0.0000 
     83 CA         -8.6422  -52.6221  -12.7189 C.3       3 GLC5        0.0000 
     84 CA         -8.3850  -52.2730  -10.9900 C.3       9 GLL5        0.0000 
     85 CA        -11.8123  -42.9278  -21.1015 C.3       3 GLC5        0.0000 
     86 CA        -11.8520  -43.0300  -23.0980 C.3       6 GLP5        0.0000 
     87 CA        -13.6258  -40.3560  -16.9265 C.3       3 GLC5        0.0000 
     88 CA        -14.1841  -40.1677  -17.7814 C.3       3 GLC5        0.0000 
     89 CA        -12.8890  -38.3930  -18.4170 C.3       9 GLL5        0.0000 
@<TRIPOS>BOND
@<TRIPOS>SUBSTRUCTURE
     1 ALC1       45 GROUP        1 X    ALC  0     ROOT ALC X 1
     2 SEC2        1 GROUP        1 X    SEC  0     **** SEC X 2
     3 GLC5        4 GROUP        1 X    GLC  0     **** GLC X 6
     4 ALP1       47 GROUP        1 Y    ALP  0     ROOT ALP Y 8
     5 SEP2        3 GROUP        1 Y    SEP  0     **** SEP Y 9
     6 GLP5        6 GROUP        1 Y    GLP  0     **** GLP Y 13
     7 ALL1       46 GROUP        1 Z    ALL  0     ROOT ALL Z 15
     8 SEL2        2 GROUP        1 Z    SEL  0     **** SEL Z 16
     9 GLL5        5 GROUP        1 Z    GLL  0     **** GLL Z 20
@<TRIPOS>SET

