#    Name: 4kqw_NAP_2_ligand
#    Modification time : Tue Mar 25 08:51:06 2014

@<TRIPOS>MOLECULE
4kqw_NAP_2_ligand
   73    77     1     0     0
SMALL
NO_CHARGES


@<TRIPOS>ATOM
      1 PA        -10.2640  -44.5670  -12.2890 P.3       1 NAP402      0.0000 
      2 O1A       -10.8540  -43.5030  -11.4580 O.co2     1 NAP402      0.0000 
      3 O2A        -8.7700  -44.5980  -12.3620 O.co2     1 NAP402      0.0000 
      4 O5B       -10.8240  -46.0140  -11.9750 O.3       1 NAP402      0.0000 
      5 C5B       -10.7930  -46.4170  -10.5860 C.3       1 NAP402      0.0000 
      6 C4B       -11.7410  -47.6390  -10.5340 C.3       1 NAP402      0.0000 
      7 O4B       -11.1410  -48.7940  -11.1750 O.3       1 NAP402      0.0000 
      8 C3B       -11.8600  -48.0080   -9.0830 C.3       1 NAP402      0.0000 
      9 O3B       -13.2060  -48.5230   -8.8340 O.3       1 NAP402      0.0000 
     10 C2B       -10.9510  -49.1730   -8.9610 C.3       1 NAP402      0.0000 
     11 O2B       -11.2580  -50.1200   -7.9170 O.3       1 NAP402      0.0000 
     12 C1B       -11.1110  -49.8980  -10.2910 C.3       1 NAP402      0.0000 
     13 N9A        -9.8700  -50.6130  -10.6200 N.pl3     1 NAP402      0.0000 
     14 C8A        -8.6120  -50.1890  -10.5890 C.2       1 NAP402      0.0000 
     15 N7A        -7.6530  -51.1280  -10.8760 N.2       1 NAP402      0.0000 
     16 C5A        -8.3850  -52.2730  -10.9900 C.ar      1 NAP402      0.0000 
     17 C6A        -8.1270  -53.7140  -11.2370 C.ar      1 NAP402      0.0000 
     18 N6A        -6.8140  -54.0570  -11.3600 N.pl3     1 NAP402      0.0000 
     19 N1A        -9.1690  -54.4570  -11.3450 N.ar      1 NAP402      0.0000 
     20 C2A       -10.4900  -54.0860  -11.1420 C.ar      1 NAP402      0.0000 
     21 N3A       -10.8190  -52.7830  -10.9080 N.ar      1 NAP402      0.0000 
     22 C4A        -9.7930  -51.9550  -10.8380 C.ar      1 NAP402      0.0000 
     23 O3        -10.8230  -44.5410  -13.7760 O.3       1 NAP402      0.0000 
     24 PN        -11.3450  -43.2090  -14.5520 P.3       1 NAP402      0.0000 
     25 O1N       -10.2720  -42.1530  -14.5190 O.co2     1 NAP402      0.0000 
     26 O2N       -12.7050  -42.9340  -14.0360 O.co2     1 NAP402      0.0000 
     27 O5D       -11.3960  -43.7370  -16.0160 O.3       1 NAP402      0.0000 
     28 C5D       -12.3520  -44.7810  -16.4630 C.3       1 NAP402      0.0000 
     29 C4D       -12.6110  -44.5340  -17.9300 C.3       1 NAP402      0.0000 
     30 O4D       -13.2420  -43.2280  -18.1660 O.3       1 NAP402      0.0000 
     31 C3D       -11.3720  -44.5910  -18.8270 C.3       1 NAP402      0.0000 
     32 O3D       -11.7200  -45.2010  -20.0910 O.3       1 NAP402      0.0000 
     33 C2D       -11.0920  -43.1240  -19.0120 C.3       1 NAP402      0.0000 
     34 O2D       -10.3200  -42.8070  -20.1990 O.3       1 NAP402      0.0000 
     35 C1D       -12.4530  -42.5270  -19.1980 C.3       1 NAP402      0.0000 
     36 N1N       -12.5480  -41.1410  -18.9250 N.pl3     1 NAP402      0.0000 
     37 C2N       -12.1300  -40.5810  -17.7360 C.ar      1 NAP402      0.0000 
     38 C3N       -12.2390  -39.2810  -17.4540 C.ar      1 NAP402      0.0000 
     39 C7N       -11.9340  -38.8090  -16.0610 C.2       1 NAP402      0.0000 
     40 O7N       -12.4800  -37.7710  -15.7110 O.2       1 NAP402      0.0000 
     41 N7N       -11.2030  -39.4540  -15.2290 N.am      1 NAP402      0.0000 
     42 C4N       -12.8890  -38.3930  -18.4170 C.ar      1 NAP402      0.0000 
     43 C5N       -13.5880  -39.0730  -19.4620 C.ar      1 NAP402      0.0000 
     44 C6N       -13.3640  -40.3760  -19.6700 C.ar      1 NAP402      0.0000 
     45 P2B       -11.4570  -49.7680   -6.3320 P.3       1 NAP402      0.0000 
     46 O1X       -11.6340  -51.0990   -5.7340 O.co2     1 NAP402      0.0000 
     47 O2X       -12.5820  -48.8280   -6.2140 O.co2     1 NAP402      0.0000 
     48 O3X       -10.0700  -49.2660   -5.8990 O.co2     1 NAP402      0.0000 
     49 H         -11.1877  -45.6643   -9.9387 H         1 NAP402      0.0000 
     50 H          -9.8211  -46.7390  -10.2811 H         1 NAP402      0.0000 
     51 H         -12.6713  -47.3889  -10.9174 H         1 NAP402      0.0000 
     52 H         -11.5820  -47.2459   -8.4719 H         1 NAP402      0.0000 
     53 H          -9.9316  -48.8382   -8.9209 H         1 NAP402      0.0000 
     54 H         -11.9438  -50.4609  -10.3070 H         1 NAP402      0.0000 
     55 H          -8.3524  -49.2327  -10.3688 H         1 NAP402      0.0000 
     56 H          -6.6248  -55.0279  -11.5071 H         1 NAP402      0.0000 
     57 H          -6.1553  -53.3077  -11.2924 H         1 NAP402      0.0000 
     58 H         -11.2285  -54.8150  -11.1704 H         1 NAP402      0.0000 
     59 H         -13.2792  -44.7008  -15.9174 H         1 NAP402      0.0000 
     60 H         -11.9238  -45.7629  -16.3355 H         1 NAP402      0.0000 
     61 H         -13.3048  -45.3111  -18.3014 H         1 NAP402      0.0000 
     62 H         -10.6004  -45.0437  -18.3156 H         1 NAP402      0.0000 
     63 H         -10.6717  -42.7225  -18.1282 H         1 NAP402      0.0000 
     64 H         -12.8340  -42.8043  -20.1490 H         1 NAP402      0.0000 
     65 H         -11.6997  -41.2363  -17.0162 H         1 NAP402      0.0000 
     66 H         -11.0318  -39.0039  -14.3526 H         1 NAP402      0.0000 
     67 H         -10.8722  -40.3470  -15.5341 H         1 NAP402      0.0000 
     68 H         -12.8404  -37.4290  -18.3390 H         1 NAP402      0.0000 
     69 H         -14.2514  -38.5274  -20.0287 H         1 NAP402      0.0000 
     70 H         -13.8735  -40.8476  -20.4934 H         1 NAP402      0.0000 
     71 H         -13.2180  -48.7562   -7.8617 H         1 NAP402      0.0000 
     72 H         -10.8451  -45.4365  -20.5141 H         1 NAP402      0.0000 
     73 H          -9.5211  -43.4069  -20.1558 H         1 NAP402      0.0000 
@<TRIPOS>BOND
     1    2    1 ar   
     2    3    1 ar   
     3    4    1 1    
     4   23    1 1    
     5    5    4 1    
     6    6    5 1    
     7   49    5 1    
     8   50    5 1    
     9    7    6 1    
    10    8    6 1    
    11   51    6 1    
    12   12    7 1    
    13    9    8 1    
    14   10    8 1    
    15   52    8 1    
    16   71    9 1    
    17   11   10 1    
    18   12   10 1    
    19   53   10 1    
    20   45   11 1    
    21   13   12 1    
    22   54   12 1    
    23   14   13 1    
    24   22   13 1    
    25   15   14 2    
    26   55   14 1    
    27   16   15 1    
    28   17   16 ar   
    29   22   16 ar   
    30   18   17 1    
    31   19   17 ar   
    32   56   18 1    
    33   57   18 1    
    34   20   19 ar   
    35   21   20 ar   
    36   58   20 1    
    37   22   21 ar   
    38   24   23 1    
    39   25   24 ar   
    40   26   24 ar   
    41   27   24 1    
    42   28   27 1    
    43   29   28 1    
    44   59   28 1    
    45   60   28 1    
    46   30   29 1    
    47   31   29 1    
    48   61   29 1    
    49   35   30 1    
    50   32   31 1    
    51   33   31 1    
    52   62   31 1    
    53   72   32 1    
    54   34   33 1    
    55   35   33 1    
    56   63   33 1    
    57   73   34 1    
    58   36   35 1    
    59   64   35 1    
    60   37   36 ar   
    61   44   36 ar   
    62   38   37 ar   
    63   65   37 1    
    64   39   38 1    
    65   42   38 ar   
    66   40   39 2    
    67   41   39 am   
    68   66   41 1    
    69   67   41 1    
    70   43   42 ar   
    71   68   42 1    
    72   44   43 ar   
    73   69   43 1    
    74   70   44 1    
    75   46   45 ar   
    76   47   45 ar   
    77   48   45 ar   
@<TRIPOS>SUBSTRUCTURE
     1 NAP402      1 GROUP   
@<TRIPOS>SET

