#    Name: 1qbr_XV6_1_INTS_M
#    Modification time : Mon Mar 24 23:20:47 2014

@<TRIPOS>MOLECULE
1qbr_XV6_1_INTS_M
  131     0     9     0     0
SMALL
NO_CHARGES


@<TRIPOS>ATOM
      1 N          -8.7885   12.7400   27.8685 N.am      2 SEC2        0.0000 
      2 N          -8.4460   14.2020   27.8400 N.am      8 SEL2        0.0000 
      3 N          -9.1310   11.2780   27.8970 N.am      5 SEP2        0.0000 
      4 N          -6.7740   13.8185   27.8720 N.am      2 SEC2        0.0000 
      5 N          -5.1020   13.4350   27.9040 N.am      5 SEP2        0.0000 
      6 O         -12.3315   19.6690   27.7450 O.2       1 ALC1        0.0000 
      7 O         -11.8430   18.6910   28.7380 O.2       7 ALL1        0.0000 
      8 O         -12.8200   20.6470   26.7520 O.2       4 ALP1        0.0000 
      9 N          -9.6325   20.6940   28.0370 N.am      2 SEC2        0.0000 
     10 N          -9.9190   19.7200   27.0510 N.am      8 SEL2        0.0000 
     11 N          -9.3460   21.6680   29.0230 N.am      5 SEP2        0.0000 
     12 O         -11.3695   20.1835   26.9015 O.2       1 ALC1        0.0000 
     13 O          -9.9190   19.7200   27.0510 O.2       7 ALL1        0.0000 
     14 CA         -7.8670   14.0275   30.4000 C.3       3 GLC5        0.0000 
     15 CA         -9.6230   14.8260   30.1330 C.3       9 GLL5        0.0000 
     16 CA         -6.1110   13.2290   30.6670 C.3       6 GLP5        0.0000 
     17 CA        -10.8875   18.8980   30.5660 C.3       3 GLC5        0.0000 
     18 CA        -10.6460   18.0070   28.5720 C.3       9 GLL5        0.0000 
     19 CA        -11.1290   19.7890   32.5600 C.3       6 GLP5        0.0000 
     20 CA         -8.5680   13.6130   25.5860 C.3       3 GLC5        0.0000 
     21 CA         -7.9880   15.6710   25.7060 C.3       9 GLL5        0.0000 
     22 CA         -9.1480   11.5550   25.4660 C.3       6 GLP5        0.0000 
     23 CA        -11.3335   12.4725   26.3905 C.3       3 GLC5        0.0000 
     24 CA        -12.1580   13.3910   27.9990 C.3       9 GLL5        0.0000 
     25 CA        -10.5090   11.5540   24.7820 C.3       6 GLP5        0.0000 
     26 CA        -10.8975   11.3800   27.6475 C.3       3 GLC5        0.0000 
     27 CA        -12.6060   12.2220   28.6510 C.3       9 GLL5        0.0000 
     28 CA         -9.1890   10.5380   26.6440 C.3       6 GLP5        0.0000 
     29 CA        -15.1175   15.8575   28.9785 C.3       3 GLC5        0.0000 
     30 CA        -13.4240   14.7360   29.6120 C.3       9 GLL5        0.0000 
     31 CA        -16.8110   16.9790   28.3450 C.3       6 GLP5        0.0000 
     32 CA         -6.2835   21.0565   26.8265 C.3       3 GLC5        0.0000 
     33 CA         -6.0210   18.9560   26.2550 C.3       9 GLL5        0.0000 
     34 CA         -6.5460   23.1570   27.3980 C.3       6 GLP5        0.0000 
     35 CA         -3.3920   16.6075   28.4370 C.3       3 GLC5        0.0000 
     36 CA         -5.4260   17.0650   27.7200 C.3       9 GLL5        0.0000 
     37 CA         -1.3580   16.1500   29.1540 C.3       6 GLP5        0.0000 
     38 CA         -8.0980   19.2515   32.6860 C.3       3 GLC5        0.0000 
     39 CA         -8.5300   17.3960   32.8200 C.3       9 GLL5        0.0000 
     40 CA         -7.6660   21.1070   32.5520 C.3       6 GLP5        0.0000 
     41 CA         -7.1730   18.0465   31.3405 C.3       3 GLC5        0.0000 
     42 CA         -8.6570   16.7390   31.5700 C.3       9 GLL5        0.0000 
     43 CA         -5.6890   19.3540   31.1110 C.3       6 GLP5        0.0000 
     44 CA         -7.3840   14.9840   31.1185 C.3       3 GLC5        0.0000 
     45 N         -11.4985   17.2840   36.4795 N.am      2 SEC2        0.0000 
     46 N         -11.0610   15.8000   36.0140 N.am      8 SEL2        0.0000 
     47 N         -11.9360   18.7680   36.9450 N.am      5 SEP2        0.0000 
     48 O         -10.2555   12.9295   33.9260 O.2       1 ALC1        0.0000 
     49 O         -11.0360   13.8670   34.8750 O.2       7 ALL1        0.0000 
     50 O          -9.4750   11.9920   32.9770 O.2       4 ALP1        0.0000 
     51 N         -10.5240   10.9090   35.4375 N.am      2 SEC2        0.0000 
     52 N         -11.6980   11.7240   35.9440 N.am      8 SEL2        0.0000 
     53 N          -9.3500   10.0940   34.9310 N.am      5 SEP2        0.0000 
     54 CA        -10.2690   10.9045   37.0015 C.3       3 GLC5        0.0000 
     55 CA        -12.3190   11.2370   37.0760 C.3       9 GLL5        0.0000 
     56 CA         -8.2190   10.5720   36.9270 C.3       6 GLP5        0.0000 
     57 CA        -13.5610   15.4530   36.8480 C.3       3 GLC5        0.0000 
     58 CA        -12.4170   13.6750   37.2720 C.3       9 GLL5        0.0000 
     59 CA        -14.7050   17.2310   36.4240 C.3       6 GLP5        0.0000 
     60 N          -9.2110   18.5470   19.3780 N.am      2 SEC2        0.0000 
     61 N          -8.1760   17.4900   19.8740 N.am      8 SEL2        0.0000 
     62 N         -10.2460   19.6040   18.8820 N.am      5 SEP2        0.0000 
     63 O          -5.9605   15.5025   21.8810 O.2       1 ALC1        0.0000 
     64 O          -6.4460   16.4610   20.8690 O.2       7 ALL1        0.0000 
     65 O          -5.4750   14.5440   22.8930 O.2       4 ALP1        0.0000 
     66 N          -4.2725   14.6020   20.1585 N.am      2 SEC2        0.0000 
     67 N          -4.4230   15.9820   19.4880 N.am      8 SEL2        0.0000 
     68 N          -4.1220   13.2220   20.8290 N.am      5 SEP2        0.0000 
     69 CA         -4.4340   14.4695   18.5180 C.3       3 GLC5        0.0000 
     70 CA         -3.8060   16.3680   18.3150 C.3       9 GLL5        0.0000 
     71 CA         -5.0620   12.5710   18.7210 C.3       6 GLP5        0.0000 
     72 CA         -6.7420   19.5700   18.7585 C.3       3 GLC5        0.0000 
     73 CA         -5.7880   17.8570   18.5520 C.3       9 GLL5        0.0000 
     74 CA         -7.6960   21.2830   18.9650 C.3       6 GLP5        0.0000 
     75 CA        -14.3837   13.3870   27.8830 C.3       3 GLC5        0.0000 
     76 CA        -12.5630   14.6470   28.4930 C.3       9 GLL5        0.0000 
     77 CA        -16.4070   12.7550   27.5200 C.3       6 GLP5        0.0000 
     78 CA        -13.0120   14.5518   26.4939 C.3       3 GLC5        0.0000 
     79 CA        -13.8040   14.7690   24.8910 C.3       6 GLP5        0.0000 
     80 CA        -13.4467   10.5730   28.5922 C.3       3 GLC5        0.0000 
     81 CA        -13.8630    8.8830   27.9720 C.3       6 GLP5        0.0000 
     82 CA        -14.7188   12.5090   28.3663 C.3       3 GLC5        0.0000 
     83 CA        -11.1273   11.9976   29.6567 C.3       3 GLC5        0.0000 
     84 CA        -13.4550   12.3040   29.7740 C.3       9 GLL5        0.0000 
     85 CA         -9.3360   11.4400   30.2640 C.3       6 GLP5        0.0000 
     86 CA        -15.0275   13.4535   28.7270 C.3       3 GLC5        0.0000 
     87 CA        -13.8720   13.5680   30.2560 C.3       9 GLL5        0.0000 
     88 CA         -4.1535   19.8690   27.1487 C.3       3 GLC5        0.0000 
     89 CA         -2.8970   20.8470   28.3830 C.3       6 GLP5        0.0000 
     90 CA         -2.5053   16.6647   27.1043 C.3       3 GLC5        0.0000 
     91 CA         -3.8910   17.8180   25.9710 C.3       9 GLL5        0.0000 
     92 CA         -0.9650   15.9470   27.7050 C.3       6 GLP5        0.0000 
     93 CA         -3.4712   19.1148   27.4432 C.3       3 GLC5        0.0000 
     94 CA         -4.2000   16.9470   27.0360 C.3       9 GLL5        0.0000 
     95 CA         -5.1390   15.2450   26.4530 C.3       3 GLC5        0.0000 
     96 CA         -5.4650   13.4840   25.5280 C.3       6 GLP5        0.0000 
     97 CA         -4.5940   15.9910   28.9785 C.3       3 GLC5        0.0000 
     98 CA         -4.3750   14.9760   30.5790 C.3       6 GLP5        0.0000 
     99 CA         -5.9497   18.4772   29.3991 C.3       3 GLC5        0.0000 
    100 CA         -8.0412   14.1928   32.0820 C.3       3 GLC5        0.0000 
    101 CA         -9.4680   15.5820   31.4380 C.3       9 GLL5        0.0000 
    102 CA         -6.2740   13.0510   32.1640 C.3       6 GLP5        0.0000 
    103 CA         -9.5916   13.2927   30.9689 C.3       3 GLC5        0.0000 
    104 CA        -10.1490   15.0870   32.5620 C.3       9 GLL5        0.0000 
    105 CA        -10.3790   18.0512   33.2193 C.3       3 GLC5        0.0000 
    106 CA        -10.0330   15.7350   33.8150 C.3       9 GLL5        0.0000 
    107 CA         -8.1090   15.1273   34.8558 C.3       3 GLC5        0.0000 
    108 CA         -9.2250   16.8920   33.9420 C.3       9 GLL5        0.0000 
    109 CA         -6.5890   13.9410   35.8330 C.3       6 GLP5        0.0000 
    110 CA         -7.0723   17.5615   34.1430 C.3       3 GLC5        0.0000 
    111 CA         -5.2670   17.9790   34.9050 C.3       6 GLP5        0.0000 
    112 CA         -9.8613   18.4283   32.3775 C.3       3 GLC5        0.0000 
    113 CA        -10.5380   12.8635   37.8513 C.3       3 GLC5        0.0000 
    114 CA         -8.4630   12.7890   38.0800 C.3       6 GLP5        0.0000 
    115 CA        -10.0068   14.1995   23.9612 C.3       3 GLC5        0.0000 
    116 CA        -10.0960   15.9180   24.3060 C.3       9 GLL5        0.0000 
    117 CA        -10.6220   12.4700   23.5680 C.3       6 GLP5        0.0000 
    118 CA         -6.7939   14.7516   24.8449 C.3       3 GLC5        0.0000 
    119 CA         -7.9080   16.2330   23.2690 C.3       9 GLL5        0.0000 
    120 CA        -10.4288   18.0235   22.4102 C.3       3 GLC5        0.0000 
    121 CA         -8.5350   16.5210   22.0330 C.3       9 GLL5        0.0000 
    122 CA        -11.6190   19.5370   22.8390 C.3       6 GLP5        0.0000 
    123 CA         -9.0617   14.8305   20.6988 C.3       3 GLC5        0.0000 
    124 CA         -9.9420   16.4990   21.9300 C.3       9 GLL5        0.0000 
    125 CA         -8.8850   13.1510   19.4160 C.3       6 GLP5        0.0000 
    126 CA        -10.4760   14.4085   23.0328 C.3       3 GLC5        0.0000 
    127 CA        -11.2790   15.3685   21.3047 C.3       3 GLC5        0.0000 
    128 CA        -10.7180   16.1950   23.0650 C.3       9 GLL5        0.0000 
    129 CA        -12.2280   14.3900   20.1120 C.3       6 GLP5        0.0000 
    130 CA        -11.0130   17.7967   23.2622 C.3       3 GLC5        0.0000 
    131 CA        -12.1055   15.4127   24.2883 C.3       3 GLC5        0.0000 
@<TRIPOS>BOND
@<TRIPOS>SUBSTRUCTURE
     1 ALC1        6 GROUP        1 X    ALC  0     ROOT ALC X 1
     2 SEC2        1 GROUP        1 X    SEC  0     **** SEC X 2
     3 GLC5       14 GROUP        1 X    GLC  0     **** GLC X 6
     4 ALP1        8 GROUP        1 Y    ALP  0     ROOT ALP Y 8
     5 SEP2        3 GROUP        1 Y    SEP  0     **** SEP Y 9
     6 GLP5       16 GROUP        1 Y    GLP  0     **** GLP Y 13
     7 ALL1        7 GROUP        1 Z    ALL  0     ROOT ALL Z 15
     8 SEL2        2 GROUP        1 Z    SEL  0     **** SEL Z 16
     9 GLL5       15 GROUP        1 Z    GLL  0     **** GLL Z 20
@<TRIPOS>SET

