#    Name: 1qbr_XV6_1_ligand
#    Modification time : Mon Mar 24 23:20:47 2014

@<TRIPOS>MOLECULE
1qbr_XV6_1_ligand
   92    98     1     0     0
SMALL
NO_CHARGES


@<TRIPOS>ATOM
      1 O1         -8.4460   14.2020   27.8400 O.2       1 XV6638      0.0000 
      2 O4        -11.8430   18.6910   28.7380 O.3       1 XV6638      0.0000 
      3 O5         -9.9190   19.7200   27.0510 O.3       1 XV6638      0.0000 
      4 N2         -9.7780   15.6110   28.8990 N.am      1 XV6638      0.0000 
      5 N7         -8.6510   16.1960   26.9140 N.am      1 XV6638      0.0000 
      6 C1         -8.9560   15.3120   27.8810 C.2       1 XV6638      0.0000 
      7 C2         -9.6230   14.8260   30.1330 C.3       1 XV6638      0.0000 
      8 C3        -10.9230   16.5360   28.7990 C.3       1 XV6638      0.0000 
      9 C4        -10.6460   18.0070   28.5720 C.3       1 XV6638      0.0000 
     10 C5        -10.1090   18.3210   27.2080 C.3       1 XV6638      0.0000 
     11 C6         -8.7520   17.6730   27.0350 C.3       1 XV6638      0.0000 
     12 C7         -7.9880   15.6710   25.7060 C.3       1 XV6638      0.0000 
     13 C31       -12.0010   15.9090   27.8960 C.3       1 XV6638      0.0000 
     14 C32       -12.5630   14.6470   28.4930 C.ar      1 XV6638      0.0000 
     15 C33       -12.1580   13.3910   27.9990 C.ar      1 XV6638      0.0000 
     16 C34       -12.6060   12.2220   28.6510 C.ar      1 XV6638      0.0000 
     17 C35       -13.4550   12.3040   29.7740 C.ar      1 XV6638      0.0000 
     18 C36       -13.8720   13.5680   30.2560 C.ar      1 XV6638      0.0000 
     19 C37       -13.4240   14.7360   29.6120 C.ar      1 XV6638      0.0000 
     20 C61        -7.6640   18.1960   27.9900 C.3       1 XV6638      0.0000 
     21 C62        -6.3260   18.0760   27.3190 C.ar      1 XV6638      0.0000 
     22 C63        -6.0210   18.9560   26.2550 C.ar      1 XV6638      0.0000 
     23 C64        -4.7990   18.8260   25.5740 C.ar      1 XV6638      0.0000 
     24 C65        -3.8910   17.8180   25.9710 C.ar      1 XV6638      0.0000 
     25 C66        -4.2000   16.9470   27.0360 C.ar      1 XV6638      0.0000 
     26 C67        -5.4260   17.0650   27.7200 C.ar      1 XV6638      0.0000 
     27 C20        -9.4680   15.5820   31.4380 C.ar      1 XV6638      0.0000 
     28 C21       -10.1490   15.0870   32.5620 C.ar      1 XV6638      0.0000 
     29 C22       -10.0330   15.7350   33.8150 C.ar      1 XV6638      0.0000 
     30 C23        -9.2250   16.8920   33.9420 C.ar      1 XV6638      0.0000 
     31 C24        -8.5300   17.3960   32.8200 C.ar      1 XV6638      0.0000 
     32 C25        -8.6570   16.7390   31.5700 C.ar      1 XV6638      0.0000 
     33 C26       -10.7590   15.1670   35.0100 C.2       1 XV6638      0.0000 
     34 O26       -11.0610   15.8000   36.0140 O.2       1 XV6638      0.0000 
     35 N26       -11.0360   13.8670   34.8750 N.am      1 XV6638      0.0000 
     36 N27       -11.6980   11.7240   35.9440 N.2       1 XV6638      0.0000 
     37 C27       -11.6710   13.0580   35.9090 C.2       1 XV6638      0.0000 
     38 C28       -12.3190   11.2370   37.0760 C.2       1 XV6638      0.0000 
     39 S29       -12.4170   13.6750   37.2720 S.3       1 XV6638      0.0000 
     40 C29       -12.8090   12.2010   37.9730 C.2       1 XV6638      0.0000 
     41 C70        -8.6870   15.9400   24.4030 C.ar      1 XV6638      0.0000 
     42 C71        -7.9080   16.2330   23.2690 C.ar      1 XV6638      0.0000 
     43 C72        -8.5350   16.5210   22.0330 C.ar      1 XV6638      0.0000 
     44 C73        -9.9420   16.4990   21.9300 C.ar      1 XV6638      0.0000 
     45 C74       -10.7180   16.1950   23.0650 C.ar      1 XV6638      0.0000 
     46 C75       -10.0960   15.9180   24.3060 C.ar      1 XV6638      0.0000 
     47 C76        -7.7220   16.8850   20.8330 C.2       1 XV6638      0.0000 
     48 O76        -8.1760   17.4900   19.8740 O.2       1 XV6638      0.0000 
     49 N76        -6.4460   16.4610   20.8690 N.am      1 XV6638      0.0000 
     50 N77        -4.4230   15.9820   19.4880 N.2       1 XV6638      0.0000 
     51 C77        -5.5340   16.7010   19.7570 C.2       1 XV6638      0.0000 
     52 C78        -3.8060   16.3680   18.3150 C.2       1 XV6638      0.0000 
     53 S79        -5.7880   17.8570   18.5520 S.3       1 XV6638      0.0000 
     54 C79        -4.4360   17.4240   17.6230 C.2       1 XV6638      0.0000 
     55 H          -8.7391   14.1339   30.0301 H         1 XV6638      0.0000 
     56 H         -10.4980   14.1240   30.2447 H         1 XV6638      0.0000 
     57 H         -11.4306   16.4837   29.8601 H         1 XV6638      0.0000 
     58 H          -9.9178   18.3300   29.3147 H         1 XV6638      0.0000 
     59 H         -10.7661   17.9265   26.4611 H         1 XV6638      0.0000 
     60 H          -8.3636   18.0734   25.9908 H         1 XV6638      0.0000 
     61 H          -7.8464   14.5651   25.8086 H         1 XV6638      0.0000 
     62 H          -6.9493   16.0839   25.6409 H         1 XV6638      0.0000 
     63 H         -11.5548   15.6931   26.9208 H         1 XV6638      0.0000 
     64 H         -12.8011   16.6407   27.7507 H         1 XV6638      0.0000 
     65 H         -11.5533   13.3267   27.1867 H         1 XV6638      0.0000 
     66 H         -12.3103   11.3024   28.3035 H         1 XV6638      0.0000 
     67 H         -13.7704   11.4527   30.2413 H         1 XV6638      0.0000 
     68 H         -14.4905   13.6273   31.0616 H         1 XV6638      0.0000 
     69 H         -13.7201   15.6547   29.9516 H         1 XV6638      0.0000 
     70 H          -7.6831   17.6042   28.8966 H         1 XV6638      0.0000 
     71 H          -7.8747   19.2321   28.2234 H         1 XV6638      0.0000 
     72 H          -6.6870   19.6797   25.9865 H         1 XV6638      0.0000 
     73 H          -4.5668   19.4479   24.8039 H         1 XV6638      0.0000 
     74 H          -2.9962   17.7201   25.4770 H         1 XV6638      0.0000 
     75 H          -3.5287   16.2243   27.3136 H         1 XV6638      0.0000 
     76 H          -5.6572   16.4406   28.4807 H         1 XV6638      0.0000 
     77 H         -10.7358   14.2502   32.4794 H         1 XV6638      0.0000 
     78 H          -9.1462   17.3602   34.8453 H         1 XV6638      0.0000 
     79 H          -7.9442   18.2213   32.9057 H         1 XV6638      0.0000 
     80 H          -8.1581   17.1031   30.7530 H         1 XV6638      0.0000 
     81 H         -10.8006   13.3493   33.9859 H         1 XV6638      0.0000 
     82 H         -12.4203   10.2590   37.2582 H         1 XV6638      0.0000 
     83 H         -13.2305   12.2025   38.7385 H         1 XV6638      0.0000 
     84 H          -6.8881   16.2390   23.3334 H         1 XV6638      0.0000 
     85 H         -10.3928   16.7021   21.0388 H         1 XV6638      0.0000 
     86 H         -11.7398   16.1733   22.9955 H         1 XV6638      0.0000 
     87 H         -10.6630   15.7040   25.1244 H         1 XV6638      0.0000 
     88 H          -6.0567   15.9493   21.6811 H         1 XV6638      0.0000 
     89 H          -2.9772   15.9423   17.9698 H         1 XV6638      0.0000 
     90 H          -4.2941   17.8701   16.8782 H         1 XV6638      0.0000 
     91 H         -11.8337   19.4029   28.0358 H         1 XV6638      0.0000 
     92 H         -10.7920   20.0622   26.7035 H         1 XV6638      0.0000 
@<TRIPOS>BOND
     1    6    1 2    
     2    9    2 1    
     3   91    2 1    
     4   10    3 1    
     5   92    3 1    
     6    6    4 am   
     7    7    4 1    
     8    8    4 1    
     9    6    5 am   
    10   11    5 1    
    11   12    5 1    
    12   27    7 1    
    13   55    7 1    
    14   56    7 1    
    15    9    8 1    
    16   13    8 1    
    17   57    8 1    
    18   10    9 1    
    19   58    9 1    
    20   11   10 1    
    21   59   10 1    
    22   20   11 1    
    23   60   11 1    
    24   41   12 1    
    25   61   12 1    
    26   62   12 1    
    27   14   13 1    
    28   63   13 1    
    29   64   13 1    
    30   15   14 ar   
    31   19   14 ar   
    32   16   15 ar   
    33   65   15 1    
    34   17   16 ar   
    35   66   16 1    
    36   18   17 ar   
    37   67   17 1    
    38   19   18 ar   
    39   68   18 1    
    40   69   19 1    
    41   21   20 1    
    42   70   20 1    
    43   71   20 1    
    44   22   21 ar   
    45   26   21 ar   
    46   23   22 ar   
    47   72   22 1    
    48   24   23 ar   
    49   73   23 1    
    50   25   24 ar   
    51   74   24 1    
    52   26   25 ar   
    53   75   25 1    
    54   76   26 1    
    55   28   27 ar   
    56   32   27 ar   
    57   29   28 ar   
    58   77   28 1    
    59   30   29 ar   
    60   33   29 1    
    61   31   30 ar   
    62   78   30 1    
    63   32   31 ar   
    64   79   31 1    
    65   80   32 1    
    66   34   33 2    
    67   35   33 am   
    68   37   35 1    
    69   81   35 1    
    70   37   36 2    
    71   38   36 1    
    72   39   37 1    
    73   40   38 2    
    74   82   38 1    
    75   40   39 1    
    76   83   40 1    
    77   42   41 ar   
    78   46   41 ar   
    79   43   42 ar   
    80   84   42 1    
    81   44   43 ar   
    82   47   43 1    
    83   45   44 ar   
    84   85   44 1    
    85   46   45 ar   
    86   86   45 1    
    87   87   46 1    
    88   48   47 2    
    89   49   47 am   
    90   51   49 1    
    91   88   49 1    
    92   51   50 2    
    93   52   50 1    
    94   53   51 1    
    95   54   52 2    
    96   89   52 1    
    97   54   53 1    
    98   90   54 1    
@<TRIPOS>SUBSTRUCTURE
     1 XV6638      1 GROUP   
@<TRIPOS>SET

