#    Name: 3mpm_5LK_1_INTS_M
#    Modification time : Mon Mar 24 23:35:47 2014

@<TRIPOS>MOLECULE
3mpm_5LK_1_INTS_M
   66     0    12     0     0
SMALL
NO_CHARGES


@<TRIPOS>ATOM
      1 N          26.9165    8.6185   49.9795 N.am      2 SEC2        0.0000 
      2 N          25.9150    9.3540   50.9360 N.am     10 SEL2        0.0000 
      3 N          27.9180    7.8830   49.0230 N.am      6 SEP2        0.0000 
      4 CA         24.4130   11.1520   53.8860 C.3       4 GLC5        0.0000 
      5 CA         24.6630   10.9320   51.7140 C.3      12 GLL5        0.0000 
      6 CA         24.1630   11.3720   56.0580 C.3       8 GLP5        0.0000 
      7 CA         25.3010    9.3545   52.9435 C.3       4 GLC5        0.0000 
      8 CA         25.9390    7.7770   54.1730 C.3       8 GLP5        0.0000 
      9 CA         23.4135   10.3505   54.2700 C.3       4 GLC5        0.0000 
     10 CA         22.6640    9.3290   52.4820 C.3      12 GLL5        0.0000 
     11 O          23.5830    6.3745   52.1570 O.2       1 ALC1        0.0000 
     12 O          23.9550    7.5550   51.5150 O.2       9 ALL1        0.0000 
     13 O          23.2110    5.1940   52.7990 O.2       5 ALP1        0.0000 
     14 CA         23.8815    7.8000   54.1980 C.3       4 GLC5        0.0000 
     15 CA         21.8240    7.8230   54.2230 C.3      12 GLL5        0.0000 
     16 O          17.4910    6.4620   54.2780 O.2       1 ALC1        0.0000 
     17 O          18.6440    6.1160   54.8220 O.2       9 ALL1        0.0000 
     18 O          16.3380    6.8080   53.7340 O.2       5 ALP1        0.0000 
     19 CA         26.6250   13.0185   53.2470 C.3       4 GLC5        0.0000 
     20 CA         25.3650   13.9530   51.9010 C.3      12 GLL5        0.0000 
     21 CA         27.8850   12.0840   54.5930 C.3       8 GLP5        0.0000 
     22 CA         30.0790   13.8930   52.7710 C.3       4 GLC5        0.0000 
     23 CA         30.3270   14.0690   50.5900 C.3      12 GLL5        0.0000 
     24 CA         29.8310   13.7170   54.9520 C.3       8 GLP5        0.0000 
     25 CA         30.8770   12.1615   50.9250 C.3       4 GLC5        0.0000 
     26 CA         31.4270   10.2540   51.2600 C.3       8 GLP5        0.0000 
     27 OD1        33.1365   14.2415   48.4500 O.co2     3 ASC3        0.0000 
     28 OD1        31.7450   15.5040   49.0860 O.co2    11 ASL3        0.0000 
     29 OD1        34.5280   12.9790   47.8140 O.co2     7 ASP3        0.0000 
     30 O          31.3715   14.3205   48.2810 O.2       1 ALC1        0.0000 
     31 O          31.7450   15.5040   49.0860 O.2       9 ALL1        0.0000 
     32 O          30.9980   13.1370   47.4760 O.2       5 ALP1        0.0000 
     33 CA         27.7695   14.8750   48.6710 C.3       4 GLC5        0.0000 
     34 CA         29.3230   15.9910   49.4720 C.3      12 GLL5        0.0000 
     35 CA         26.2160   13.7590   47.8700 C.3       8 GLP5        0.0000 
     36 CA         26.5628   11.6537   53.0553 C.3       4 GLC5        0.0000 
     37 CA         25.8180   11.5150   51.3210 C.3      12 GLL5        0.0000 
     38 CA         23.8242   11.3753   49.9607 C.3       4 GLC5        0.0000 
     39 CA         22.4080   11.5270   48.4040 C.3       8 GLP5        0.0000 
     40 CA         24.5673    8.4285   53.1550 C.3       4 GLC5        0.0000 
     41 CA         23.7270    8.8310   51.7920 C.3      12 GLL5        0.0000 
     42 CA         22.6708    9.0690   50.4850 C.3       4 GLC5        0.0000 
     43 CA         22.1460    9.0580   48.8330 C.3       8 GLP5        0.0000 
     44 CA         21.5265    8.7505   50.7705 C.3       4 GLC5        0.0000 
     45 CA         21.5350    8.4950   53.0140 C.3      12 GLL5        0.0000 
     46 CA         20.6710    7.9035   56.2760 C.3       4 GLC5        0.0000 
     47 CA         20.0010    8.3850   58.0330 C.3       8 GLP5        0.0000 
     48 CA         21.3115    5.6295   53.9650 C.3       4 GLC5        0.0000 
     49 CA         20.8580    7.0210   54.8150 C.3      12 GLL5        0.0000 
     50 CA         21.2820    3.8370   53.4110 C.3       8 GLP5        0.0000 
     51 CA         19.5670    5.1855   55.5780 C.3       4 GLC5        0.0000 
     52 CA         18.9070    3.4020   56.6440 C.3       8 GLP5        0.0000 
     53 CA         20.3640    5.5477   53.5090 C.3       4 GLC5        0.0000 
     54 CA         19.5960    6.9170   54.2090 C.3      12 GLL5        0.0000 
     55 CA         18.9528    8.8939   54.4783 C.3       4 GLC5        0.0000 
     56 CA         18.0430    9.9630   55.9520 C.3       8 GLP5        0.0000 
     57 CA         26.9838   13.8923   49.4585 C.3       4 GLC5        0.0000 
     58 CA         27.5350   13.3580   51.0020 C.3      12 GLL5        0.0000 
     59 CA         27.6559   13.0065   52.8696 C.3       4 GLC5        0.0000 
     60 CA         27.9680   14.6930   51.0920 C.3      12 GLL5        0.0000 
     61 CA         26.8965   14.9078   53.6967 C.3       4 GLC5        0.0000 
     62 CA         27.0660   15.6430   51.5830 C.3      12 GLL5        0.0000 
     63 CA         27.3710   14.3470   55.6050 C.3       8 GLP5        0.0000 
     64 CA         26.3190   14.6137   49.8293 C.3       4 GLC5        0.0000 
     65 CA         25.7780   15.2940   51.9940 C.3      12 GLL5        0.0000 
     66 CA         25.9560   13.4286   49.7503 C.3       4 GLC5        0.0000 
@<TRIPOS>BOND
@<TRIPOS>SUBSTRUCTURE
     1 ALC1       11 GROUP        1 X    ALC  0     ROOT ALC X 1
     2 SEC2        1 GROUP        1 X    SEC  0     **** SEC X 2
     3 ASC3       27 GROUP        1 X    ASC  0     **** ASC X 3
     4 GLC5        4 GROUP        1 X    GLC  0     **** GLC X 6
     5 ALP1       13 GROUP        1 Y    ALP  0     ROOT ALP Y 8
     6 SEP2        3 GROUP        1 Y    SEP  0     **** SEP Y 9
     7 ASP3       29 GROUP        1 Y    ASP  0     **** ASP Y 10
     8 GLP5        6 GROUP        1 Y    GLP  0     **** GLP Y 13
     9 ALL1       12 GROUP        1 Z    ALL  0     ROOT ALL Z 15
    10 SEL2        2 GROUP        1 Z    SEL  0     **** SEL Z 16
    11 ASL3       28 GROUP        1 Z    ASL  0     **** ASL Z 17
    12 GLL5        5 GROUP        1 Z    GLL  0     **** GLL Z 20
@<TRIPOS>SET

