#    Name: 3mpm_5LK_1_ligand
#    Modification time : Mon Mar 24 23:35:47 2014

@<TRIPOS>MOLECULE
3mpm_5LK_1_ligand
   58    62     1     0     0
SMALL
NO_CHARGES


@<TRIPOS>ATOM
      1 N1         24.6870    9.6500   51.4490 N.pl3     1 5LK1        0.0000 
      2 N2         25.9150    9.3540   50.9360 N.2       1 5LK1        0.0000 
      3 C3         26.6370   10.3950   50.8150 C.2       1 5LK1        0.0000 
      4 C5         25.8180   11.5150   51.3210 C.2       1 5LK1        0.0000 
      5 C6         24.6630   10.9320   51.7140 C.2       1 5LK1        0.0000 
      6 N7         23.4910   11.5300   52.3120 N.2       1 5LK1        0.0000 
      7 C8         22.5310   10.7910   52.7290 C.2       1 5LK1        0.0000 
      8 C10        22.6640    9.3290   52.4820 C.3       1 5LK1        0.0000 
      9 C11        23.7270    8.8310   51.7920 C.3       1 5LK1        0.0000 
     10 N12        23.9550    7.5550   51.5150 N.4       1 5LK1        0.0000 
     11 C15        21.5350    8.4950   53.0140 C.ar      1 5LK1        0.0000 
     12 C16        21.8240    7.8230   54.2230 C.ar      1 5LK1        0.0000 
     13 C18        20.8580    7.0210   54.8150 C.ar      1 5LK1        0.0000 
     14 C20        19.5960    6.9170   54.2090 C.ar      1 5LK1        0.0000 
     15 C21        19.2960    7.6000   53.0050 C.ar      1 5LK1        0.0000 
     16 C23        20.2790    8.3910   52.4020 C.ar      1 5LK1        0.0000 
     17 O25        18.6440    6.1160   54.8220 O.3       1 5LK1        0.0000 
     18 C27        26.2360   12.9720   51.3990 C.ar      1 5LK1        0.0000 
     19 C28        27.5350   13.3580   51.0020 C.ar      1 5LK1        0.0000 
     20 C30        27.9680   14.6930   51.0920 C.ar      1 5LK1        0.0000 
     21 C31        27.0660   15.6430   51.5830 C.ar      1 5LK1        0.0000 
     22 C33        25.7780   15.2940   51.9940 C.ar      1 5LK1        0.0000 
     23 C35        25.3650   13.9530   51.9010 C.ar      1 5LK1        0.0000 
     24 N37        29.2810   15.1130   50.6720 N.3       1 5LK1        0.0000 
     25 C38        30.3270   14.0690   50.5900 C.3       1 5LK1        0.0000 
     26 C41        31.7380   14.6790   50.3250 C.3       1 5LK1        0.0000 
     27 N44        31.7450   15.5040   49.0860 N.4       1 5LK1        0.0000 
     28 C45        30.7210   16.5760   49.1240 C.3       1 5LK1        0.0000 
     29 C48        29.3230   15.9910   49.4720 C.3       1 5LK1        0.0000 
     30 C51        33.1210   16.0000   48.8020 C.3       1 5LK1        0.0000 
     31 H          27.5109   10.5489   50.4913 H         1 5LK1        0.0000 
     32 H          21.6913   11.0849   53.2075 H         1 5LK1        0.0000 
     33 H          23.3422    9.1977   53.7434 H         1 5LK1        0.0000 
     34 H          23.0778    9.0343   50.5479 H         1 5LK1        0.0000 
     35 H          22.7467    7.9345   54.6523 H         1 5LK1        0.0000 
     36 H          21.0548    6.5126   55.6762 H         1 5LK1        0.0000 
     37 H          18.3710    7.5107   52.5889 H         1 5LK1        0.0000 
     38 H          20.0863    8.8837   51.5326 H         1 5LK1        0.0000 
     39 H          28.1821   12.6394   50.6364 H         1 5LK1        0.0000 
     40 H          27.3642   16.6368   51.6431 H         1 5LK1        0.0000 
     41 H          25.1398   16.0012   52.3586 H         1 5LK1        0.0000 
     42 H          24.4194   13.6897   52.2025 H         1 5LK1        0.0000 
     43 H          30.1119   13.3658   49.7780 H         1 5LK1        0.0000 
     44 H          30.3821   13.4994   51.5241 H         1 5LK1        0.0000 
     45 H          32.4485   13.8542   50.2428 H         1 5LK1        0.0000 
     46 H          32.0087   15.2842   51.1924 H         1 5LK1        0.0000 
     47 H          31.4722   14.8103   48.2435 H         1 5LK1        0.0000 
     48 H          30.6449   17.0729   48.1559 H         1 5LK1        0.0000 
     49 H          30.9698   17.3221   49.8799 H         1 5LK1        0.0000 
     50 H          28.6264   16.8460   49.6000 H         1 5LK1        0.0000 
     51 H          28.9625   15.4363   48.5803 H         1 5LK1        0.0000 
     52 H          24.0920    7.4063   50.5357 H         1 5LK1        0.0000 
     53 H          24.7719    7.2142   51.9803 H         1 5LK1        0.0000 
     54 H          23.1928    6.9720   51.7962 H         1 5LK1        0.0000 
     55 H          33.4747   16.5625   49.5494 H         1 5LK1        0.0000 
     56 H          33.7669   15.2481   48.6700 H         1 5LK1        0.0000 
     57 H          33.1503   16.5603   47.9742 H         1 5LK1        0.0000 
     58 H          17.8033    6.6572   54.8088 H         1 5LK1        0.0000 
@<TRIPOS>BOND
     1    2    1 1    
     2    5    1 1    
     3    9    1 1    
     4    3    2 2    
     5    4    3 1    
     6   31    3 1    
     7    5    4 2    
     8   18    4 1    
     9    6    5 1    
    10    7    6 2    
    11    8    7 1    
    12   32    7 1    
    13    9    8 1    
    14   11    8 1    
    15   33    8 1    
    16   10    9 1    
    17   34    9 1    
    18   52   10 1    
    19   53   10 1    
    20   54   10 1    
    21   12   11 ar   
    22   16   11 ar   
    23   13   12 ar   
    24   35   12 1    
    25   14   13 ar   
    26   36   13 1    
    27   15   14 ar   
    28   17   14 1    
    29   16   15 ar   
    30   37   15 1    
    31   38   16 1    
    32   58   17 1    
    33   19   18 ar   
    34   23   18 ar   
    35   20   19 ar   
    36   39   19 1    
    37   21   20 ar   
    38   24   20 1    
    39   22   21 ar   
    40   40   21 1    
    41   23   22 ar   
    42   41   22 1    
    43   42   23 1    
    44   25   24 1    
    45   29   24 1    
    46   26   25 1    
    47   43   25 1    
    48   44   25 1    
    49   27   26 1    
    50   45   26 1    
    51   46   26 1    
    52   28   27 1    
    53   30   27 1    
    54   47   27 1    
    55   29   28 1    
    56   48   28 1    
    57   49   28 1    
    58   50   29 1    
    59   51   29 1    
    60   55   30 1    
    61   56   30 1    
    62   57   30 1    
@<TRIPOS>SUBSTRUCTURE
     1 5LK1        1 GROUP   
@<TRIPOS>SET

