#    Name: 3irx_UDR_1_INTS_M
#    Modification time : Tue Mar 25 17:18:56 2014

@<TRIPOS>MOLECULE
3irx_UDR_1_INTS_M
   75     0     3     0     0
SMALL
NO_CHARGES


@<TRIPOS>ATOM
      1 CA        -53.9485  -31.9520  -34.3850 C.3       1 GLC5        0.0000 
      2 CA        -52.0760  -31.9410  -35.0700 C.3       3 GLL5        0.0000 
      3 CA        -55.8210  -31.9630  -33.7000 C.3       2 GLP5        0.0000 
      4 CA        -53.0770  -32.4245  -35.9980 C.3       1 GLC5        0.0000 
      5 CA        -54.0780  -32.9080  -36.9260 C.3       2 GLP5        0.0000 
      6 CA        -53.8605  -30.5205  -38.5575 C.3       1 GLC5        0.0000 
      7 CA        -54.5510  -28.6040  -37.9260 C.3       3 GLL5        0.0000 
      8 CA        -53.1700  -32.4370  -39.1890 C.3       2 GLP5        0.0000 
      9 CA        -55.8965  -28.8250  -39.6950 C.3       1 GLC5        0.0000 
     10 CA        -57.2420  -29.0460  -41.4640 C.3       2 GLP5        0.0000 
     11 CA        -56.0495  -29.6600  -38.0100 C.3       1 GLC5        0.0000 
     12 CA        -57.5480  -30.7160  -38.0940 C.3       2 GLP5        0.0000 
     13 CA        -48.2230  -33.8195  -37.1960 C.3       1 GLC5        0.0000 
     14 CA        -48.7850  -32.6170  -35.5650 C.3       3 GLL5        0.0000 
     15 CA        -47.6610  -35.0220  -38.8270 C.3       2 GLP5        0.0000 
     16 CA        -51.4275  -24.5590  -35.6240 C.3       1 GLC5        0.0000 
     17 CA        -52.8040  -24.4250  -36.7700 C.3       3 GLL5        0.0000 
     18 CA        -50.0510  -24.6930  -34.4780 C.3       2 GLP5        0.0000 
     19 CA        -52.9080  -24.0795  -38.6860 C.3       1 GLC5        0.0000 
     20 CA        -53.0120  -23.7340  -40.6020 C.3       2 GLP5        0.0000 
     21 CA        -47.7265  -30.2135  -43.5605 C.3       1 GLC5        0.0000 
     22 CA        -46.0340  -31.5230  -43.5850 C.3       3 GLL5        0.0000 
     23 CA        -49.4190  -28.9040  -43.5360 C.3       2 GLP5        0.0000 
     24 CA        -44.8890  -30.0950  -42.3785 C.3       1 GLC5        0.0000 
     25 CA        -43.7440  -28.6670  -41.1720 C.3       2 GLP5        0.0000 
     26 CA        -52.0530  -33.4145  -40.1930 C.3       1 GLC5        0.0000 
     27 CA        -50.9360  -34.3920  -41.1970 C.3       3 GLL5        0.0000 
     28 CA        -51.1455  -33.3700  -42.7105 C.3       1 GLC5        0.0000 
     29 CA        -51.3550  -32.3480  -44.2240 C.3       2 GLP5        0.0000 
     30 CA        -49.8400  -35.1350  -40.0445 C.3       1 GLC5        0.0000 
     31 CA        -48.7440  -35.8780  -38.8920 C.3       2 GLP5        0.0000 
     32 CA        -48.6425  -28.7335  -41.6545 C.3       1 GLC5        0.0000 
     33 CA        -47.8660  -28.5630  -39.7730 C.3       3 GLL5        0.0000 
     34 CA        -46.1480  -27.9920  -40.6755 C.3       1 GLC5        0.0000 
     35 CA        -44.4300  -27.4210  -41.5780 C.3       2 GLP5        0.0000 
     36 CA        -45.5135  -29.6700  -41.3590 C.3       1 GLC5        0.0000 
     37 CA        -47.2830  -30.6730  -41.5460 C.3       3 GLL5        0.0000 
     38 CA        -51.1850  -32.1375  -39.9300 C.3       1 GLC5        0.0000 
     39 CA        -49.2000  -31.8380  -40.6710 C.3       3 GLL5        0.0000 
     40 CA        -48.1715  -27.0625  -36.7530 C.3       1 GLC5        0.0000 
     41 CA        -47.8910  -27.4940  -38.8810 C.3       3 GLL5        0.0000 
     42 CA        -48.4520  -26.6310  -34.6250 C.3       2 GLP5        0.0000 
     43 CA        -46.2285  -26.8640  -39.8380 C.3       1 GLC5        0.0000 
     44 CA        -44.5660  -26.2340  -40.7950 C.3       2 GLP5        0.0000 
     45 CA        -46.5470  -25.7245  -40.6025 C.3       1 GLC5        0.0000 
     46 CA        -47.8390  -26.1570  -39.6200 C.3       3 GLL5        0.0000 
     47 CA        -45.2550  -25.2920  -41.5850 C.3       2 GLP5        0.0000 
     48 CA        -50.0925  -26.1725  -41.8275 C.3       1 GLC5        0.0000 
     49 CA        -49.2310  -25.7600  -40.1060 C.3       3 GLL5        0.0000 
     50 CA        -50.9540  -26.5850  -43.5490 C.3       2 GLP5        0.0000 
     51 CA        -47.3935  -24.8835  -40.6155 C.3       1 GLC5        0.0000 
     52 CA        -45.5560  -24.0070  -41.1250 C.3       2 GLP5        0.0000 
     53 CA        -49.5510  -29.3365  -41.2380 C.3       1 GLC5        0.0000 
     54 CA        -48.4540  -29.8130  -39.6080 C.3       3 GLL5        0.0000 
     55 CA        -50.6480  -28.8600  -42.8680 C.3       2 GLP5        0.0000 
     56 CA        -52.2455  -31.8255  -36.4875 C.3       1 GLC5        0.0000 
     57 CA        -50.4130  -30.7430  -36.0490 C.3       3 GLL5        0.0000 
     58 CA        -47.0525  -31.8700  -36.1833 C.3       1 GLC5        0.0000 
     59 CA        -49.3110  -31.4850  -36.4500 C.3       3 GLL5        0.0000 
     60 CA        -45.0570  -31.6890  -36.3590 C.3       2 GLP5        0.0000 
     61 CA        -47.1097  -30.1810  -37.9535 C.3       1 GLC5        0.0000 
     62 CA        -49.1260  -30.1360  -38.4460 C.3       3 GLL5        0.0000 
     63 CA        -45.3210  -29.7010  -37.8600 C.3       2 GLP5        0.0000 
     64 CA        -46.5577  -30.2130  -39.4700 C.3       1 GLC5        0.0000 
     65 CA        -48.3060  -30.7770  -40.6140 C.3       3 GLL5        0.0000 
     66 CA        -51.8668  -30.9955  -38.3185 C.3       1 GLC5        0.0000 
     67 CA        -50.2420  -29.4030  -38.0450 C.3       3 GLL5        0.0000 
     68 CA        -49.6040  -24.7302  -40.7090 C.3       1 GLC5        0.0000 
     69 CA        -50.6730  -23.5020  -41.5550 C.3       2 GLP5        0.0000 
     70 CA        -46.7436  -29.3109  -38.6638 C.3       1 GLC5        0.0000 
     71 CA        -46.4822  -33.2350  -41.0560 C.3       1 GLC5        0.0000 
     72 CA        -47.1540  -31.6410  -42.5430 C.3       3 GLL5        0.0000 
     73 CA        -45.3670  -34.3010  -39.5420 C.3       2 GLP5        0.0000 
     74 CA        -49.9707  -32.4279  -43.0529 C.3       1 GLC5        0.0000 
     75 CA        -48.0410  -32.6970  -42.5970 C.3       3 GLL5        0.0000 
@<TRIPOS>BOND
@<TRIPOS>SUBSTRUCTURE
     1 GLC5        1 GROUP        1 X    GLC  0     ROOT GLC X 6
     2 GLP5        3 GROUP        1 Y    GLP  0     ROOT GLP Y 13
     3 GLL5        2 GROUP        1 Z    GLL  0     ROOT GLL Z 20
@<TRIPOS>SET

