#    Name: 3irx_UDR_1_ligand
#    Modification time : Tue Mar 25 17:18:56 2014

@<TRIPOS>MOLECULE
3irx_UDR_1_ligand
   65    68     1     0     0
SMALL
NO_CHARGES


@<TRIPOS>ATOM
      1 CAA       -52.0760  -31.9410  -35.0700 C.3       1 UDR556      0.0000 
      2 CAB       -54.5510  -28.6040  -37.9260 C.3       1 UDR556      0.0000 
      3 CAC       -48.7850  -32.6170  -35.5650 C.3       1 UDR556      0.0000 
      4 CAD       -52.8040  -24.4250  -36.7700 C.3       1 UDR556      0.0000 
      5 CAE       -46.0340  -31.5230  -43.5850 C.3       1 UDR556      0.0000 
      6 CAF       -50.9360  -34.3920  -41.1970 C.3       1 UDR556      0.0000 
      7 OAG       -52.5660  -29.0180  -35.2730 O.2       1 UDR556      0.0000 
      8 OAH       -49.6420  -35.5350  -43.5140 O.2       1 UDR556      0.0000 
      9 CAI       -47.8660  -28.5630  -39.7730 C.2       1 UDR556      0.0000 
     10 CAJ       -48.6710  -31.1860  -37.6480 C.ar      1 UDR556      0.0000 
     11 CAK       -47.2830  -30.6730  -41.5460 C.ar      1 UDR556      0.0000 
     12 CAL       -50.2420  -29.4030  -38.0450 C.ar      1 UDR556      0.0000 
     13 CAM       -49.2000  -31.8380  -40.6710 C.ar      1 UDR556      0.0000 
     14 CAN       -47.8910  -27.4940  -38.8810 C.3       1 UDR556      0.0000 
     15 CAO       -47.8390  -26.1570  -39.6200 C.3       1 UDR556      0.0000 
     16 CAP       -49.2310  -25.7600  -40.1060 C.3       1 UDR556      0.0000 
     17 NAQ       -50.6100  -23.5240  -37.6710 N.2       1 UDR556      0.0000 
     18 NAR       -49.7270  -23.8460  -38.4700 N.2       1 UDR556      0.0000 
     19 OAS       -51.0180  -31.0060  -34.8600 O.3       1 UDR556      0.0000 
     20 OAT       -51.1750  -25.4910  -38.4700 O.3       1 UDR556      0.0000 
     21 OAU       -48.1460  -33.7770  -43.4440 O.3       1 UDR556      0.0000 
     22 SAV       -52.9600  -27.8940  -37.5650 S.3       1 UDR556      0.0000 
     23 CAW       -52.1360  -28.9330  -36.4180 C.2       1 UDR556      0.0000 
     24 CAX       -48.4540  -29.8130  -39.6080 C.2       1 UDR556      0.0000 
     25 CAY       -49.3110  -31.4850  -36.4500 C.ar      1 UDR556      0.0000 
     26 CAZ       -51.5220  -24.4890  -37.6340 C.2       1 UDR556      0.0000 
     27 CBA       -47.1540  -31.6410  -42.5430 C.ar      1 UDR556      0.0000 
     28 CBB       -49.1260  -30.1360  -38.4460 C.ar      1 UDR556      0.0000 
     29 CBC       -48.3060  -30.7770  -40.6140 C.ar      1 UDR556      0.0000 
     30 CBD       -50.0080  -25.0420  -39.0060 C.2       1 UDR556      0.0000 
     31 CBE       -50.8850  -29.7050  -36.8510 C.ar      1 UDR556      0.0000 
     32 CBF       -50.4130  -30.7430  -36.0490 C.ar      1 UDR556      0.0000 
     33 CBG       -49.2200  -34.4950  -43.0050 C.2       1 UDR556      0.0000 
     34 CBH       -49.0640  -32.7990  -41.6620 C.ar      1 UDR556      0.0000 
     35 CBI       -48.0410  -32.6970  -42.5970 C.ar      1 UDR556      0.0000 
     36 NBJ       -49.7580  -33.9030  -41.9450 N.am      1 UDR556      0.0000 
     37 H         -47.3297  -28.4033  -40.6968 H         1 UDR556      0.0000 
     38 H         -47.8577  -31.7408  -37.9490 H         1 UDR556      0.0000 
     39 H         -46.6224  -29.8890  -41.5052 H         1 UDR556      0.0000 
     40 H         -50.5892  -28.6357  -38.6371 H         1 UDR556      0.0000 
     41 H         -49.9584  -31.9103  -39.9821 H         1 UDR556      0.0000 
     42 H         -47.0358  -27.5091  -38.1788 H         1 UDR556      0.0000 
     43 H         -48.8058  -27.4842  -38.2583 H         1 UDR556      0.0000 
     44 H         -47.1712  -26.2447  -40.4737 H         1 UDR556      0.0000 
     45 H         -47.4601  -25.3904  -38.9484 H         1 UDR556      0.0000 
     46 H         -49.7755  -26.6547  -40.4056 H         1 UDR556      0.0000 
     47 H         -49.1360  -25.1008  -40.9681 H         1 UDR556      0.0000 
     48 H         -51.7405  -32.8016  -35.4531 H         1 UDR556      0.0000 
     49 H         -52.5490  -32.1642  -34.2177 H         1 UDR556      0.0000 
     50 H         -52.7643  -31.5869  -35.7031 H         1 UDR556      0.0000 
     51 H         -54.4684  -29.5196  -38.3195 H         1 UDR556      0.0000 
     52 H         -55.1153  -28.6877  -37.1047 H         1 UDR556      0.0000 
     53 H         -55.0655  -28.0493  -38.5798 H         1 UDR556      0.0000 
     54 H         -47.8442  -32.4509  -35.2696 H         1 UDR556      0.0000 
     55 H         -49.3364  -32.7289  -34.7383 H         1 UDR556      0.0000 
     56 H         -48.7914  -33.4955  -36.0427 H         1 UDR556      0.0000 
     57 H         -52.5919  -24.3443  -35.7961 H         1 UDR556      0.0000 
     58 H         -53.3758  -23.6409  -37.0114 H         1 UDR556      0.0000 
     59 H         -53.3675  -25.2437  -36.8804 H         1 UDR556      0.0000 
     60 H         -45.1291  -31.5238  -43.1593 H         1 UDR556      0.0000 
     61 H         -46.0519  -32.2811  -44.2369 H         1 UDR556      0.0000 
     62 H         -46.1077  -30.6785  -44.1154 H         1 UDR556      0.0000 
     63 H         -50.7820  -35.3039  -40.8165 H         1 UDR556      0.0000 
     64 H         -51.1663  -33.7903  -40.4322 H         1 UDR556      0.0000 
     65 H         -51.7473  -34.4502  -41.7787 H         1 UDR556      0.0000 
@<TRIPOS>BOND
     1   19    1 1    
     2   48    1 1    
     3   49    1 1    
     4   50    1 1    
     5   22    2 1    
     6   51    2 1    
     7   52    2 1    
     8   53    2 1    
     9   25    3 1    
    10   54    3 1    
    11   55    3 1    
    12   56    3 1    
    13   26    4 1    
    14   57    4 1    
    15   58    4 1    
    16   59    4 1    
    17   27    5 1    
    18   60    5 1    
    19   61    5 1    
    20   62    5 1    
    21   36    6 1    
    22   63    6 1    
    23   64    6 1    
    24   65    6 1    
    25   23    7 2    
    26   33    8 2    
    27   14    9 1    
    28   24    9 2    
    29   37    9 1    
    30   25   10 ar   
    31   28   10 ar   
    32   38   10 1    
    33   27   11 ar   
    34   29   11 ar   
    35   39   11 1    
    36   28   12 ar   
    37   31   12 ar   
    38   40   12 1    
    39   29   13 ar   
    40   34   13 ar   
    41   41   13 1    
    42   15   14 1    
    43   42   14 1    
    44   43   14 1    
    45   16   15 1    
    46   44   15 1    
    47   45   15 1    
    48   30   16 1    
    49   46   16 1    
    50   47   16 1    
    51   18   17 1    
    52   26   17 2    
    53   30   18 2    
    54   32   19 1    
    55   26   20 1    
    56   30   20 1    
    57   33   21 1    
    58   35   21 1    
    59   23   22 1    
    60   31   23 1    
    61   28   24 1    
    62   29   24 1    
    63   32   25 ar   
    64   35   27 ar   
    65   32   31 ar   
    66   36   33 am   
    67   35   34 ar   
    68   36   34 1    
@<TRIPOS>SUBSTRUCTURE
     1 UDR556      1 GROUP   
@<TRIPOS>SET

