#    Name: 1zw1_TN5_1_INTS_M
#    Modification time : Mon Mar 24 17:52:51 2014

@<TRIPOS>MOLECULE
1zw1_TN5_1_INTS_M
   56     0     9     0     0
SMALL
NO_CHARGES


@<TRIPOS>ATOM
      1 CA         48.1625   97.9500   32.5780 C.3       3 GLC5        0.0000 
      2 CA         49.1400   97.5560   33.8720 C.3       9 GLL5        0.0000 
      3 CA         47.1850   98.3440   31.2840 C.3       6 GLP5        0.0000 
      4 CA         50.8045   97.7600   33.2060 C.3       3 GLC5        0.0000 
      5 CA         52.4690   97.9640   32.5400 C.3       6 GLP5        0.0000 
      6 CA         47.6095   96.1880   34.7220 C.3       3 GLC5        0.0000 
      7 CA         46.0790   94.8200   35.5720 C.3       6 GLP5        0.0000 
      8 CA         51.0495   97.2285   36.6445 C.3       3 GLC5        0.0000 
      9 CA         50.4840   95.6490   35.1660 C.3       9 GLL5        0.0000 
     10 CA         51.6150   98.8080   38.1230 C.3       6 GLP5        0.0000 
     11 CA         52.0225   94.0520   34.1110 C.3       3 GLC5        0.0000 
     12 CA         50.1770   93.0880   34.6440 C.3       9 GLL5        0.0000 
     13 CA         53.8680   95.0160   33.5780 C.3       6 GLP5        0.0000 
     14 N          48.2155   91.3290   33.3620 N.am      2 SEC2        0.0000 
     15 N          48.5890   92.4820   32.8770 N.am      8 SEL2        0.0000 
     16 N          47.8420   90.1760   33.8470 N.am      5 SEP2        0.0000 
     17 O          48.5440   92.4070   31.5050 O.2       1 ALC1        0.0000 
     18 O          48.5890   92.4820   32.8770 O.2       7 ALL1        0.0000 
     19 O          48.4990   92.3320   30.1330 O.2       4 ALP1        0.0000 
     20 CA         47.2480   94.6295   32.0880 C.3       3 GLC5        0.0000 
     21 CA         48.8380   94.9220   33.3320 C.3       9 GLL5        0.0000 
     22 CA         45.6580   94.3370   30.8440 C.3       6 GLP5        0.0000 
     23 CA         53.2535   93.3100   33.3895 C.3       3 GLC5        0.0000 
     24 CA         52.6390   91.6040   33.2010 C.3       9 GLL5        0.0000 
     25 CA         54.7065   91.8720   31.0655 C.3       3 GLC5        0.0000 
     26 CA         53.6750   90.8170   32.6760 C.3       9 GLL5        0.0000 
     27 CA         55.7380   92.9270   29.4550 C.3       6 GLP5        0.0000 
     28 CA         52.7495   90.5500   30.8235 C.3       3 GLC5        0.0000 
     29 CA         51.8240   90.2830   28.9710 C.3       6 GLP5        0.0000 
     30 CA         54.4125   92.5535   33.3010 C.3       3 GLC5        0.0000 
     31 CA         55.1500   94.2900   33.9260 C.3       6 GLP5        0.0000 
     32 O          55.7720   87.0505   32.9620 O.2       1 ALC1        0.0000 
     33 O          55.1780   88.5210   32.4410 O.2       7 ALL1        0.0000 
     34 O          56.3660   85.5800   33.4830 O.2       4 ALP1        0.0000 
     35 CA         53.1145   89.5305   35.9540 C.3       3 GLC5        0.0000 
     36 CA         53.0090   88.7720   34.1680 C.3       9 GLL5        0.0000 
     37 CA         53.2200   90.2890   37.7400 C.3       6 GLP5        0.0000 
     38 CA         50.2240   87.9210   34.5075 C.3       3 GLC5        0.0000 
     39 CA         50.8850   88.8510   35.9470 C.3       9 GLL5        0.0000 
     40 CA         49.5630   86.9910   33.0680 C.3       6 GLP5        0.0000 
     41 CA         52.0525   89.5700   36.8435 C.3       3 GLC5        0.0000 
     42 CA         49.1055   88.7415   35.7840 C.3       3 GLC5        0.0000 
     43 CA         47.3260   88.6320   35.6210 C.3       6 GLP5        0.0000 
     44 CA         51.6633   95.1952   36.7938 C.3       3 GLC5        0.0000 
     45 CA         50.8350   94.1880   35.4350 C.3       9 GLL5        0.0000 
     46 CA         52.6670   95.4720   38.2870 C.3       6 GLP5        0.0000 
     47 CA         52.2638   94.9673   34.4393 C.3       3 GLC5        0.0000 
     48 CA         48.6020   91.6530   34.6583 C.3       3 GLC5        0.0000 
     49 CA         47.5220   90.0340   35.1960 C.3       6 GLP5        0.0000 
     50 CA         52.4925   90.2925   36.1378 C.3       3 GLC5        0.0000 
     51 CA         51.6570   91.0400   34.2910 C.3       9 GLL5        0.0000 
     52 CA         49.6435   90.1650   34.8657 C.3       3 GLC5        0.0000 
     53 CA         51.8730   89.5520   34.7800 C.3       9 GLL5        0.0000 
     54 CA         53.5545   87.4285   32.8545 C.3       3 GLC5        0.0000 
     55 CA         53.6410   85.7450   32.0840 C.3       6 GLP5        0.0000 
     56 CA         51.0020   88.0765   33.7710 C.3       3 GLC5        0.0000 
@<TRIPOS>BOND
@<TRIPOS>SUBSTRUCTURE
     1 ALC1       17 GROUP        1 X    ALC  0     ROOT ALC X 1
     2 SEC2       14 GROUP        1 X    SEC  0     **** SEC X 2
     3 GLC5        1 GROUP        1 X    GLC  0     **** GLC X 6
     4 ALP1       19 GROUP        1 Y    ALP  0     ROOT ALP Y 8
     5 SEP2       16 GROUP        1 Y    SEP  0     **** SEP Y 9
     6 GLP5        3 GROUP        1 Y    GLP  0     **** GLP Y 13
     7 ALL1       18 GROUP        1 Z    ALL  0     ROOT ALL Z 15
     8 SEL2       15 GROUP        1 Z    SEL  0     **** SEL Z 16
     9 GLL5        2 GROUP        1 Z    GLL  0     **** GLL Z 20
@<TRIPOS>SET

