#    Name: 1zw1_TN5_1_ligand
#    Modification time : Mon Mar 24 17:52:51 2014

@<TRIPOS>MOLECULE
1zw1_TN5_1_ligand
   26    27     1     0     0
SMALL
NO_CHARGES


@<TRIPOS>ATOM
      1 CL13       49.1400   97.5560   33.8720 Cl        1 TN5500      0.0000 
      2 C12        49.4910   95.9950   34.1220 C.ar      1 TN5500      0.0000 
      3 C11        50.4840   95.6490   35.1660 C.ar      1 TN5500      0.0000 
      4 C10        50.8350   94.1880   35.4350 C.ar      1 TN5500      0.0000 
      5 C9         50.1770   93.0880   34.6440 C.ar      1 TN5500      0.0000 
      6 C8         49.1870   93.4560   33.5970 C.ar      1 TN5500      0.0000 
      7 O2         48.5890   92.4820   32.8770 O.3       1 TN5500      0.0000 
      8 C7         48.8380   94.9220   33.3320 C.ar      1 TN5500      0.0000 
      9 O1         50.5340   91.7450   34.9340 O.3       1 TN5500      0.0000 
     10 C1         51.6570   91.0400   34.2910 C.ar      1 TN5500      0.0000 
     11 C6         52.6390   91.6040   33.2010 C.ar      1 TN5500      0.0000 
     12 C5         53.6750   90.8170   32.6760 C.ar      1 TN5500      0.0000 
     13 C4         53.9270   89.4520   33.0820 C.ar      1 TN5500      0.0000 
     14 N1         55.1780   88.5210   32.4410 N.pl3     1 TN5500      0.0000 
     15 C3         53.0090   88.7720   34.1680 C.ar      1 TN5500      0.0000 
     16 C2         51.8730   89.5520   34.7800 C.ar      1 TN5500      0.0000 
     17 CL14       50.8850   88.8510   35.9470 Cl        1 TN5500      0.0000 
     18 H          50.9318   96.3534   35.7011 H         1 TN5500      0.0000 
     19 H          51.4998   93.9712   36.1350 H         1 TN5500      0.0000 
     20 H          48.1740   95.1339   32.6292 H         1 TN5500      0.0000 
     21 H          52.4620   92.5565   32.9208 H         1 TN5500      0.0000 
     22 H          54.3076   91.2224   31.9525 H         1 TN5500      0.0000 
     23 H          55.2933   87.6086   32.8338 H         1 TN5500      0.0000 
     24 H          55.7157   88.9474   31.7136 H         1 TN5500      0.0000 
     25 H          53.1992   87.8495   34.4230 H         1 TN5500      0.0000 
     26 H          48.7304   92.7424   31.9219 H         1 TN5500      0.0000 
@<TRIPOS>BOND
     1    2    1 1    
     2    3    2 ar   
     3    8    2 ar   
     4    4    3 ar   
     5   18    3 1    
     6    5    4 ar   
     7   19    4 1    
     8    6    5 ar   
     9    9    5 1    
    10    7    6 1    
    11    8    6 ar   
    12   26    7 1    
    13   20    8 1    
    14   10    9 1    
    15   11   10 ar   
    16   16   10 ar   
    17   12   11 ar   
    18   21   11 1    
    19   13   12 ar   
    20   22   12 1    
    21   14   13 1    
    22   15   13 ar   
    23   23   14 1    
    24   24   14 1    
    25   16   15 ar   
    26   25   15 1    
    27   17   16 1    
@<TRIPOS>SUBSTRUCTURE
     1 TN5500      1 GROUP   
@<TRIPOS>SET

