#    Name: 2GG2_1_CAVITY_N1_6.mol2
#    Modification time : Mon Mar 10 14:41:30 2014

@<TRIPOS>MOLECULE
2GG2_1_CAVITY_N1_6.mol2
  109     0     6     0     0
SMALL
NO_CHARGES


@<TRIPOS>ATOM
      1 CZ         -9.4691   -2.3190    7.1780 C.ar      4 PHE5        0.0000 
      2 CZ         -9.7776   -3.9985    8.4365 C.ar      4 PHE5        0.0000 
      3 N          -9.9588   -7.1636    9.5315 N.2       2 ALA2        0.0000 
      4 CA         -9.8315   -8.6492    9.3679 C.3       5 GLY6        0.0000 
      5 CZ         -8.1668   -0.7601    7.7897 C.ar      4 PHE5        0.0000 
      6 CA         -7.6035   -2.0518    6.2041 C.3       5 GLY6        0.0000 
      7 CZ         -8.0395   -2.2457    7.6262 C.ar      4 PHE5        0.0000 
      8 CA         -7.4762   -3.5374    6.0405 C.3       5 GLY6        0.0000 
      9 DU         -7.9121   -3.7314    7.4626 H         6 CUB7        0.0000 
     10 CZ         -8.3480   -3.9253    8.8847 C.ar      4 PHE5        0.0000 
     11 DU         -7.7848   -5.2170    7.2991 H         6 CUB7        0.0000 
     12 O          -8.2207   -5.4109    8.7212 O.2       2 ALA2        0.0000 
     13 CZ         -8.6566   -5.6048   10.1433 C.ar      4 PHE5        0.0000 
     14 DU         -8.0933   -6.8965    8.5576 H         6 CUB7        0.0000 
     15 N          -8.5292   -7.0904    9.9797 N.2       2 ALA2        0.0000 
     16 CZ         -7.3005    0.6047    9.8236 C.ar      4 PHE5        0.0000 
     17 CZ         -7.7364    0.4108   11.2457 C.ar      4 PHE5        0.0000 
     18 CZ         -6.7372   -0.6869    8.2379 C.ar      4 PHE5        0.0000 
     19 CZ         -7.1731   -0.8809    9.6600 C.ar      4 PHE5        0.0000 
     20 CZ         -7.6090   -1.0748   11.0821 C.ar      4 PHE5        0.0000 
     21 OG         -5.7380   -1.7847    5.2302 O.2       1 SER1        0.0000 
     22 CZ         -6.1739   -1.9786    6.6523 C.ar      4 PHE5        0.0000 
     23 CZ         -6.6099   -2.1725    8.0744 C.ar      4 PHE5        0.0000 
     24 O          -7.0458   -2.3665    9.4965 O.2       2 ALA2        0.0000 
     25 CZ         -7.4817   -2.5604   10.9186 C.ar      4 PHE5        0.0000 
     26 DU         -5.6107   -3.2703    5.0666 H         6 CUB7        0.0000 
     27 DU         -6.0466   -3.4642    6.4887 H         6 CUB7        0.0000 
     28 O          -6.4825   -3.6582    7.9108 O.2       2 ALA2        0.0000 
     29 O          -6.9184   -3.8521    9.3329 O.2       2 ALA2        0.0000 
     30 DU         -5.9192   -4.9498    6.3251 H         6 CUB7        0.0000 
     31 O          -6.3552   -5.1438    7.7473 O.2       2 ALA2        0.0000 
     32 O          -6.7911   -5.3377    9.1694 O.2       2 ALA2        0.0000 
     33 CZ         -6.2278   -6.6294    7.5837 C.ar      4 PHE5        0.0000 
     34 O          -6.6637   -6.8233    9.0058 O.2       2 ALA2        0.0000 
     35 CA         -5.9982    2.1636   10.4353 C.3       5 GLY6        0.0000 
     36 CZ         -5.4350    0.8719    8.8497 C.ar      4 PHE5        0.0000 
     37 CZ         -5.8709    0.6779   10.2718 C.ar      4 PHE5        0.0000 
     38 CA         -6.3068    0.4840   11.6939 C.3       5 GLY6        0.0000 
     39 CZ         -4.8717   -0.4198    7.2640 C.ar      4 PHE5        0.0000 
     40 CZ         -5.3076   -0.6137    8.6861 C.ar      4 PHE5        0.0000 
     41 CA         -5.7435   -0.8077   10.1082 C.3       5 GLY6        0.0000 
     42 CA         -6.1794   -1.0016   11.5303 C.3       5 GLY6        0.0000 
     43 OG         -3.8725   -1.5175    4.2563 O.2       1 SER1        0.0000 
     44 OG         -4.3084   -1.7115    5.6784 O.2       1 SER1        0.0000 
     45 CZ         -4.7443   -1.9054    7.1005 C.ar      4 PHE5        0.0000 
     46 N          -5.1803   -2.0993    8.5226 N.2       2 ALA2        0.0000 
     47 CA         -3.3093   -2.8092    2.6706 C.3       5 GLY6        0.0000 
     48 DU         -3.7452   -3.0031    4.0927 H         6 CUB7        0.0000 
     49 DU         -4.1811   -3.1971    5.5148 H         6 CUB7        0.0000 
     50 N          -4.6170   -3.3910    6.9369 N.2       2 ALA2        0.0000 
     51 DU         -4.0537   -4.6827    5.3512 H         6 CUB7        0.0000 
     52 CZ         -4.4896   -4.8766    6.7733 C.ar      4 PHE5        0.0000 
     53 CZ         -3.5694    1.1390    7.8758 C.ar      4 PHE5        0.0000 
     54 CZ         -4.0053    0.9451    9.2979 C.ar      4 PHE5        0.0000 
     55 CA         -4.4413    0.7511   10.7200 C.3       5 GLY6        0.0000 
     56 N          -3.4421   -0.3466    7.7122 N.2       2 ALA2        0.0000 
     57 N          -3.8780   -0.5405    9.1343 N.2       2 ALA2        0.0000 
     58 CA         -4.3139   -0.7345   10.5564 C.3       5 GLY6        0.0000 
     59 N          -3.3147   -1.8322    7.5487 N.2       2 ALA2        0.0000 
     60 CA         -1.4437   -2.5421    1.6967 C.3       5 GLY6        0.0000 
     61 CA         -1.8797   -2.7360    3.1188 C.3       5 GLY6        0.0000 
     62 CA         -2.3156   -2.9299    4.5409 C.3       5 GLY6        0.0000 
     63 N          -2.7515   -3.1239    5.9630 N.2       2 ALA2        0.0000 
     64 N          -3.1874   -3.3178    7.3851 N.2       2 ALA2        0.0000 
     65 DU         -1.7523   -4.2216    2.9552 H         6 CUB7        0.0000 
     66 DU         -2.1882   -4.4155    4.3773 H         6 CUB7        0.0000 
     67 CZ         -2.6241   -4.6095    5.7994 C.ar      4 PHE5        0.0000 
     68 CZ         -3.0600   -4.8034    7.2215 C.ar      4 PHE5        0.0000 
     69 CZ         -2.4968   -6.0951    5.6359 C.ar      4 PHE5        0.0000 
     70 CZ         -2.5757    1.0183    9.7461 C.ar      4 PHE5        0.0000 
     71 CA         -3.0117    0.8244   11.1682 C.3       5 GLY6        0.0000 
     72 N          -2.0125   -0.2734    8.1604 N.2       2 ALA2        0.0000 
     73 N          -2.4484   -0.4673    9.5825 N.2       2 ALA2        0.0000 
     74 CA         -2.8843   -0.6613   11.0046 C.3       5 GLY6        0.0000 
     75 N          -1.8851   -1.7590    7.9969 N.2       2 ALA2        0.0000 
     76 CA         -0.4500   -2.6628    3.5670 C.3       5 GLY6        0.0000 
     77 CA         -0.8860   -2.8567    4.9891 C.3       5 GLY6        0.0000 
     78 N          -1.3219   -3.0507    6.4112 N.2       2 ALA2        0.0000 
     79 N          -1.7578   -3.2446    7.8333 N.2       2 ALA2        0.0000 
     80 CA         -0.3227   -4.1484    3.4034 C.3       5 GLY6        0.0000 
     81 N          -0.7586   -4.3423    4.8255 N.2       2 ALA2        0.0000 
     82 CZ         -1.1945   -4.5363    6.2476 C.ar      4 PHE5        0.0000 
     83 CZ         -1.6304   -4.7302    7.6697 C.ar      4 PHE5        0.0000 
     84 O          -0.6313   -5.8280    4.6620 O.2       2 ALA2        0.0000 
     85 CZ         -1.0672   -6.0219    6.0841 C.ar      4 PHE5        0.0000 
     86 CZ         -1.1461    1.0915   10.1943 C.ar      4 PHE5        0.0000 
     87 NZ         -1.5821    0.8976   11.6164 N.2       3 LYS4        0.0000 
     88 N          -0.5829   -0.2002    8.6086 N.2       2 ALA2        0.0000 
     89 NZ         -1.0188   -0.3941   10.0307 N.2       3 LYS4        0.0000 
     90 NZ         -1.4547   -0.5881   11.4528 N.2       3 LYS4        0.0000 
     91 CA         -1.8906   -0.7820   12.8749 C.3       5 GLY6        0.0000 
     92 N          -0.0196   -1.4919    7.0229 N.2       2 ALA2        0.0000 
     93 N          -0.4555   -1.6858    8.4450 N.2       2 ALA2        0.0000 
     94 N          -0.8914   -1.8797    9.8671 N.2       2 ALA2        0.0000 
     95 N          -1.3274   -2.0737   11.2892 N.2       2 ALA2        0.0000 
     96 N           0.5436   -2.7835    5.4373 N.2       2 ALA2        0.0000 
     97 N           0.1077   -2.9775    6.8594 N.2       2 ALA2        0.0000 
     98 N          -0.3282   -3.1714    8.2815 N.2       2 ALA2        0.0000 
     99 N          -0.7641   -3.3653    9.7036 N.2       2 ALA2        0.0000 
    100 N           0.2351   -4.4631    6.6958 N.2       2 ALA2        0.0000 
    101 CA         -0.2008   -4.6570    8.1179 C.3       5 GLY6        0.0000 
    102 CA         -0.6367   -4.8509    9.5400 C.3       5 GLY6        0.0000 
    103 NZ          0.9741   -1.6126    8.8932 N.2       3 LYS4        0.0000 
    104 NZ          0.5382   -1.8065   10.3153 N.2       3 LYS4        0.0000 
    105 NZ          0.1022   -2.0005   11.7374 N.2       3 LYS4        0.0000 
    106 N           1.5373   -2.9043    7.3076 N.2       2 ALA2        0.0000 
    107 NZ          1.1014   -3.0982    8.7297 N.2       3 LYS4        0.0000 
    108 CA          0.6655   -3.2921   10.1518 C.3       5 GLY6        0.0000 
    109 CA          1.2288   -4.5838    8.5661 C.3       5 GLY6        0.0000 
@<TRIPOS>BOND
@<TRIPOS>SUBSTRUCTURE
     1 SER1       21 GROUP   
     2 ALA2        3 GROUP   
     3 LYS4       87 GROUP   
     4 PHE5        1 GROUP   
     5 GLY6        4 GROUP   
     6 CUB7        9 GROUP   
@<TRIPOS>SET

