#    Name: 2gg2_U12_1_INTS_M
#    Modification time : Tue Mar 25 14:05:57 2014

@<TRIPOS>MOLECULE
2gg2_U12_1_INTS_M
   45     0    12     0     0
SMALL
NO_CHARGES


@<TRIPOS>ATOM
      1 CA         -6.2660   -3.6770   10.4880 C.3       4 GLC5        0.0000 
      2 CA         -7.6470   -3.4240    8.7940 C.3      12 GLL5        0.0000 
      3 CA         -4.8850   -3.9300   12.1820 C.3       8 GLP5        0.0000 
      4 CA         -4.6950    2.3835   10.9885 C.3       4 GLC5        0.0000 
      5 CA         -5.5190    0.6120   10.5460 C.3      12 GLL5        0.0000 
      6 CA         -3.8710    4.1550   11.4310 C.3       8 GLP5        0.0000 
      7 OD1         0.0400    1.9610   11.9625 O.co2     2 ASC3        0.0000 
      8 OD1        -1.3500    1.4440   11.2480 O.co2    10 ASL3        0.0000 
      9 OD1         1.4300    2.4780   12.6770 O.co2     6 ASP3        0.0000 
     10 OD1        -0.0085    0.8990   11.9205 O.co2     2 ASC3        0.0000 
     11 OD1         1.3330    0.3540   12.5930 O.co2     6 ASP3        0.0000 
     12 O          -0.0085    0.8990   11.9205 O.2       1 ALC1        0.0000 
     13 O          -1.3500    1.4440   11.2480 O.2       9 ALL1        0.0000 
     14 O           1.3330    0.3540   12.5930 O.2       5 ALP1        0.0000 
     15 Zn          1.2605    1.5450   10.3820 Zn        3 ZIC7        0.0000 
     16 Zn          0.6070    1.1750    9.9220 Zn       11 ZIL7        0.0000 
     17 Zn          1.9140    1.9150   10.8420 Zn        7 ZIP7        0.0000 
     18 Zn          1.8470    0.6805    8.2820 Zn        3 ZIC7        0.0000 
     19 Zn          1.0380    0.4640    8.7890 Zn       11 ZIL7        0.0000 
     20 Zn          2.6560    0.8970    7.7750 Zn        7 ZIP7        0.0000 
     21 Zn          1.4760    1.1895    9.8155 Zn        3 ZIC7        0.0000 
     22 CA          1.1965   -0.1760    6.6125 C.3       4 GLC5        0.0000 
     23 CA         -0.0690   -0.2110    8.3390 C.3      12 GLL5        0.0000 
     24 CA          2.4620   -0.1410    4.8860 C.3       8 GLP5        0.0000 
     25 CA         -0.5480   -0.0585    6.1695 C.3       4 GLC5        0.0000 
     26 CA         -1.0270    0.0940    4.0000 C.3       8 GLP5        0.0000 
     27 O           1.0810   -0.0565    6.5020 O.2       1 ALC1        0.0000 
     28 O          -0.1390   -1.0300    7.2500 O.2       9 ALL1        0.0000 
     29 O           2.3010    0.9170    5.7540 O.2       5 ALP1        0.0000 
     30 CA         -8.5090   -1.2843    6.1510 C.3       4 GLC5        0.0000 
     31 CA         -8.3010   -1.8940    7.4320 C.3      12 GLL5        0.0000 
     32 CA         -9.2420   -0.4160    4.5640 C.3       8 GLP5        0.0000 
     33 CA         -7.0260   -0.6215    6.7483 C.3       4 GLC5        0.0000 
     34 CA         -6.4870    1.0210    5.9860 C.3       8 GLP5        0.0000 
     35 CA         -9.2095   -2.2559    8.9883 C.3       4 GLC5        0.0000 
     36 CA        -10.5440   -2.1060   10.0510 C.3       8 GLP5        0.0000 
     37 CA         -8.6570    0.9065   10.8530 C.3       4 GLC5        0.0000 
     38 CA         -7.4200   -0.6510    9.7950 C.3      12 GLL5        0.0000 
     39 CA        -10.1660    1.9720   11.5020 C.3       8 GLP5        0.0000 
     40 CA         -5.2477    0.4938   12.3483 C.3       4 GLC5        0.0000 
     41 CA         -6.8760    0.3330   10.6130 C.3      12 GLL5        0.0000 
     42 CA         -4.2980    0.5150   14.1170 C.3       8 GLP5        0.0000 
     43 CA         -4.4551   -1.8531   10.6665 C.3       4 GLC5        0.0000 
     44 CA         -5.2480   -1.0780    8.8420 C.3      12 GLL5        0.0000 
     45 CA         -3.7300   -3.2970   11.8590 C.3       8 GLP5        0.0000 
@<TRIPOS>BOND
@<TRIPOS>SUBSTRUCTURE
     1 ALC1       12 GROUP        1 X    ALC  0     ROOT ALC X 1
     2 ASC3        7 GROUP        1 X    ASC  0     **** ASC X 3
     3 ZIC7       15 GROUP        1 X    ZIC  0     **** ZIC X 5
     4 GLC5        1 GROUP        1 X    GLC  0     **** GLC X 6
     5 ALP1       14 GROUP        1 Y    ALP  0     ROOT ALP Y 8
     6 ASP3        9 GROUP        1 Y    ASP  0     **** ASP Y 10
     7 ZIP7       17 GROUP        1 Y    ZIP  0     **** ZIP Y 12
     8 GLP5        3 GROUP        1 Y    GLP  0     **** GLP Y 13
     9 ALL1       13 GROUP        1 Z    ALL  0     ROOT ALL Z 15
    10 ASL3        8 GROUP        1 Z    ASL  0     **** ASL Z 17
    11 ZIL7       16 GROUP        1 Z    ZIL  0     **** ZIL Z 19
    12 GLL5        2 GROUP        1 Z    GLL  0     **** GLL Z 20
@<TRIPOS>SET

