#    Name: 2gg2_U12_1_ligand
#    Modification time : Tue Mar 25 14:05:58 2014

@<TRIPOS>MOLECULE
2gg2_U12_1_ligand
   28    29     1     0     0
SMALL
NO_CHARGES


@<TRIPOS>ATOM
      1 F3         -6.4070   -2.8570    7.1340 F         1 U12801      0.0000 
      2 C10        -7.2510   -2.4110    8.0440 C.3       1 U12801      0.0000 
      3 F1         -7.6470   -3.4240    8.7940 F         1 U12801      0.0000 
      4 F2         -8.3010   -1.8940    7.4320 F         1 U12801      0.0000 
      5 C8         -6.6140   -1.3590    8.9080 C.ar      1 U12801      0.0000 
      6 C5         -7.4200   -0.6510    9.7950 C.ar      1 U12801      0.0000 
      7 C9         -6.8760    0.3330   10.6130 C.ar      1 U12801      0.0000 
      8 C6         -5.5190    0.6120   10.5460 C.ar      1 U12801      0.0000 
      9 C7         -5.2480   -1.0780    8.8420 C.ar      1 U12801      0.0000 
     10 C4         -4.7060   -0.0930    9.6660 C.ar      1 U12801      0.0000 
     11 N6         -3.3880    0.2340    9.6560 N.2       1 U12801      0.0000 
     12 N3         -2.4860   -0.4600    9.1550 N.2       1 U12801      0.0000 
     13 C1         -1.2090    0.0330    9.2390 C.2       1 U12801      0.0000 
     14 C3         -0.6970    0.9030   10.1800 C.2       1 U12801      0.0000 
     15 N5         -1.3500    1.4440   11.2480 N.4       1 U12801      0.0000 
     16 N4          0.6070    1.1750    9.9220 N.2       1 U12801      0.0000 
     17 N1          1.0380    0.4640    8.7890 N.2       1 U12801      0.0000 
     18 C2         -0.0690   -0.2110    8.3390 C.2       1 U12801      0.0000 
     19 N2         -0.1390   -1.0300    7.2500 N.pl3     1 U12801      0.0000 
     20 H          -8.4296   -0.8586    9.8454 H         1 U12801      0.0000 
     21 H          -7.4785    0.8509   11.2644 H         1 U12801      0.0000 
     22 H          -5.1123    1.3414   11.1477 H         1 U12801      0.0000 
     23 H          -4.6481   -1.5935    8.1911 H         1 U12801      0.0000 
     24 H           0.6895   -1.0941    6.6937 H         1 U12801      0.0000 
     25 H          -1.0126   -1.4941    7.1039 H         1 U12801      0.0000 
     26 H          -1.3704    2.4428   11.2038 H         1 U12801      0.0000 
     27 H          -2.2991    1.1334   11.2992 H         1 U12801      0.0000 
     28 H          -0.9140    1.1978   12.1136 H         1 U12801      0.0000 
@<TRIPOS>BOND
     1    2    1 1    
     2    3    2 1    
     3    4    2 1    
     4    5    2 1    
     5    6    5 ar   
     6    9    5 ar   
     7    7    6 ar   
     8   20    6 1    
     9    8    7 ar   
    10   21    7 1    
    11   10    8 ar   
    12   22    8 1    
    13   10    9 ar   
    14   23    9 1    
    15   11   10 1    
    16   12   11 2    
    17   13   12 1    
    18   14   13 2    
    19   18   13 1    
    20   15   14 1    
    21   16   14 1    
    22   26   15 1    
    23   27   15 1    
    24   28   15 1    
    25   17   16 2    
    26   18   17 1    
    27   19   18 2    
    28   24   19 1    
    29   25   19 1    
@<TRIPOS>SUBSTRUCTURE
     1 U12801      1 GROUP   
@<TRIPOS>SET

