#    Name: 2R5C_1_CAVITY_N1_6.mol2
#    Modification time : Mon Mar 10 12:27:18 2014

@<TRIPOS>MOLECULE
2R5C_1_CAVITY_N1_6.mol2
   49     0     7     0     0
SMALL
NO_CHARGES


@<TRIPOS>ATOM
      1 O          20.6105  -15.8337   25.0570 O.2       2 ALA2        0.0000 
      2 O          18.4893  -15.8190   25.0638 O.2       2 ALA2        0.0000 
      3 CZ         19.5460  -15.9052   24.0027 C.ar      5 PHE5        0.0000 
      4 OG         20.6027  -15.9914   22.9416 O.2       1 SER1        0.0000 
      5 CZ         20.6205  -14.3379   24.9455 C.ar      5 PHE5        0.0000 
      6 CA         21.6772  -14.4241   23.8844 C.3       6 GLY6        0.0000 
      7 CA         18.4993  -14.3232   24.9522 C.3       6 GLY6        0.0000 
      8 DU         19.5560  -14.4094   23.8911 H         7 CUB7        0.0000 
      9 OG         20.6127  -14.4956   22.8300 O.2       1 SER1        0.0000 
     10 OG         21.6694  -14.5818   21.7690 O.2       1 SER1        0.0000 
     11 CA         23.7828  -14.7542   19.6468 C.3       6 GLY6        0.0000 
     12 CZ         17.4347  -14.3947   23.8979 C.ar      5 PHE5        0.0000 
     13 CZ         18.4914  -14.4809   22.8368 C.ar      5 PHE5        0.0000 
     14 CZ         21.6616  -14.7395   19.6535 C.ar      5 PHE5        0.0000 
     15 OD1        23.8007  -13.1006   21.6507 O.3       3 ASP3        0.0000 
     16 CA         24.8574  -13.1868   20.5896 C.3       6 GLY6        0.0000 
     17 O          18.5093  -12.8274   24.8407 O.2       2 ALA2        0.0000 
     18 OG         19.5660  -12.9136   23.7796 O.2       1 SER1        0.0000 
     19 OG         20.6227  -12.9998   22.7185 O.2       1 SER1        0.0000 
     20 CZ         21.6794  -13.0860   21.6574 C.ar      5 PHE5        0.0000 
     21 DU         22.7361  -13.1721   20.5963 H         7 CUB7        0.0000 
     22 CA         23.7928  -13.2583   19.5352 C.3       6 GLY6        0.0000 
     23 CZ         17.4447  -12.8989   23.7863 C.ar      5 PHE5        0.0000 
     24 CZ         18.5014  -12.9851   22.7253 C.ar      5 PHE5        0.0000 
     25 CZ         21.6716  -13.2436   19.5420 C.ar      5 PHE5        0.0000 
     26 NZ         22.7283  -13.3298   18.4809 N.2       4 LYS4        0.0000 
     27 CZ         17.4369  -13.0566   21.6709 C.ar      5 PHE5        0.0000 
     28 OG         22.7540  -11.5186   22.6002 O.2       1 SER1        0.0000 
     29 OD1        23.8107  -11.6048   21.5391 O.3       3 ASP3        0.0000 
     30 CA         24.8674  -11.6910   20.4780 C.3       6 GLY6        0.0000 
     31 O          18.5193  -11.3316   24.7291 O.2       2 ALA2        0.0000 
     32 OG         19.5760  -11.4178   23.6681 O.2       1 SER1        0.0000 
     33 OG         20.6327  -11.5039   22.6070 O.2       1 SER1        0.0000 
     34 OG         21.6894  -11.5901   21.5459 O.2       1 SER1        0.0000 
     35 CA         22.7461  -11.6763   20.4848 C.3       6 GLY6        0.0000 
     36 CA         23.8028  -11.7625   19.4237 C.3       6 GLY6        0.0000 
     37 O          17.4547  -11.4031   23.6748 O.2       2 ALA2        0.0000 
     38 CZ         18.5114  -11.4893   22.6137 C.ar      5 PHE5        0.0000 
     39 CZ         19.5682  -11.5755   21.5526 C.ar      5 PHE5        0.0000 
     40 CZ         21.6816  -11.7478   19.4304 C.ar      5 PHE5        0.0000 
     41 CA         22.7383  -11.8340   18.3693 C.3       6 GLY6        0.0000 
     42 OG         23.8285   -9.9513   23.5430 O.2       1 SER1        0.0000 
     43 OG         24.8852  -10.0375   22.4819 O.2       1 SER1        0.0000 
     44 OG         22.7640  -10.0228   22.4887 O.2       1 SER1        0.0000 
     45 CA         23.8207  -10.1090   21.4276 C.3       6 GLY6        0.0000 
     46 CZ         20.6427  -10.0081   22.4954 C.ar      5 PHE5        0.0000 
     47 CZ         21.6994  -10.0943   21.4343 C.ar      5 PHE5        0.0000 
     48 O          22.7561  -10.1805   20.3732 O.2       2 ALA2        0.0000 
     49 CZ         21.6916  -10.2520   19.3189 C.ar      5 PHE5        0.0000 
@<TRIPOS>BOND
@<TRIPOS>SUBSTRUCTURE
     1 SER1        4 GROUP   
     2 ALA2        1 GROUP   
     3 ASP3       15 GROUP   
     4 LYS4       26 GROUP   
     5 PHE5        3 GROUP   
     6 GLY6        6 GROUP   
     7 CUB7        8 GROUP   
@<TRIPOS>SET

