#    Name: 2r5c_C6P_1_INTS_M
#    Modification time : Mon Mar 24 23:10:47 2014

@<TRIPOS>MOLECULE
2r5c_C6P_1_INTS_M
   80     0    12     0     0
SMALL
NO_CHARGES


@<TRIPOS>ATOM
      1 N          18.9015  -16.5395   26.1855 N.am      2 SEC2        0.0000 
      2 N          18.9450  -16.3930   24.7550 N.am     10 SEL2        0.0000 
      3 N          18.8580  -16.6860   27.6160 N.am      6 SEP2        0.0000 
      4 NZ         22.0145   -7.3755   22.2555 N.4       3 LYC4        0.0000 
      5 NZ         22.8620   -8.2410   21.6400 N.4      11 LYL4        0.0000 
      6 NZ         21.1670   -6.5100   22.8710 N.4       7 LYP4        0.0000 
      7 N          23.0815   -7.8375   20.2585 N.am      2 SEC2        0.0000 
      8 N          22.8620   -8.2410   21.6400 N.am     10 SEL2        0.0000 
      9 N          23.3010   -7.4340   18.8770 N.am      6 SEP2        0.0000 
     10 N          22.0145   -7.3755   22.2555 N.am      2 SEC2        0.0000 
     11 N          21.1670   -6.5100   22.8710 N.am      6 SEP2        0.0000 
     12 N          25.3030   -8.3285   21.3475 N.am      2 SEC2        0.0000 
     13 N          25.0010   -8.9480   22.5330 N.am     10 SEL2        0.0000 
     14 N          25.6050   -7.7090   20.1620 N.am      6 SEP2        0.0000 
     15 N          26.2110   -9.5170   22.8020 N.am      2 SEC2        0.0000 
     16 N          27.4210  -10.0860   23.0710 N.am      6 SEP2        0.0000 
     17 NZ         23.6985  -11.1435   24.0130 N.4       3 LYC4        0.0000 
     18 NZ         22.9900   -9.6240   23.6550 N.4      11 LYL4        0.0000 
     19 NZ         24.4070  -12.6630   24.3710 N.4       7 LYP4        0.0000 
     20 NZ         22.0785   -8.0670   23.2630 N.4       3 LYC4        0.0000 
     21 N          22.4835  -10.4905   24.3505 N.am      2 SEC2        0.0000 
     22 N          22.9900   -9.6240   23.6550 N.am     10 SEL2        0.0000 
     23 N          21.9770  -11.3570   25.0460 N.am      6 SEP2        0.0000 
     24 CA         21.0060   -9.8155   20.5480 C.3       4 GLC5        0.0000 
     25 CA         22.3900  -10.9490   20.8230 C.3      12 GLL5        0.0000 
     26 CA         19.6220   -8.6820   20.2730 C.3       8 GLP5        0.0000 
     27 CA         20.6195  -11.9280   20.1595 C.3       4 GLC5        0.0000 
     28 CA         18.8490  -12.9070   19.4960 C.3       8 GLP5        0.0000 
     29 CA         22.8745  -11.5495   17.1115 C.3       4 GLC5        0.0000 
     30 CA         23.1050  -12.4390   18.8250 C.3      12 GLL5        0.0000 
     31 CA         22.6440  -10.6600   15.3980 C.3       8 GLP5        0.0000 
     32 CA         25.1050  -12.6215   19.1345 C.3       4 GLC5        0.0000 
     33 CA         27.1050  -12.8040   19.4440 C.3       8 GLP5        0.0000 
     34 N          23.6390  -13.8610   16.9880 N.am      2 SEC2        0.0000 
     35 N          23.1930  -13.7490   18.2510 N.am     10 SEL2        0.0000 
     36 N          24.0850  -13.9730   15.7250 N.am      6 SEP2        0.0000 
     37 CA         22.1165  -17.9130   18.6505 C.3       4 GLC5        0.0000 
     38 CA         22.9750  -16.2830   18.2290 C.3      12 GLL5        0.0000 
     39 CA         21.2580  -19.5430   19.0720 C.3       8 GLP5        0.0000 
     40 CA         23.7675  -17.2735   19.7340 C.3       4 GLC5        0.0000 
     41 CA         24.5600  -18.2640   21.2390 C.3       8 GLP5        0.0000 
     42 N          22.5745  -16.5840   21.9200 N.am      2 SEC2        0.0000 
     43 N          21.9930  -16.1000   20.9740 N.am     10 SEL2        0.0000 
     44 N          23.1560  -17.0680   22.8660 N.am      6 SEP2        0.0000 
     45 O          21.0125  -17.0320   20.7270 O.2       1 ALC1        0.0000 
     46 O          21.9930  -16.1000   20.9740 O.2       9 ALL1        0.0000 
     47 O          20.0320  -17.9640   20.4800 O.2       5 ALP1        0.0000 
     48 CA         21.4890  -12.2295   24.3125 C.3       4 GLC5        0.0000 
     49 CA         21.6690  -13.3940   22.4680 C.3      12 GLL5        0.0000 
     50 CA         21.3090  -11.0650   26.1570 C.3       8 GLP5        0.0000 
     51 CA         20.2590  -13.1505   20.9820 C.3       4 GLC5        0.0000 
     52 CA         20.1745  -13.2185   25.2920 C.3       4 GLC5        0.0000 
     53 CA         19.5630  -14.3740   23.6430 C.3      12 GLL5        0.0000 
     54 CA         20.7860  -12.0630   26.9410 C.3       8 GLP5        0.0000 
     55 N          18.0580  -17.7590   22.6930 N.am      2 SEC2        0.0000 
     56 N          18.6660  -16.2900   22.6850 N.am     10 SEL2        0.0000 
     57 N          17.4500  -19.2280   22.7010 N.am      6 SEP2        0.0000 
     58 CA         19.7915  -11.4765   25.0415 C.3       4 GLC5        0.0000 
     59 CA         18.2740  -11.8880   23.9260 C.3      12 GLL5        0.0000 
     60 CA         17.1515  -10.1570   24.4705 C.3       4 GLC5        0.0000 
     61 CA         16.0290   -8.4260   25.0150 C.3       8 GLP5        0.0000 
     62 CA         17.6565  -12.8865   25.7275 C.3       4 GLC5        0.0000 
     63 CA         17.0390  -13.8850   27.5290 C.3       8 GLP5        0.0000 
     64 CA         18.3700  -10.6635   22.0990 C.3       4 GLC5        0.0000 
     65 CA         18.4660   -9.4390   20.2720 C.3       8 GLP5        0.0000 
     66 CA         24.2964  -10.9149   19.2861 C.3       4 GLC5        0.0000 
     67 CA         25.7940   -9.7910   18.8930 C.3       8 GLP5        0.0000 
     68 CA         21.2303  -15.7105   17.4590 C.3       4 GLC5        0.0000 
     69 CA         22.8400  -14.9510   18.9350 C.3      12 GLL5        0.0000 
     70 CA         19.5530  -15.8040   16.3360 C.3       8 GLP5        0.0000 
     71 CA         24.4781  -15.2320   19.7300 C.3       4 GLC5        0.0000 
     72 CA         26.3380  -15.2090   19.9960 C.3       8 GLP5        0.0000 
     73 CA         23.1062  -13.7928   23.1870 C.3       4 GLC5        0.0000 
     74 CA         22.1900  -13.5490   21.0380 C.3      12 GLL5        0.0000 
     75 CA         24.2830  -14.1140   24.6210 C.3       8 GLP5        0.0000 
     76 CA         18.8488  -14.0685   21.5235 C.3       4 GLC5        0.0000 
     77 CA         18.6430  -14.2350   19.7200 C.3       8 GLP5        0.0000 
     78 CA         16.5975  -13.4005   22.8412 C.3       4 GLC5        0.0000 
     79 CA         18.5460  -13.4300   23.0110 C.3      12 GLL5        0.0000 
     80 CA         14.7850  -14.1420   22.2140 C.3       8 GLP5        0.0000 
@<TRIPOS>BOND
@<TRIPOS>SUBSTRUCTURE
     1 ALC1       45 GROUP        1 X    ALC  0     ROOT ALC X 1
     2 SEC2        1 GROUP        1 X    SEC  0     **** SEC X 2
     3 LYC4        4 GROUP        1 X    LYC  0     **** LYC X 4
     4 GLC5       24 GROUP        1 X    GLC  0     **** GLC X 6
     5 ALP1       47 GROUP        1 Y    ALP  0     ROOT ALP Y 8
     6 SEP2        3 GROUP        1 Y    SEP  0     **** SEP Y 9
     7 LYP4        6 GROUP        1 Y    LYP  0     **** LYP Y 11
     8 GLP5       26 GROUP        1 Y    GLP  0     **** GLP Y 13
     9 ALL1       46 GROUP        1 Z    ALL  0     ROOT ALL Z 15
    10 SEL2        2 GROUP        1 Z    SEL  0     **** SEL Z 16
    11 LYL4        5 GROUP        1 Z    LYL  0     **** LYL Z 18
    12 GLL5       25 GROUP        1 Z    GLL  0     **** GLL Z 20
@<TRIPOS>SET

