#    Name: 2r5c_C6P_1_ligand
#    Modification time : Mon Mar 24 23:10:47 2014

@<TRIPOS>MOLECULE
2r5c_C6P_1_ligand
   34    34     1     0     0
SMALL
NO_CHARGES


@<TRIPOS>ATOM
      1 N          20.7460  -14.4550   22.7980 N.4       1 C6P430      0.0000 
      2 C          18.9840  -15.7710   23.6920 C.2       1 C6P430      0.0000 
      3 O          18.9450  -16.3930   24.7550 O.co2     1 C6P430      0.0000 
      4 P          23.5900   -9.2450   22.3990 P.3       1 C6P430      0.0000 
      5 OP3        22.8620   -8.2410   21.6400 O.co2     1 C6P430      0.0000 
      6 OP1        25.0010   -8.9480   22.5330 O.co2     1 C6P430      0.0000 
      7 OP2        22.9900   -9.6240   23.6550 O.co2     1 C6P430      0.0000 
      8 OP4        23.5010  -10.5970   21.5930 O.3       1 C6P430      0.0000 
      9 C5M        22.3900  -10.9490   20.8230 C.3       1 C6P430      0.0000 
     10 C5         22.5950  -12.3280   20.2440 C.ar      1 C6P430      0.0000 
     11 C6         23.1050  -12.4390   18.8250 C.ar      1 C6P430      0.0000 
     12 N1         23.1930  -13.7490   18.2510 N.ar      1 C6P430      0.0000 
     13 C2         22.8400  -14.9510   18.9350 C.ar      1 C6P430      0.0000 
     14 C2A        22.9750  -16.2830   18.2290 C.3       1 C6P430      0.0000 
     15 C3         22.3290  -14.8930   20.3460 C.ar      1 C6P430      0.0000 
     16 O3         21.9930  -16.1000   20.9740 O.3       1 C6P430      0.0000 
     17 C4         22.1900  -13.5490   21.0380 C.ar      1 C6P430      0.0000 
     18 C4A        21.6690  -13.3940   22.4680 C.3       1 C6P430      0.0000 
     19 CA         19.5630  -14.3740   23.6430 C.3       1 C6P430      0.0000 
     20 OXT        18.6660  -16.2900   22.6850 O.co2     1 C6P430      0.0000 
     21 CB         18.5460  -13.4300   23.0110 C.3       1 C6P430      0.0000 
     22 SG         18.2740  -11.8880   23.9260 S.3       1 C6P430      0.0000 
     23 H          22.2265  -10.2546   19.9845 H         1 C6P430      0.0000 
     24 H          21.4617  -10.9688   21.4145 H         1 C6P430      0.0000 
     25 H          23.3583  -11.6190   18.3433 H         1 C6P430      0.0000 
     26 H          22.5351  -13.3943   23.1440 H         1 C6P430      0.0000 
     27 H          21.1888  -12.4090   22.5467 H         1 C6P430      0.0000 
     28 H          19.8011  -14.0545   24.6165 H         1 C6P430      0.0000 
     29 H          17.5478  -13.8449   22.9607 H         1 C6P430      0.0000 
     30 H          18.8441  -13.0675   22.0360 H         1 C6P430      0.0000 
     31 H          23.9178  -16.4597   17.9464 H         1 C6P430      0.0000 
     32 H          22.6973  -17.0440   18.8154 H         1 C6P430      0.0000 
     33 H          22.4093  -16.3259   17.4055 H         1 C6P430      0.0000 
     34 H          21.1759  -16.4218   20.4957 H         1 C6P430      0.0000 
@<TRIPOS>BOND
     1   18    1 1    
     2   19    1 1    
     3    3    2 ar   
     4   19    2 1    
     5   20    2 ar   
     6    5    4 ar   
     7    6    4 ar   
     8    7    4 ar   
     9    8    4 1    
    10    9    8 1    
    11   10    9 1    
    12   23    9 1    
    13   24    9 1    
    14   11   10 ar   
    15   17   10 ar   
    16   12   11 ar   
    17   25   11 1    
    18   13   12 ar   
    19   14   13 1    
    20   15   13 ar   
    21   31   14 1    
    22   32   14 1    
    23   33   14 1    
    24   16   15 1    
    25   17   15 ar   
    26   34   16 1    
    27   18   17 1    
    28   26   18 1    
    29   27   18 1    
    30   21   19 1    
    31   28   19 1    
    32   22   21 1    
    33   29   21 1    
    34   30   21 1    
@<TRIPOS>SUBSTRUCTURE
     1 C6P430      1 GROUP   
@<TRIPOS>SET

