#    Name: 4chz_H75_1_INTS_M
#    Modification time : Mon Apr  7 22:18:43 2014

@<TRIPOS>MOLECULE
4chz_H75_1_INTS_M
   46     0     3     0     0
SMALL
NO_CHARGES


@<TRIPOS>ATOM
      1 CA         -5.7725   14.9185   -7.3425 C.3       1 GLC5        0.0000 
      2 CA         -7.8860   14.7720   -7.7330 C.3       3 GLL5        0.0000 
      3 CA         -3.6590   15.0650   -6.9520 C.3       2 GLP5        0.0000 
      4 CA         -5.0545   16.4820   -8.3255 C.3       1 GLC5        0.0000 
      5 CA         -6.8890   16.9780   -8.2250 C.3       3 GLL5        0.0000 
      6 CA         -3.2200   15.9860   -8.4260 C.3       2 GLP5        0.0000 
      7 CA         -4.8675   16.1925   -7.0615 C.3       1 GLC5        0.0000 
      8 CA         -6.0760   17.3200   -7.1710 C.3       3 GLL5        0.0000 
      9 CA         -2.7335   19.1160   -8.1940 C.3       1 GLC5        0.0000 
     10 CA         -4.8910   18.7990   -8.6170 C.3       3 GLL5        0.0000 
     11 CA         -0.5760   19.4330   -7.7710 C.3       2 GLP5        0.0000 
     12 CA         -3.3675   18.0280   -8.6550 C.3       1 GLC5        0.0000 
     13 CA         -3.5150   20.0700   -8.8840 C.3       3 GLL5        0.0000 
     14 CA         -3.7160   20.7745  -10.6120 C.3       1 GLC5        0.0000 
     15 CA         -3.9170   21.4790  -12.3400 C.3       2 GLP5        0.0000 
     16 CA         -2.2795   20.3820   -7.9665 C.3       1 GLC5        0.0000 
     17 CA         -1.0440   20.6940   -7.0490 C.3       2 GLP5        0.0000 
     18 CA         -3.0110   22.1995   -9.2005 C.3       1 GLC5        0.0000 
     19 CA         -2.5070   24.3290   -9.5170 C.3       2 GLP5        0.0000 
     20 CA         -4.4655   17.2320  -10.3165 C.3       1 GLC5        0.0000 
     21 CA         -5.7070   18.4420   -9.6650 C.3       3 GLL5        0.0000 
     22 CA         -3.2240   16.0220  -10.9680 C.3       2 GLP5        0.0000 
     23 CA         -4.4410   19.3155  -11.1560 C.3       1 GLC5        0.0000 
     24 CA         -3.1750   20.1890  -12.6470 C.3       2 GLP5        0.0000 
     25 CA         -5.1335   16.3805   -9.5870 C.3       1 GLC5        0.0000 
     26 CA         -6.7120   17.5280   -9.4720 C.3       3 GLL5        0.0000 
     27 CA         -3.5550   15.2330   -9.7020 C.3       2 GLP5        0.0000 
     28 CA        -10.7267   15.5215   -6.0885 C.3       1 GLC5        0.0000 
     29 CA        -11.4050   15.3240   -7.7410 C.3       3 GLL5        0.0000 
     30 CA         -9.8090   16.3810   -4.7100 C.3       2 GLP5        0.0000 
     31 CA         -9.1305   12.3315   -8.9007 C.3       1 GLC5        0.0000 
     32 CA         -9.6310   12.9810   -7.2550 C.3       3 GLL5        0.0000 
     33 CA         -7.9180   11.7420  -10.3020 C.3       2 GLP5        0.0000 
     34 CA         -8.2135   13.1483   -8.9815 C.3       1 GLC5        0.0000 
     35 CA         -9.1320   14.3370   -7.5890 C.3       3 GLL5        0.0000 
     36 CA         -7.6429   13.9028   -5.8857 C.3       1 GLC5        0.0000 
     37 CA         -6.6520   13.5900   -4.1940 C.3       2 GLP5        0.0000 
     38 CA         -9.2214   15.2982   -6.1437 C.3       1 GLC5        0.0000 
     39 CA         -5.0658   17.5235   -5.4465 C.3       1 GLC5        0.0000 
     40 CA         -4.5610   17.2690   -3.6220 C.3       2 GLP5        0.0000 
     41 CA         -5.8638   19.2615   -6.1890 C.3       1 GLC5        0.0000 
     42 CA         -6.1570   20.7450   -5.1070 C.3       2 GLP5        0.0000 
     43 CA         -4.0990   17.2518   -8.2100 C.3       1 GLC5        0.0000 
     44 CA         -5.0650   18.2360   -7.3710 C.3       3 GLL5        0.0000 
     45 CA         -4.9065   20.4908   -7.4008 C.3       1 GLC5        0.0000 
     46 CA         -5.6100   21.5470   -6.0510 C.3       2 GLP5        0.0000 
@<TRIPOS>BOND
@<TRIPOS>SUBSTRUCTURE
     1 GLC5        1 GROUP        1 X    GLC  0     ROOT GLC X 6
     2 GLP5        3 GROUP        1 Y    GLP  0     ROOT GLP Y 13
     3 GLL5        2 GROUP        1 Z    GLL  0     ROOT GLL Z 20
@<TRIPOS>SET

