#    Name: 4chz_H75_1_ligand
#    Modification time : Mon Apr  7 22:18:43 2014

@<TRIPOS>MOLECULE
4chz_H75_1_ligand
   30    32     1     0     0
SMALL
NO_CHARGES


@<TRIPOS>ATOM
      1 O1         -9.6840   17.6490   -8.3260 O.2       1 H751220     0.0000 
      2 C2         -9.2540   16.5250   -8.0890 C.2       1 H751220     0.0000 
      3 N3         -9.9690   15.3880   -7.8040 N.am      1 H751220     0.0000 
      4 C4        -11.4050   15.3240   -7.7410 C.3       1 H751220     0.0000 
      5 C5        -11.8840   14.0000   -7.1930 C.3       1 H751220     0.0000 
      6 C6        -11.0550   12.8610   -7.7440 C.3       1 H751220     0.0000 
      7 C7         -9.6310   12.9810   -7.2550 C.3       1 H751220     0.0000 
      8 C8         -9.1320   14.3370   -7.5890 C.2       1 H751220     0.0000 
      9 C9         -7.8860   14.7720   -7.7330 C.2       1 H751220     0.0000 
     10 N10        -7.9450   16.0940   -8.0380 N.am      1 H751220     0.0000 
     11 C11        -6.8890   16.9780   -8.2250 C.ar      1 H751220     0.0000 
     12 C12        -6.0760   17.3200   -7.1710 C.ar      1 H751220     0.0000 
     13 C13        -5.0650   18.2360   -7.3710 C.ar      1 H751220     0.0000 
     14 C14        -4.8910   18.7990   -8.6170 C.ar      1 H751220     0.0000 
     15 BR         -3.5150   20.0700   -8.8840 Br        1 H751220     0.0000 
     16 C16        -5.7070   18.4420   -9.6650 C.ar      1 H751220     0.0000 
     17 C17        -6.7120   17.5280   -9.4720 C.ar      1 H751220     0.0000 
     18 H         -11.8519   15.4635   -8.7419 H         1 H751220     0.0000 
     19 H         -11.8095   16.1279   -7.0997 H         1 H751220     0.0000 
     20 H         -12.9306   13.8511   -7.4660 H         1 H751220     0.0000 
     21 H         -11.8084   14.0089   -6.1038 H         1 H751220     0.0000 
     22 H         -11.0704   12.8947   -8.8314 H         1 H751220     0.0000 
     23 H         -11.4750   11.9137   -7.4123 H         1 H751220     0.0000 
     24 H          -9.0217   12.2250   -7.7412 H         1 H751220     0.0000 
     25 H          -9.6082   12.8252   -6.1805 H         1 H751220     0.0000 
     26 H          -7.0762   14.2584   -7.6416 H         1 H751220     0.0000 
     27 H          -6.2182   16.8994   -6.2445 H         1 H751220     0.0000 
     28 H          -4.4430   18.4981   -6.5930 H         1 H751220     0.0000 
     29 H          -5.5619   18.8633  -10.5981 H         1 H751220     0.0000 
     30 H          -7.3266   17.2568  -10.2513 H         1 H751220     0.0000 
@<TRIPOS>BOND
     1    2    1 2    
     2    3    2 am   
     3   10    2 am   
     4    4    3 1    
     5    8    3 1    
     6    5    4 1    
     7   18    4 1    
     8   19    4 1    
     9    6    5 1    
    10   20    5 1    
    11   21    5 1    
    12    7    6 1    
    13   22    6 1    
    14   23    6 1    
    15    8    7 1    
    16   24    7 1    
    17   25    7 1    
    18    9    8 2    
    19   10    9 1    
    20   26    9 1    
    21   11   10 1    
    22   12   11 ar   
    23   17   11 ar   
    24   13   12 ar   
    25   27   12 1    
    26   14   13 ar   
    27   28   13 1    
    28   15   14 1    
    29   16   14 ar   
    30   17   16 ar   
    31   29   16 1    
    32   30   17 1    
@<TRIPOS>SUBSTRUCTURE
     1 H751220     1 GROUP   
@<TRIPOS>SET

