#    Name: 3n5h_GO0_1_INTS_M
#    Modification time : Tue Mar 25 00:42:03 2014

@<TRIPOS>MOLECULE
3n5h_GO0_1_INTS_M
   41     0     9     0     0
SMALL
NO_CHARGES


@<TRIPOS>ATOM
      1 CA         -0.6820   77.4600   27.8215 C.3       3 GLC5        0.0000 
      2 CA          0.6950   77.2340   29.2470 C.3       9 GLL5        0.0000 
      3 CA         -2.0590   77.6860   26.3960 C.3       6 GLP5        0.0000 
      4 CA         -0.3415   78.7305   29.6605 C.3       3 GLC5        0.0000 
      5 CA         -1.3780   80.2270   30.0740 C.3       6 GLP5        0.0000 
      6 CA         -0.4740   75.8860   30.0285 C.3       3 GLC5        0.0000 
      7 CA         -1.6430   74.5380   30.8100 C.3       6 GLP5        0.0000 
      8 CA          6.7255   79.1470   27.2520 C.3       3 GLC5        0.0000 
      9 CA          6.8750   77.9220   28.7440 C.3       9 GLL5        0.0000 
     10 CA          6.5760   80.3720   25.7600 C.3       6 GLP5        0.0000 
     11 CA          7.6100   79.6515   29.3175 C.3       3 GLC5        0.0000 
     12 CA          8.3450   81.3810   29.8910 C.3       6 GLP5        0.0000 
     13 CA          6.0615   78.3730   30.6290 C.3       3 GLC5        0.0000 
     14 CA          5.2480   78.8240   32.5140 C.3       6 GLP5        0.0000 
     15 CA          7.6200   76.3875   30.1960 C.3       3 GLC5        0.0000 
     16 CA          8.3650   74.8530   31.6480 C.3       6 GLP5        0.0000 
     17 CA          6.8255   74.5325   30.5080 C.3       3 GLC5        0.0000 
     18 CA          6.5040   74.6500   28.8830 C.3       9 GLL5        0.0000 
     19 CA          7.1470   74.4150   32.1330 C.3       6 GLP5        0.0000 
     20 N           4.8260   74.4720   26.2315 N.am      1 SEC2        0.0000 
     21 N           6.1170   74.9080   26.4870 N.am      7 SEL2        0.0000 
     22 N           3.5350   74.0360   25.9760 N.am      4 SEP2        0.0000 
     23 NZ          1.2795   72.6170   28.3540 N.4       2 LYC4        0.0000 
     24 NZ          2.5820   72.4290   29.4500 N.4       8 LYL4        0.0000 
     25 NZ         -0.0230   72.8050   27.2580 N.4       5 LYP4        0.0000 
     26 NZ          2.3385   71.4210   30.5980 N.4       2 LYC4        0.0000 
     27 NZ          2.0950   70.4130   31.7460 N.4       5 LYP4        0.0000 
     28 N           1.2795   72.6170   28.3540 N.am      1 SEC2        0.0000 
     29 N           2.5820   72.4290   29.4500 N.am      7 SEL2        0.0000 
     30 N          -0.0230   72.8050   27.2580 N.am      4 SEP2        0.0000 
     31 N           2.3385   71.4210   30.5980 N.am      1 SEC2        0.0000 
     32 N           2.0950   70.4130   31.7460 N.am      4 SEP2        0.0000 
     33 CA          2.3788   76.8845   27.4170 C.3       3 GLC5        0.0000 
     34 CA          3.2060   76.4070   25.6360 C.3       6 GLP5        0.0000 
     35 CA          2.2961   76.3975   31.1655 C.3       3 GLC5        0.0000 
     36 CA          3.2510   76.3740   29.1460 C.3       9 GLL5        0.0000 
     37 CA          2.1910   75.9270   33.1590 C.3       6 GLP5        0.0000 
     38 CA          5.6770   79.3602   27.3508 C.3       3 GLC5        0.0000 
     39 CA          5.1860   77.7680   28.9250 C.3       9 GLL5        0.0000 
     40 CA          3.5402   77.4884   27.3211 C.3       3 GLC5        0.0000 
     41 CA          3.7101   75.9854   27.3700 C.3       3 GLC5        0.0000 
@<TRIPOS>BOND
@<TRIPOS>SUBSTRUCTURE
     1 SEC2       20 GROUP        1 X    SEC  0     ROOT SEC X 2
     2 LYC4       23 GROUP        1 X    LYC  0     **** LYC X 4
     3 GLC5        1 GROUP        1 X    GLC  0     **** GLC X 6
     4 SEP2       22 GROUP        1 Y    SEP  0     ROOT SEP Y 9
     5 LYP4       25 GROUP        1 Y    LYP  0     **** LYP Y 11
     6 GLP5        3 GROUP        1 Y    GLP  0     **** GLP Y 13
     7 SEL2       21 GROUP        1 Z    SEL  0     ROOT SEL Z 16
     8 LYL4       24 GROUP        1 Z    LYL  0     **** LYL Z 18
     9 GLL5        2 GROUP        1 Z    GLL  0     **** GLL Z 20
@<TRIPOS>SET

