#    Name: 3n5h_GO0_1_ligand
#    Modification time : Tue Mar 25 00:42:03 2014

@<TRIPOS>MOLECULE
3n5h_GO0_1_ligand
   23    24     1     0     0
SMALL
NO_CHARGES


@<TRIPOS>ATOM
      1 CL1         0.6950   77.2340   29.2470 Cl        1 GO01        0.0000 
      2 C2          2.4080   77.4900   29.1490 C.ar      1 GO01        0.0000 
      3 C3          3.2510   76.3740   29.1460 C.ar      1 GO01        0.0000 
      4 N4          2.8880   75.0780   29.2560 N.pl3     1 GO01        0.0000 
      5 C6          3.9500   74.2950   29.2080 C.2       1 GO01        0.0000 
      6 C7          5.0620   75.0790   29.0360 C.2       1 GO01        0.0000 
      7 C8          4.5940   76.5070   29.0260 C.ar      1 GO01        0.0000 
      8 C9          5.1860   77.7680   28.9250 C.ar      1 GO01        0.0000 
      9 C10         4.3700   78.9290   28.9580 C.ar      1 GO01        0.0000 
     10 C12         2.9710   78.7910   29.0710 C.ar      1 GO01        0.0000 
     11 CL14        6.8750   77.9220   28.7440 Cl        1 GO01        0.0000 
     12 C15         6.5040   74.6500   28.8830 C.3       1 GO01        0.0000 
     13 C18         6.8980   74.6690   27.4030 C.2       1 GO01        0.0000 
     14 O19         6.1170   74.9080   26.4870 O.co2     1 GO01        0.0000 
     15 O20         8.1770   74.4010   27.1450 O.co2     1 GO01        0.0000 
     16 C22         3.8110   72.9550   29.3200 C.2       1 GO01        0.0000 
     17 O23         4.7780   72.2020   29.2930 O.co2     1 GO01        0.0000 
     18 O24         2.5820   72.4290   29.4500 O.co2     1 GO01        0.0000 
     19 H           1.9565   74.7762   29.3573 H         1 GO01        0.0000 
     20 H           4.7945   79.8508   28.9004 H         1 GO01        0.0000 
     21 H           2.3710   79.6083   29.0966 H         1 GO01        0.0000 
     22 H           6.6313   73.6434   29.2701 H         1 GO01        0.0000 
     23 H           7.1501   75.3302   29.4299 H         1 GO01        0.0000 
@<TRIPOS>BOND
     1    2    1 1    
     2    3    2 ar   
     3   10    2 ar   
     4    4    3 1    
     5    7    3 ar   
     6    5    4 1    
     7   19    4 1    
     8    6    5 2    
     9   16    5 1    
    10    7    6 1    
    11   12    6 1    
    12    8    7 ar   
    13    9    8 ar   
    14   11    8 1    
    15   10    9 ar   
    16   20    9 1    
    17   21   10 1    
    18   13   12 1    
    19   22   12 1    
    20   23   12 1    
    21   14   13 ar   
    22   15   13 ar   
    23   17   16 ar   
    24   18   16 ar   
@<TRIPOS>SUBSTRUCTURE
     1 GO01        1 GROUP   
@<TRIPOS>SET

