#    Name: 4gyy_12V_2_INTS_M
#    Modification time : Mon Mar 24 23:58:09 2014

@<TRIPOS>MOLECULE
4gyy_12V_2_INTS_M
  110     0    12     0     0
SMALL
NO_CHARGES


@<TRIPOS>ATOM
      1 O         -14.9950  -16.4740   13.7000 O.2       1 ALC1        0.0000 
      2 O         -14.5730  -16.8190   14.9300 O.2       9 ALL1        0.0000 
      3 O         -15.4170  -16.1290   12.4700 O.2       5 ALP1        0.0000 
      4 N         -16.2490  -18.6180   13.6700 N.am      2 SEC2        0.0000 
      5 N         -15.8810  -18.6780   15.0270 N.am     10 SEL2        0.0000 
      6 N         -16.6170  -18.5580   12.3130 N.am      6 SEP2        0.0000 
      7 CA        -15.0235  -20.1390   16.6995 C.3       4 GLC5        0.0000 
      8 CA        -14.1290  -18.5820   16.5880 C.3      12 GLL5        0.0000 
      9 CA        -15.9180  -21.6960   16.8110 C.3       8 GLP5        0.0000 
     10 CA        -13.8375  -19.0660   14.4325 C.3       4 GLC5        0.0000 
     11 CA        -13.5460  -19.5500   12.2770 C.3       8 GLP5        0.0000 
     12 CA        -15.2485  -17.2355   17.1205 C.3       4 GLC5        0.0000 
     13 CA        -16.3680  -15.8890   17.6530 C.3       8 GLP5        0.0000 
     14 CA        -14.2495  -16.5395   17.7195 C.3       4 GLC5        0.0000 
     15 CA        -13.0730  -17.8470   17.0690 C.3      12 GLL5        0.0000 
     16 CA        -15.4260  -15.2320   18.3700 C.3       8 GLP5        0.0000 
     17 N          -6.8295  -15.3435   22.8305 N.am      2 SEC2        0.0000 
     18 N          -6.0640  -16.7760   22.9980 N.am     10 SEL2        0.0000 
     19 N          -7.5950  -13.9110   22.6630 N.am      6 SEP2        0.0000 
     20 N          -4.4350  -17.7460   18.6660 N.am      2 SEC2        0.0000 
     21 N          -5.4260  -18.1330   19.5810 N.am     10 SEL2        0.0000 
     22 N          -3.4440  -17.3590   17.7510 N.am      6 SEP2        0.0000 
     23 CA        -11.0390  -16.4095   15.2185 C.3       4 GLC5        0.0000 
     24 CA        -11.5950  -15.8640   16.9880 C.3      12 GLL5        0.0000 
     25 CA        -10.4830  -16.9550   13.4490 C.3       8 GLP5        0.0000 
     26 NZ         -7.1035  -20.4000   23.2585 N.4       3 LYC4        0.0000 
     27 NZ         -6.4880  -19.3810   22.5780 N.4      11 LYL4        0.0000 
     28 NZ         -7.7190  -21.4190   23.9390 N.4       7 LYP4        0.0000 
     29 N          -7.1035  -20.4000   23.2585 N.am      2 SEC2        0.0000 
     30 N          -6.4880  -19.3810   22.5780 N.am     10 SEL2        0.0000 
     31 N          -7.7190  -21.4190   23.9390 N.am      6 SEP2        0.0000 
     32 O          -4.3495  -18.2115   25.5930 O.2       1 ALC1        0.0000 
     33 O          -3.8350  -18.2980   24.1590 O.2       9 ALL1        0.0000 
     34 O          -4.8640  -18.1250   27.0270 O.2       5 ALP1        0.0000 
     35 N         -11.7185  -12.9525   18.6820 N.am      2 SEC2        0.0000 
     36 N         -12.2170  -14.2710   18.7470 N.am     10 SEL2        0.0000 
     37 N         -11.2200  -11.6340   18.6170 N.am      6 SEP2        0.0000 
     38 O         -12.7975  -14.3560   19.9470 O.2       1 ALC1        0.0000 
     39 O         -12.2170  -14.2710   18.7470 O.2       9 ALL1        0.0000 
     40 O         -13.3780  -14.4410   21.1470 O.2       5 ALP1        0.0000 
     41 N          -6.9120  -20.6720   18.6625 N.am      2 SEC2        0.0000 
     42 N          -7.5470  -19.7960   19.5840 N.am     10 SEL2        0.0000 
     43 N          -6.2770  -21.5480   17.7410 N.am      6 SEP2        0.0000 
     44 NZ         -8.0360  -19.5695   23.7250 N.4       3 LYC4        0.0000 
     45 NZ         -8.3530  -17.7200   23.5110 N.4      11 LYL4        0.0000 
     46 N          -8.7040  -17.8805   24.8815 N.am      2 SEC2        0.0000 
     47 N          -8.3530  -17.7200   23.5110 N.am     10 SEL2        0.0000 
     48 N          -9.0550  -18.0410   26.2520 N.am      6 SEP2        0.0000 
     49 N          -9.7330  -16.9540   23.6050 N.am      2 SEC2        0.0000 
     50 N         -11.1130  -16.1880   23.6990 N.am      6 SEP2        0.0000 
     51 O          -3.8420  -17.1280   26.2590 O.2       1 ALC1        0.0000 
     52 O          -2.8200  -16.1310   25.4910 O.2       9 ALL1        0.0000 
     53 N         -10.4430  -12.8385   18.4045 N.am      2 SEC2        0.0000 
     54 N          -9.6660  -14.0430   18.1920 N.am     10 SEL2        0.0000 
     55 CA         -1.5255  -13.3840   24.0660 C.3       4 GLC5        0.0000 
     56 CA         -3.3760  -14.4870   23.9070 C.3      12 GLL5        0.0000 
     57 CA          0.3250  -12.2810   24.2250 C.3       8 GLP5        0.0000 
     58 O          -2.3385  -13.1355   25.6970 O.2       1 ALC1        0.0000 
     59 O          -3.3530  -13.6070   25.0010 O.2       9 ALL1        0.0000 
     60 O          -1.3240  -12.6640   26.3930 O.2       5 ALP1        0.0000 
     61 CA         -9.9510  -16.6680   15.5450 C.3       4 GLC5        0.0000 
     62 CA         -9.4190  -16.3810   17.6410 C.3      12 GLL5        0.0000 
     63 CA         -3.3695  -16.3815   20.6765 C.3       4 GLC5        0.0000 
     64 CA         -4.5930  -15.1800   21.5560 C.3      12 GLL5        0.0000 
     65 CA         -2.1460  -17.5830   19.7970 C.3       8 GLP5        0.0000 
     66 CA        -10.2565  -17.9330   19.9895 C.3       4 GLC5        0.0000 
     67 CA         -8.9810  -17.6940   18.3250 C.3      12 GLL5        0.0000 
     68 CA        -11.5320  -18.1720   21.6540 C.3       8 GLP5        0.0000 
     69 CA         -3.8360  -11.0590   21.2105 C.3       4 GLC5        0.0000 
     70 CA         -4.0230  -12.7330   22.1000 C.3      12 GLL5        0.0000 
     71 CA         -3.6490   -9.3850   20.3210 C.3       8 GLP5        0.0000 
     72 O          -2.1875  -11.7640   20.9110 O.2       1 ALC1        0.0000 
     73 O          -2.8320  -12.9420   21.3800 O.2       9 ALL1        0.0000 
     74 O          -1.5430  -10.5860   20.4420 O.2       5 ALP1        0.0000 
     75 N          -1.1710  -19.7000   22.3700 N.am      2 SEC2        0.0000 
     76 N          -2.7370  -19.3840   22.4870 N.am     10 SEL2        0.0000 
     77 N           0.3950  -20.0160   22.2530 N.am      6 SEP2        0.0000 
     78 CA         -1.7925  -21.8725   25.3170 C.3       4 GLC5        0.0000 
     79 CA         -3.4600  -20.7300   24.3290 C.3      12 GLL5        0.0000 
     80 CA         -0.1250  -23.0150   26.3050 C.3       8 GLP5        0.0000 
     81 CA         -1.9595  -19.7190   25.2095 C.3       4 GLC5        0.0000 
     82 CA         -0.4590  -18.7080   26.0900 C.3       8 GLP5        0.0000 
     83 CA         -5.3455  -21.7195   23.8525 C.3       4 GLC5        0.0000 
     84 CA         -7.2310  -22.7090   23.3760 C.3       8 GLP5        0.0000 
     85 CA         -4.0660  -22.0380   25.2875 C.3       4 GLC5        0.0000 
     86 CA         -4.6720  -23.3460   26.2460 C.3       8 GLP5        0.0000 
     87 CA        -12.4585  -19.7127   16.4263 C.3       4 GLC5        0.0000 
     88 CA        -11.3160  -21.2110   16.0240 C.3       8 GLP5        0.0000 
     89 CA         -3.2222  -17.2535   21.3858 C.3       4 GLC5        0.0000 
     90 CA         -4.8650  -16.8350   22.4630 C.3      12 GLL5        0.0000 
     91 CA        -13.4970  -15.4550   18.0490 C.3       4 GLC5        0.0000 
     92 CA        -11.5410  -15.4920   18.4680 C.3      12 GLL5        0.0000 
     93 CA         -5.3485  -16.6112   25.2447 C.3       4 GLC5        0.0000 
     94 CA         -3.7320  -17.0130   23.4860 C.3      12 GLL5        0.0000 
     95 CA         -6.9430  -16.7850   26.4970 C.3       8 GLP5        0.0000 
     96 CA        -10.2525  -14.3475   20.1532 C.3       4 GLC5        0.0000 
     97 CA         -9.9950  -15.3420   18.6410 C.3      12 GLL5        0.0000 
     98 CA         -9.7370  -13.2780   21.7520 C.3       8 GLP5        0.0000 
     99 CA        -11.1500  -16.7945   20.1043 C.3       4 GLC5        0.0000 
    100 CA         -7.9510  -14.7973   18.0410 C.3       4 GLC5        0.0000 
    101 CA         -6.1950  -13.7330   17.9410 C.3       8 GLP5        0.0000 
    102 CA         -8.0460  -17.9483   16.7255 C.3       4 GLC5        0.0000 
    103 CA         -6.8920  -18.8590   15.4680 C.3       8 GLP5        0.0000 
    104 CA         -5.1530  -12.0440   23.4310 C.3       4 GLC5        0.0000 
    105 CA         -6.0810  -10.7340   24.3520 C.3       8 GLP5        0.0000 
    106 CA         -5.2617  -13.9489   25.2028 C.3       4 GLC5        0.0000 
    107 CA         -4.4270  -13.9750   22.9200 C.3      12 GLL5        0.0000 
    108 CA         -6.5220  -13.3230   26.8440 C.3       8 GLP5        0.0000 
    109 CA         -5.2182  -13.2746   20.6605 C.3       4 GLC5        0.0000 
    110 CA         -6.1700  -12.8940   19.1520 C.3       8 GLP5        0.0000 
@<TRIPOS>BOND
@<TRIPOS>SUBSTRUCTURE
     1 ALC1        1 GROUP        1 X    ALC  0     ROOT ALC X 1
     2 SEC2        4 GROUP        1 X    SEC  0     **** SEC X 2
     3 LYC4       26 GROUP        1 X    LYC  0     **** LYC X 4
     4 GLC5        7 GROUP        1 X    GLC  0     **** GLC X 6
     5 ALP1        3 GROUP        1 Y    ALP  0     ROOT ALP Y 8
     6 SEP2        6 GROUP        1 Y    SEP  0     **** SEP Y 9
     7 LYP4       28 GROUP        1 Y    LYP  0     **** LYP Y 11
     8 GLP5        9 GROUP        1 Y    GLP  0     **** GLP Y 13
     9 ALL1        2 GROUP        1 Z    ALL  0     ROOT ALL Z 15
    10 SEL2        5 GROUP        1 Z    SEL  0     **** SEL Z 16
    11 LYL4       27 GROUP        1 Z    LYL  0     **** LYL Z 18
    12 GLL5        8 GROUP        1 Z    GLL  0     **** GLL Z 20
@<TRIPOS>SET

