#    Name: 4gyy_12V_2_ligand
#    Modification time : Mon Mar 24 23:58:09 2014

@<TRIPOS>MOLECULE
4gyy_12V_2_ligand
   64    66     1     0     0
SMALL
NO_CHARGES


@<TRIPOS>ATOM
      1 N1        -12.7710  -16.6090   16.5120 N.am      1 12V1501     0.0000 
      2 C2        -13.5010  -16.0830   15.4240 C.2       1 12V1501     0.0000 
      3 O2        -13.1910  -14.9930   14.9470 O.2       1 12V1501     0.0000 
      4 N3        -14.5730  -16.8190   14.9300 N.am      1 12V1501     0.0000 
      5 C4        -14.8350  -17.9820   15.5060 C.2       1 12V1501     0.0000 
      6 O4        -15.8810  -18.6780   15.0270 O.2       1 12V1501     0.0000 
      7 C5        -14.1290  -18.5820   16.5880 C.2       1 12V1501     0.0000 
      8 C6        -13.0730  -17.8470   17.0690 C.2       1 12V1501     0.0000 
      9 PA         -6.8510  -18.4660   19.7820 P.3       1 12V1501     0.0000 
     10 PB         -7.2120  -18.0590   22.6220 P.3       1 12V1501     0.0000 
     11 C1'        -4.8650  -16.8350   22.4630 C.3       1 12V1501     0.0000 
     12 O1'        -6.0640  -16.7760   22.9980 O.3       1 12V1501     0.0000 
     13 O1A        -5.4260  -18.1330   19.5810 O.co2     1 12V1501     0.0000 
     14 C1B       -11.5950  -15.8640   16.9880 C.3       1 12V1501     0.0000 
     15 O1B        -6.4880  -19.3810   22.5780 O.co2     1 12V1501     0.0000 
     16 C2'        -3.7320  -17.0130   23.4860 C.3       1 12V1501     0.0000 
     17 N2'        -3.8350  -18.2980   24.1590 N.am      1 12V1501     0.0000 
     18 O2'       -12.2170  -14.2710   18.7470 O.3       1 12V1501     0.0000 
     19 O2A        -7.5470  -19.7960   19.5840 O.co2     1 12V1501     0.0000 
     20 C2B       -11.5410  -15.4920   18.4680 C.3       1 12V1501     0.0000 
     21 O2B        -8.3530  -17.7200   23.5110 O.co2     1 12V1501     0.0000 
     22 C3'        -3.7760  -15.8620   24.4990 C.3       1 12V1501     0.0000 
     23 O3'        -2.8200  -16.1310   25.4910 O.3       1 12V1501     0.0000 
     24 O3A        -7.4640  -17.7940   21.0990 O.3       1 12V1501     0.0000 
     25 C3B        -9.9950  -15.3420   18.6410 C.3       1 12V1501     0.0000 
     26 O3B        -9.6660  -14.0430   18.1920 O.3       1 12V1501     0.0000 
     27 C4'        -3.3760  -14.4870   23.9070 C.3       1 12V1501     0.0000 
     28 O4'        -3.3530  -13.6070   25.0010 O.3       1 12V1501     0.0000 
     29 C4B        -9.4190  -16.3810   17.6410 C.3       1 12V1501     0.0000 
     30 O4B       -10.4810  -16.6810   16.7340 O.3       1 12V1501     0.0000 
     31 C5'        -4.4270  -13.9750   22.9200 C.3       1 12V1501     0.0000 
     32 S5'        -4.5930  -15.1800   21.5560 S.3       1 12V1501     0.0000 
     33 C5B        -8.9810  -17.6940   18.3250 C.3       1 12V1501     0.0000 
     34 O5B        -7.6660  -17.5000   18.6140 O.3       1 12V1501     0.0000 
     35 C6'        -4.0230  -12.7330   22.1000 C.3       1 12V1501     0.0000 
     36 O6'        -2.8320  -12.9420   21.3800 O.3       1 12V1501     0.0000 
     37 C7'        -3.3140  -19.4270   23.5780 C.2       1 12V1501     0.0000 
     38 O7'        -2.7370  -19.3840   22.4870 O.2       1 12V1501     0.0000 
     39 C8'        -3.4600  -20.7300   24.3290 C.3       1 12V1501     0.0000 
     40 H         -15.1196  -16.4475   14.1489 H         1 12V1501     0.0000 
     41 H         -14.3993  -19.4641   16.9484 H         1 12V1501     0.0000 
     42 H         -12.4971  -18.2081   17.8462 H         1 12V1501     0.0000 
     43 H          -4.7216  -17.4926   21.6264 H         1 12V1501     0.0000 
     44 H         -11.4897  -14.9405   16.4075 H         1 12V1501     0.0000 
     45 H          -2.7904  -16.9396   22.9471 H         1 12V1501     0.0000 
     46 H          -4.3043  -18.3228   25.0679 H         1 12V1501     0.0000 
     47 H         -11.8376  -16.3223   19.0326 H         1 12V1501     0.0000 
     48 H          -4.7546  -15.7825   24.9101 H         1 12V1501     0.0000 
     49 H          -9.7341  -15.5794   19.5936 H         1 12V1501     0.0000 
     50 H          -2.4429  -14.5756   23.4344 H         1 12V1501     0.0000 
     51 H          -8.5907  -15.9468   17.1386 H         1 12V1501     0.0000 
     52 H          -5.3883  -13.9170   23.2637 H         1 12V1501     0.0000 
     53 H          -9.1681  -18.4914   17.6170 H         1 12V1501     0.0000 
     54 H          -9.6141  -17.8184   19.1944 H         1 12V1501     0.0000 
     55 H          -3.9385  -11.8912   22.8136 H         1 12V1501     0.0000 
     56 H          -4.8767  -12.4949   21.4370 H         1 12V1501     0.0000 
     57 H          -3.0528  -21.4944   23.8291 H         1 12V1501     0.0000 
     58 H          -3.0151  -20.6948   25.2239 H         1 12V1501     0.0000 
     59 H          -4.4198  -20.9616   24.4878 H         1 12V1501     0.0000 
     60 H         -12.6577  -14.4159   19.6329 H         1 12V1501     0.0000 
     61 H          -3.3062  -16.6688   26.1798 H         1 12V1501     0.0000 
     62 H          -9.4732  -14.1476   17.2164 H         1 12V1501     0.0000 
     63 H          -2.3854  -13.5080   25.2331 H         1 12V1501     0.0000 
     64 H          -2.5108  -12.0260   21.1397 H         1 12V1501     0.0000 
@<TRIPOS>BOND
     1    2    1 1    
     2    8    1 1    
     3   14    1 1    
     4    3    2 2    
     5    4    2 1    
     6    5    4 1    
     7   40    4 1    
     8    6    5 2    
     9    7    5 1    
    10    8    7 2    
    11   41    7 1    
    12   42    8 1    
    13   13    9 ar   
    14   19    9 ar   
    15   24    9 1    
    16   34    9 1    
    17   12   10 1    
    18   15   10 ar   
    19   21   10 ar   
    20   24   10 1    
    21   12   11 1    
    22   16   11 1    
    23   32   11 1    
    24   43   11 1    
    25   20   14 1    
    26   30   14 1    
    27   44   14 1    
    28   17   16 1    
    29   22   16 1    
    30   45   16 1    
    31   37   17 am   
    32   46   17 1    
    33   20   18 1    
    34   60   18 1    
    35   25   20 1    
    36   47   20 1    
    37   23   22 1    
    38   27   22 1    
    39   48   22 1    
    40   61   23 1    
    41   26   25 1    
    42   29   25 1    
    43   49   25 1    
    44   62   26 1    
    45   28   27 1    
    46   31   27 1    
    47   50   27 1    
    48   63   28 1    
    49   30   29 1    
    50   33   29 1    
    51   51   29 1    
    52   32   31 1    
    53   35   31 1    
    54   52   31 1    
    55   34   33 1    
    56   53   33 1    
    57   54   33 1    
    58   36   35 1    
    59   55   35 1    
    60   56   35 1    
    61   64   36 1    
    62   38   37 2    
    63   39   37 1    
    64   57   39 1    
    65   58   39 1    
    66   59   39 1    
@<TRIPOS>SUBSTRUCTURE
     1 12V1501     1 GROUP   
@<TRIPOS>SET

