#    Name: 2QIM_4_CAVITY_N1_6.mol2
#    Modification time : Tue Mar 11 07:54:01 2014

@<TRIPOS>MOLECULE
2QIM_4_CAVITY_N1_6.mol2
   47     0     5     0     0
SMALL
NO_CHARGES


@<TRIPOS>ATOM
      1 N          69.8336   33.8934   -2.4081 N.2       1 ALA2        0.0000 
      2 CA         68.4174   33.6674   -2.8477 C.3       4 GLY6        0.0000 
      3 CZ         68.7209   34.3227   -4.1624 C.ar      3 PHE5        0.0000 
      4 CZ         69.0244   34.9781   -5.4771 C.ar      3 PHE5        0.0000 
      5 O          67.3047   34.0968   -4.6020 O.2       1 ALA2        0.0000 
      6 DU         67.6082   34.7521   -5.9167 H         5 CUB7        0.0000 
      7 CA         65.8884   33.8709   -5.0416 C.3       4 GLY6        0.0000 
      8 DU         66.1920   34.5262   -6.3563 H         5 CUB7        0.0000 
      9 N          69.4435   35.2236   -1.8351 N.2       1 ALA2        0.0000 
     10 CZ         69.7470   35.8789   -3.1498 C.ar      3 PHE5        0.0000 
     11 CA         68.3308   35.6530   -3.5894 C.3       4 GLY6        0.0000 
     12 CZ         68.6343   36.3083   -4.9041 C.ar      3 PHE5        0.0000 
     13 CA         66.9146   35.4270   -4.0290 C.3       4 GLY6        0.0000 
     14 CZ         67.2181   36.0824   -5.3437 C.ar      3 PHE5        0.0000 
     15 CZ         67.5216   36.7377   -6.6584 C.ar      3 PHE5        0.0000 
     16 O          65.4983   35.2011   -4.4686 O.2       1 ALA2        0.0000 
     17 N          65.8019   35.8564   -5.7833 N.2       1 ALA2        0.0000 
     18 DU         66.1054   36.5117   -7.0980 H         5 CUB7        0.0000 
     19 CA         64.3856   35.6305   -6.2229 C.3       4 GLY6        0.0000 
     20 CA         70.2237   32.5631   -2.9811 C.3       4 GLY6        0.0000 
     21 CZ         70.5272   33.2185   -4.2958 C.ar      3 PHE5        0.0000 
     22 CA         68.8074   32.3372   -3.4207 C.3       4 GLY6        0.0000 
     23 CZ         69.1110   32.9925   -4.7354 C.ar      3 PHE5        0.0000 
     24 CA         67.6947   32.7666   -5.1750 C.3       4 GLY6        0.0000 
     25 CA         69.0534   36.5538   -1.2621 C.3       4 GLY6        0.0000 
     26 CZ         69.3570   37.2091   -2.5768 C.ar      3 PHE5        0.0000 
     27 CA         67.9407   36.9832   -3.0164 C.3       4 GLY6        0.0000 
     28 CZ         68.2443   37.6385   -4.3311 C.ar      3 PHE5        0.0000 
     29 N          66.8280   37.4126   -4.7707 N.2       1 ALA2        0.0000 
     30 NZ         67.1316   38.0679   -6.0854 N.2       2 LYS4        0.0000 
     31 NZ         67.4351   38.7232   -7.4001 N.2       2 LYS4        0.0000 
     32 CA         65.4118   37.1866   -5.2103 C.3       4 GLY6        0.0000 
     33 NZ         65.7153   37.8420   -6.5250 N.2       2 LYS4        0.0000 
     34 NZ         66.0189   38.4973   -7.8397 N.2       2 LYS4        0.0000 
     35 CA         68.6633   37.8840   -0.6891 C.3       4 GLY6        0.0000 
     36 CA         68.9669   38.5394   -2.0038 C.3       4 GLY6        0.0000 
     37 CZ         69.2704   39.1947   -3.3185 C.ar      3 PHE5        0.0000 
     38 CA         67.5506   38.3134   -2.4434 C.3       4 GLY6        0.0000 
     39 CA         67.8542   38.9687   -3.7581 C.3       4 GLY6        0.0000 
     40 CA         68.1577   39.6241   -5.0728 C.3       4 GLY6        0.0000 
     41 N          66.4379   38.7428   -4.1977 N.2       1 ALA2        0.0000 
     42 CA         68.5768   39.8696   -1.4308 C.3       4 GLY6        0.0000 
     43 CA         68.8803   40.5249   -2.7455 C.3       4 GLY6        0.0000 
     44 CA         66.8570   38.9883   -0.5557 C.3       4 GLY6        0.0000 
     45 CA         67.1606   39.6436   -1.8704 C.3       4 GLY6        0.0000 
     46 CA         67.4641   40.2990   -3.1851 C.3       4 GLY6        0.0000 
     47 NZ         66.0479   40.0730   -3.6247 N.2       2 LYS4        0.0000 
@<TRIPOS>BOND
@<TRIPOS>SUBSTRUCTURE
     1 ALA2        1 GROUP   
     2 LYS4       30 GROUP   
     3 PHE5        3 GROUP   
     4 GLY6        2 GROUP   
     5 CUB7        6 GROUP   
@<TRIPOS>SET

