#    Name: 2qim_ZEA_4_INTS_M
#    Modification time : Mon Mar 24 22:12:23 2014

@<TRIPOS>MOLECULE
2qim_ZEA_4_INTS_M
   25     0     6     0     0
SMALL
NO_CHARGES


@<TRIPOS>ATOM
      1 O          69.9990   29.4555   -4.4100 O.2       1 ALC1        0.0000 
      2 O          70.9540   30.3140   -4.2540 O.2       5 ALL1        0.0000 
      3 O          69.0440   28.5970   -4.5660 O.2       3 ALP1        0.0000 
      4 CA         71.8690   33.7125   -1.7140 C.3       2 GLC5        0.0000 
      5 CA         70.6190   32.9830   -2.9690 C.3       6 GLL5        0.0000 
      6 CA         73.1190   34.4420   -0.4590 C.3       4 GLP5        0.0000 
      7 CA         69.3405   32.0465   -2.0625 C.3       2 GLC5        0.0000 
      8 CA         68.0620   31.1100   -1.1560 C.3       4 GLP5        0.0000 
      9 CA         68.0405   32.5980   -2.5965 C.3       2 GLC5        0.0000 
     10 CA         68.0190   34.0860   -4.0370 C.3       6 GLL5        0.0000 
     11 CA         67.1465   34.9310   -2.5705 C.3       2 GLC5        0.0000 
     12 CA         66.2740   35.7760   -1.1040 C.3       4 GLP5        0.0000 
     13 CA         63.9205   37.6705   -6.8795 C.3       2 GLC5        0.0000 
     14 CA         65.6520   36.5200   -7.6590 C.3       6 GLL5        0.0000 
     15 CA         62.1890   38.8210   -6.1000 C.3       4 GLP5        0.0000 
     16 CA         64.1140   33.5020   -5.1825 C.3       2 GLC5        0.0000 
     17 CA         64.7040   34.8020   -6.5850 C.3       6 GLL5        0.0000 
     18 CA         63.5240   32.2020   -3.7800 C.3       4 GLP5        0.0000 
     19 CA         70.8907   34.4020   -4.3113 C.3       2 GLC5        0.0000 
     20 CA         69.9900   32.4830   -4.3300 C.3       6 GLL5        0.0000 
     21 CA         71.4770   36.0710   -4.9730 C.3       4 GLP5        0.0000 
     22 CA         69.9267   34.8167   -4.7040 C.3       2 GLC5        0.0000 
     23 CA         68.7340   33.0390   -4.8330 C.3       6 GLL5        0.0000 
     24 CA         68.4750   31.1305   -4.0178 C.3       2 GLC5        0.0000 
     25 CA         67.4250   29.7510   -3.2330 C.3       4 GLP5        0.0000 
@<TRIPOS>BOND
@<TRIPOS>SUBSTRUCTURE
     1 ALC1        1 GROUP        1 X    ALC  0     ROOT ALC X 1
     2 GLC5        4 GROUP        1 X    GLC  0     **** GLC X 6
     3 ALP1        3 GROUP        1 Y    ALP  0     ROOT ALP Y 8
     4 GLP5        6 GROUP        1 Y    GLP  0     **** GLP Y 13
     5 ALL1        2 GROUP        1 Z    ALL  0     ROOT ALL Z 15
     6 GLL5        5 GROUP        1 Z    GLL  0     **** GLL Z 20
@<TRIPOS>SET

