#    Name: 2qim_ZEA_4_ligand
#    Modification time : Mon Mar 24 22:12:23 2014

@<TRIPOS>MOLECULE
2qim_ZEA_4_ligand
   29    30     1     0     0
SMALL
NO_CHARGES


@<TRIPOS>ATOM
      1 O16        70.9540   30.3140   -4.2540 O.3       1 ZEA162      0.0000 
      2 C14        70.6420   31.4790   -5.2140 C.3       1 ZEA162      0.0000 
      3 C13        69.9900   32.4830   -4.3300 C.2       1 ZEA162      0.0000 
      4 C15        70.6190   32.9830   -2.9690 C.3       1 ZEA162      0.0000 
      5 C12        68.7340   33.0390   -4.8330 C.2       1 ZEA162      0.0000 
      6 C11        68.0190   34.0860   -4.0370 C.3       1 ZEA162      0.0000 
      7 N10        67.8300   35.1890   -5.0130 N.pl3     1 ZEA162      0.0000 
      8 C6         66.7980   35.3810   -5.8280 C.ar      1 ZEA162      0.0000 
      9 C5         66.7540   36.3910   -6.8320 C.ar      1 ZEA162      0.0000 
     10 N9         67.6850   37.4160   -7.1840 N.2       1 ZEA162      0.0000 
     11 C4         65.6520   36.5200   -7.6590 C.ar      1 ZEA162      0.0000 
     12 N7         65.8930   37.5480   -8.4620 N.pl3     1 ZEA162      0.0000 
     13 C8         67.2410   38.1580   -8.2040 C.2       1 ZEA162      0.0000 
     14 N3         64.5490   35.7300   -7.5510 N.ar      1 ZEA162      0.0000 
     15 C2         64.7040   34.8020   -6.5850 C.ar      1 ZEA162      0.0000 
     16 N1         65.6670   34.5150   -5.7120 N.ar      1 ZEA162      0.0000 
     17 H          69.9717   31.1372   -5.9625 H         1 ZEA162      0.0000 
     18 H          71.5537   31.8527   -5.6083 H         1 ZEA162      0.0000 
     19 H          68.3451   32.7334   -5.6966 H         1 ZEA162      0.0000 
     20 H          68.6315   34.4076   -3.2246 H         1 ZEA162      0.0000 
     21 H          67.0750   33.7126   -3.7086 H         1 ZEA162      0.0000 
     22 H          68.6559   35.8837   -5.0176 H         1 ZEA162      0.0000 
     23 H          65.3338   37.9283   -9.1543 H         1 ZEA162      0.0000 
     24 H          67.5710   38.8473   -8.6763 H         1 ZEA162      0.0000 
     25 H          63.7978   34.1044   -6.5007 H         1 ZEA162      0.0000 
     26 H          71.5105   33.4141   -3.1081 H         1 ZEA162      0.0000 
     27 H          70.0353   33.6565   -2.5154 H         1 ZEA162      0.0000 
     28 H          70.7545   32.2309   -2.3240 H         1 ZEA162      0.0000 
     29 H          70.0624   29.9286   -4.0165 H         1 ZEA162      0.0000 
@<TRIPOS>BOND
     1    2    1 1    
     2   29    1 1    
     3    3    2 1    
     4   17    2 1    
     5   18    2 1    
     6    4    3 1    
     7    5    3 2    
     8   26    4 1    
     9   27    4 1    
    10   28    4 1    
    11    6    5 1    
    12   19    5 1    
    13    7    6 1    
    14   20    6 1    
    15   21    6 1    
    16    8    7 1    
    17   22    7 1    
    18    9    8 ar   
    19   16    8 ar   
    20   10    9 1    
    21   11    9 ar   
    22   13   10 2    
    23   12   11 1    
    24   14   11 ar   
    25   13   12 1    
    26   23   12 1    
    27   24   13 1    
    28   15   14 ar   
    29   16   15 ar   
    30   25   15 1    
@<TRIPOS>SUBSTRUCTURE
     1 ZEA162      1 GROUP   
@<TRIPOS>SET

