#    Name: 3zm6_2GN_1_INTS_M
#    Modification time : Tue Mar 25 03:40:29 2014

@<TRIPOS>MOLECULE
3zm6_2GN_1_INTS_M
   83     0     9     0     0
SMALL
NO_CHARGES


@<TRIPOS>ATOM
      1 N          30.1435   39.4580    4.1850 N.am      2 SEC2        0.0000 
      2 N          28.8350   40.2950    4.0350 N.am      8 SEL2        0.0000 
      3 N          31.4520   38.6210    4.3350 N.am      5 SEP2        0.0000 
      4 CA         25.1380   38.8160    5.9435 C.3       3 GLC5        0.0000 
      5 CA         24.5450   39.8570    4.5840 C.3       9 GLL5        0.0000 
      6 CA         25.7310   37.7750    7.3030 C.3       6 GLP5        0.0000 
      7 CA         23.6050   38.8935    3.0025 C.3       3 GLC5        0.0000 
      8 CA         22.6650   37.9300    1.4210 C.3       6 GLP5        0.0000 
      9 CA         22.7690   39.7580    4.9000 C.3       3 GLC5        0.0000 
     10 CA         20.9930   39.6590    5.2160 C.3       6 GLP5        0.0000 
     11 CA         26.0275   39.4560    6.2225 C.3       3 GLC5        0.0000 
     12 CA         26.0760   39.8720    4.6000 C.3       9 GLL5        0.0000 
     13 CA         25.9790   39.0400    7.8450 C.3       6 GLP5        0.0000 
     14 CA         27.5585   40.3745   -0.4895 C.3       3 GLC5        0.0000 
     15 CA         25.7360   40.6340    0.5320 C.3       9 GLL5        0.0000 
     16 CA         29.3810   40.1150   -1.5110 C.3       6 GLP5        0.0000 
     17 CA         26.7200   42.0915   -0.0525 C.3       3 GLC5        0.0000 
     18 CA         27.7040   43.5490   -0.6370 C.3       6 GLP5        0.0000 
     19 CA         27.0820   35.2010    0.5905 C.3       3 GLC5        0.0000 
     20 CA         27.6890   35.9240   -0.9970 C.3       9 GLL5        0.0000 
     21 CA         26.4750   34.4780    2.1780 C.3       6 GLP5        0.0000 
     22 CA         25.9840   35.4520   -2.0970 C.3       3 GLC5        0.0000 
     23 CA         24.2790   34.9800   -3.1970 C.3       6 GLP5        0.0000 
     24 CA         28.3900   36.8695   -2.6530 C.3       3 GLC5        0.0000 
     25 CA         29.0910   37.8150   -4.3090 C.3       6 GLP5        0.0000 
     26 O          30.6900   37.0480   -0.6685 O.2       1 ALC1        0.0000 
     27 O          30.5810   35.9880    0.1880 O.2       7 ALL1        0.0000 
     28 O          30.7990   38.1080   -1.5250 O.2       4 ALP1        0.0000 
     29 CA         33.0775   37.0460   -3.1045 C.3       3 GLC5        0.0000 
     30 CA         32.3050   35.2280   -2.0370 C.3       9 GLL5        0.0000 
     31 CA         33.8500   38.8640   -4.1720 C.3       6 GLP5        0.0000 
     32 CA         32.5715   33.3885   -3.2410 C.3       3 GLC5        0.0000 
     33 CA         32.8380   31.5490   -4.4450 C.3       6 GLP5        0.0000 
     34 N          32.4610   36.1150   -4.5380 N.am      2 SEC2        0.0000 
     35 N          32.2390   35.7320   -3.0890 N.am      8 SEL2        0.0000 
     36 N          32.6830   36.4980   -5.9870 N.am      5 SEP2        0.0000 
     37 CA         30.7955   33.1395    2.8315 C.3       3 GLC5        0.0000 
     38 CA         32.0000   34.2250    1.7130 C.3       9 GLL5        0.0000 
     39 CA         29.5910   32.0540    3.9500 C.3       6 GLP5        0.0000 
     40 CA         32.7550   35.9310    2.6455 C.3       3 GLC5        0.0000 
     41 CA         33.5100   37.6370    3.5780 C.3       6 GLP5        0.0000 
     42 CA         34.7670   31.5440    3.3660 C.3       3 GLC5        0.0000 
     43 CA         34.0460   32.3210    1.7150 C.3       9 GLL5        0.0000 
     44 CA         35.4880   30.7670    5.0170 C.3       6 GLP5        0.0000 
     45 CA         36.0355   33.2610    1.9405 C.3       3 GLC5        0.0000 
     46 CA         38.0250   34.2010    2.1660 C.3       6 GLP5        0.0000 
     47 CA         36.6835   32.5505   -1.1840 C.3       3 GLC5        0.0000 
     48 CA         34.9850   31.7280   -0.6370 C.3       9 GLL5        0.0000 
     49 CA         38.3820   33.3730   -1.7310 C.3       6 GLP5        0.0000 
     50 CA         35.8410   33.6645   -2.5385 C.3       3 GLC5        0.0000 
     51 CA         34.4450   32.9960   -1.2970 C.3       9 GLL5        0.0000 
     52 CA         37.2370   34.3330   -3.7800 C.3       6 GLP5        0.0000 
     53 CA         36.8825   32.3895    1.8185 C.3       3 GLC5        0.0000 
     54 CA         35.7400   30.5780    1.4710 C.3       9 GLL5        0.0000 
     55 CA         38.8040   30.5700    1.7570 C.3       3 GLC5        0.0000 
     56 CA         37.5650   29.0460    0.7450 C.3       9 GLL5        0.0000 
     57 CA         40.0430   32.0940    2.7690 C.3       6 GLP5        0.0000 
     58 CA         38.9095   29.6630   -0.8605 C.3       3 GLC5        0.0000 
     59 CA         40.2540   30.2800   -2.4660 C.3       6 GLP5        0.0000 
     60 CA         25.3987   37.9147    4.2095 C.3       3 GLC5        0.0000 
     61 CA         25.4870   35.9650    3.8270 C.3       6 GLP5        0.0000 
     62 CA         28.3955   39.7630   -0.0622 C.3       3 GLC5        0.0000 
     63 CA         27.8870   39.4450    1.8990 C.3       9 GLL5        0.0000 
     64 CA         29.6905   38.6172    0.3700 C.3       3 GLC5        0.0000 
     65 CA         28.7780   38.4010    2.0730 C.3       9 GLL5        0.0000 
     66 CA         30.6210   39.3770   -0.8930 C.3       6 GLP5        0.0000 
     67 CA         24.9156   39.0694   -0.4843 C.3       3 GLC5        0.0000 
     68 CA         26.9020   38.2960    0.0120 C.3       9 GLL5        0.0000 
     69 CA         23.2130   38.9880   -1.3260 C.3       6 GLP5        0.0000 
     70 CA         28.3693   38.9505   -0.7152 C.3       3 GLC5        0.0000 
     71 CA         34.4575   31.8550   -2.7760 C.3       3 GLC5        0.0000 
     72 CA         34.2000   31.3480   -4.5850 C.3       6 GLP5        0.0000 
     73 CA         35.3845   29.7810    2.7713 C.3       3 GLC5        0.0000 
     74 CA         34.7730   29.5320    4.5340 C.3       6 GLP5        0.0000 
     75 CA         35.4778   26.0953   -0.6895 C.3       3 GLC5        0.0000 
     76 CA         35.9800   27.9230   -1.2870 C.3       9 GLL5        0.0000 
     77 CA         34.3170   24.4840   -0.1970 C.3       6 GLP5        0.0000 
     78 CA         38.5311   28.4599   -1.8930 C.3       3 GLC5        0.0000 
     79 CA         38.0880   28.0470   -0.0640 C.3       9 GLL5        0.0000 
     80 CA         39.6990   29.0430   -3.1630 C.3       6 GLP5        0.0000 
     81 CA         33.9791   35.5406    0.7366 C.3       3 GLC5        0.0000 
     82 CA         33.4220   33.6360   -0.4060 C.3       9 GLL5        0.0000 
     83 CA         35.2890   37.0770    0.9750 C.3       6 GLP5        0.0000 
@<TRIPOS>BOND
@<TRIPOS>SUBSTRUCTURE
     1 ALC1       26 GROUP        1 X    ALC  0     ROOT ALC X 1
     2 SEC2        1 GROUP        1 X    SEC  0     **** SEC X 2
     3 GLC5        4 GROUP        1 X    GLC  0     **** GLC X 6
     4 ALP1       28 GROUP        1 Y    ALP  0     ROOT ALP Y 8
     5 SEP2        3 GROUP        1 Y    SEP  0     **** SEP Y 9
     6 GLP5        6 GROUP        1 Y    GLP  0     **** GLP Y 13
     7 ALL1       27 GROUP        1 Z    ALL  0     ROOT ALL Z 15
     8 SEL2        2 GROUP        1 Z    SEL  0     **** SEL Z 16
     9 GLL5        5 GROUP        1 Z    GLL  0     **** GLL Z 20
@<TRIPOS>SET

