#    Name: 3zm6_2GN_1_ligand
#    Modification time : Tue Mar 25 03:40:29 2014

@<TRIPOS>MOLECULE
3zm6_2GN_1_ligand
   68    73     1     0     0
SMALL
NO_CHARGES


@<TRIPOS>ATOM
      1 O25        28.8350   40.2950    4.0350 O.2       1 2GN500      0.0000 
      2 S21        27.9670   40.6770    2.9610 S.o2      1 2GN500      0.0000 
      3 O24        28.3410   41.9140    2.3580 O.2       1 2GN500      0.0000 
      4 N23        26.4060   40.8590    3.6050 N.pl3     1 2GN500      0.0000 
      5 C28        26.0320   42.2320    3.9300 C.3       1 2GN500      0.0000 
      6 C30        24.5210   42.1240    3.9000 C.3       1 2GN500      0.0000 
      7 O31        24.0830   41.1800    4.8800 O.3       1 2GN500      0.0000 
      8 C29        24.5450   39.8570    4.5840 C.3       1 2GN500      0.0000 
      9 C27        26.0760   39.8720    4.6000 C.3       1 2GN500      0.0000 
     10 C18        27.8870   39.4450    1.8990 C.ar      1 2GN500      0.0000 
     11 C16        28.7780   38.4010    2.0730 C.ar      1 2GN500      0.0000 
     12 C22        26.9330   39.3770    0.8740 C.ar      1 2GN500      0.0000 
     13 CL2        25.7360   40.6340    0.5320 Cl        1 2GN500      0.0000 
     14 C19        26.9020   38.2960    0.0120 C.ar      1 2GN500      0.0000 
     15 C17        27.8130   37.2760    0.1490 C.ar      1 2GN500      0.0000 
     16 CL1        27.6890   35.9240   -0.9970 Cl        1 2GN500      0.0000 
     17 C14        28.7420   37.3140    1.1930 C.ar      1 2GN500      0.0000 
     18 C13        29.7780   36.2750    1.3660 C.2       1 2GN500      0.0000 
     19 O15        30.0090   35.8050    2.4660 O.2       1 2GN500      0.0000 
     20 N10        30.5810   35.9880    0.1880 N.am      1 2GN500      0.0000 
     21 C5         31.5640   35.0640    0.2900 C.2       1 2GN500      0.0000 
     22 C2         32.4070   34.6700   -0.7470 C.2       1 2GN500      0.0000 
     23 C6         32.3050   35.2280   -2.0370 C.1       1 2GN500      0.0000 
     24 N11        32.2390   35.7320   -3.0890 N.1       1 2GN500      0.0000 
     25 S7         32.0000   34.2250    1.7130 S.3       1 2GN500      0.0000 
     26 C3         33.2690   33.2890    0.9140 C.2       1 2GN500      0.0000 
     27 C8         34.0460   32.3210    1.7150 C.3       1 2GN500      0.0000 
     28 N12        34.9070   31.5690    0.8200 N.4       1 2GN500      0.0000 
     29 C9         34.9850   31.7280   -0.6370 C.3       1 2GN500      0.0000 
     30 C4         34.4450   32.9960   -1.2970 C.3       1 2GN500      0.0000 
     31 C1         33.4220   33.6360   -0.4060 C.2       1 2GN500      0.0000 
     32 C32        35.7400   30.5780    1.4710 C.3       1 2GN500      0.0000 
     33 C33        36.2520   29.4820    0.5460 C.ar      1 2GN500      0.0000 
     34 C38        35.4630   28.9210   -0.4630 C.ar      1 2GN500      0.0000 
     35 C37        35.9800   27.9230   -1.2870 C.ar      1 2GN500      0.0000 
     36 C36        37.2970   27.4900   -1.0770 C.ar      1 2GN500      0.0000 
     37 C35        38.0880   28.0470   -0.0640 C.ar      1 2GN500      0.0000 
     38 C34        37.5650   29.0460    0.7450 C.ar      1 2GN500      0.0000 
     39 C06        37.9100   26.4310   -1.9350 C.2       1 2GN500      0.0000 
     40 N01        37.7560   26.3410   -3.2820 N.2       1 2GN500      0.0000 
     41 N02        38.7360   25.4450   -1.5060 N.2       1 2GN500      0.0000 
     42 N05        39.1220   24.6740   -2.6130 N.2       1 2GN500      0.0000 
     43 N04        38.4970   25.2370   -3.7380 N.pl3     1 2GN500      0.0000 
     44 H          26.3484   42.9088    3.1810 H         1 2GN500      0.0000 
     45 H          26.3434   42.4993    4.9050 H         1 2GN500      0.0000 
     46 H          24.2211   41.8227    2.8882 H         1 2GN500      0.0000 
     47 H          24.1044   43.1219    4.0875 H         1 2GN500      0.0000 
     48 H          24.2240   39.5258    3.5978 H         1 2GN500      0.0000 
     49 H          24.2098   39.1342    5.3259 H         1 2GN500      0.0000 
     50 H          26.4001   40.1603    5.5765 H         1 2GN500      0.0000 
     51 H          26.4255   38.8982    4.3329 H         1 2GN500      0.0000 
     52 H          29.4599   38.4171    2.8364 H         1 2GN500      0.0000 
     53 H          26.1900   38.2585   -0.7364 H         1 2GN500      0.0000 
     54 H          30.3726   36.4925   -0.6658 H         1 2GN500      0.0000 
     55 H          33.3617   31.6507    2.2419 H         1 2GN500      0.0000 
     56 H          34.6411   32.8573    2.4589 H         1 2GN500      0.0000 
     57 H          35.9583   32.5424    1.0042 H         1 2GN500      0.0000 
     58 H          34.4751   30.8460   -1.1409 H         1 2GN500      0.0000 
     59 H          36.0647   31.6107   -0.9724 H         1 2GN500      0.0000 
     60 H          33.9953   32.7325   -2.2514 H         1 2GN500      0.0000 
     61 H          35.2705   33.6825   -1.4696 H         1 2GN500      0.0000 
     62 H          35.1871   30.0871    2.3039 H         1 2GN500      0.0000 
     63 H          36.6242   31.0602    1.9463 H         1 2GN500      0.0000 
     64 H          34.4968   29.2478   -0.5960 H         1 2GN500      0.0000 
     65 H          35.4158   27.5140   -2.0278 H         1 2GN500      0.0000 
     66 H          39.0474   27.7145    0.0744 H         1 2GN500      0.0000 
     67 H          38.1357   29.4653    1.4867 H         1 2GN500      0.0000 
     68 H          38.5611   24.9362   -4.6193 H         1 2GN500      0.0000 
@<TRIPOS>BOND
     1    2    1 2    
     2    3    2 2    
     3    4    2 1    
     4   10    2 1    
     5    5    4 1    
     6    9    4 1    
     7    6    5 1    
     8   44    5 1    
     9   45    5 1    
    10    7    6 1    
    11   46    6 1    
    12   47    6 1    
    13    8    7 1    
    14    9    8 1    
    15   48    8 1    
    16   49    8 1    
    17   50    9 1    
    18   51    9 1    
    19   11   10 ar   
    20   12   10 ar   
    21   17   11 ar   
    22   52   11 1    
    23   13   12 1    
    24   14   12 ar   
    25   15   14 ar   
    26   53   14 1    
    27   16   15 1    
    28   17   15 ar   
    29   18   17 1    
    30   19   18 2    
    31   20   18 am   
    32   21   20 1    
    33   54   20 1    
    34   22   21 2    
    35   25   21 1    
    36   23   22 1    
    37   31   22 1    
    38   24   23 3    
    39   26   25 1    
    40   27   26 1    
    41   31   26 2    
    42   28   27 1    
    43   55   27 1    
    44   56   27 1    
    45   29   28 1    
    46   32   28 1    
    47   57   28 1    
    48   30   29 1    
    49   58   29 1    
    50   59   29 1    
    51   31   30 1    
    52   60   30 1    
    53   61   30 1    
    54   33   32 1    
    55   62   32 1    
    56   63   32 1    
    57   34   33 ar   
    58   38   33 ar   
    59   35   34 ar   
    60   64   34 1    
    61   36   35 ar   
    62   65   35 1    
    63   37   36 ar   
    64   39   36 1    
    65   38   37 ar   
    66   66   37 1    
    67   67   38 1    
    68   40   39 2    
    69   41   39 1    
    70   43   40 1    
    71   42   41 2    
    72   43   42 1    
    73   68   43 1    
@<TRIPOS>SUBSTRUCTURE
     1 2GN500      1 GROUP   
@<TRIPOS>SET

