#    Name: 3b66_B66_1_INTS_M
#    Modification time : Mon Mar 24 18:53:56 2014

@<TRIPOS>MOLECULE
3b66_B66_1_INTS_M
   90     0     9     0     0
SMALL
NO_CHARGES


@<TRIPOS>ATOM
      1 N          26.8240    2.3695   11.8355 N.am      2 SEC2        0.0000 
      2 N          28.2450    1.5410   12.1200 N.am      8 SEL2        0.0000 
      3 N          25.4030    3.1980   11.5510 N.am      5 SEP2        0.0000 
      4 CA         31.7730   -1.0960    9.7045 C.3       3 GLC5        0.0000 
      5 CA         30.3220    0.0360    9.4960 C.3       9 GLL5        0.0000 
      6 CA         33.2240   -2.2280    9.9130 C.3       6 GLP5        0.0000 
      7 CA         32.0910   -1.0180    8.2860 C.3       3 GLC5        0.0000 
      8 CA         30.5480    0.1870    8.1310 C.3       9 GLL5        0.0000 
      9 CA         33.6340   -2.2230    8.4410 C.3       6 GLP5        0.0000 
     10 CA         28.3545   -0.1280    6.4970 C.3       3 GLC5        0.0000 
     11 CA         30.1390    0.1900    5.3060 C.3       9 GLL5        0.0000 
     12 CA         26.5700   -0.4460    7.6880 C.3       6 GLP5        0.0000 
     13 CA         30.5475   -1.3410    6.0390 C.3       3 GLC5        0.0000 
     14 CA         30.9560   -2.8720    6.7720 C.3       6 GLP5        0.0000 
     15 CA         31.9395    0.8735    5.8670 C.3       3 GLC5        0.0000 
     16 CA         33.7400    1.5570    6.4280 C.3       6 GLP5        0.0000 
     17 N          31.9645    0.9135    3.1930 N.am      2 SEC2        0.0000 
     18 N          30.7790    1.4060    3.3330 N.am      8 SEL2        0.0000 
     19 N          33.1500    0.4210    3.0530 N.am      5 SEP2        0.0000 
     20 CA         30.2015   -1.3280    1.3420 C.3       3 GLC5        0.0000 
     21 CA         29.6010   -0.7010    3.0400 C.3       9 GLL5        0.0000 
     22 CA         30.8020   -1.9550   -0.3560 C.3       6 GLP5        0.0000 
     23 CA         27.7510   -1.2505    2.2070 C.3       3 GLC5        0.0000 
     24 CA         25.9010   -1.8000    1.3740 C.3       6 GLP5        0.0000 
     25 CA         29.0555   -2.5750    2.1875 C.3       3 GLC5        0.0000 
     26 CA         28.5100   -4.4490    1.3350 C.3       6 GLP5        0.0000 
     27 O          29.8300    3.6000    3.0885 O.2       1 ALC1        0.0000 
     28 O          28.5940    2.6500    3.7080 O.2       7 ALL1        0.0000 
     29 O          31.0660    4.5500    2.4690 O.2       4 ALP1        0.0000 
     30 CA         25.8075    2.0840    5.7520 C.3       3 GLC5        0.0000 
     31 CA         26.2820    3.2660    3.9120 C.3       9 GLL5        0.0000 
     32 CA         25.3330    0.9020    7.5920 C.3       6 GLP5        0.0000 
     33 CA         24.5630    6.5950    5.6035 C.3       3 GLC5        0.0000 
     34 CA         24.7650    6.6620    3.6250 C.3       9 GLL5        0.0000 
     35 CA         24.3610    6.5280    7.5820 C.3       6 GLP5        0.0000 
     36 CA         22.9880    6.9935    2.6495 C.3       3 GLC5        0.0000 
     37 CA         21.2110    7.3250    1.6740 C.3       6 GLP5        0.0000 
     38 CA         24.5840    5.9350    1.9245 C.3       3 GLC5        0.0000 
     39 CA         24.4030    5.2080    0.2240 C.3       6 GLP5        0.0000 
     40 N          23.4945    8.9175    3.2510 N.am      2 SEC2        0.0000 
     41 N          24.0390    7.5380    3.5940 N.am      8 SEL2        0.0000 
     42 N          22.9500   10.2970    2.9080 N.am      5 SEP2        0.0000 
     43 CA         26.2550    4.6120    5.8010 C.3       3 GLC5        0.0000 
     44 CA         25.2890    4.2470    3.8990 C.3       9 GLL5        0.0000 
     45 CA         27.2210    4.9770    7.7030 C.3       6 GLP5        0.0000 
     46 CA         24.4460    2.4795    6.5360 C.3       3 GLC5        0.0000 
     47 CA         23.5590    4.0570    5.4800 C.3       9 GLL5        0.0000 
     48 CA         21.6190    4.6935    5.0615 C.3       3 GLC5        0.0000 
     49 CA         22.9440    4.5270    3.4710 C.3       9 GLL5        0.0000 
     50 CA         20.2940    4.8600    6.6520 C.3       6 GLP5        0.0000 
     51 CA         21.6100    4.6560    2.2720 C.3       3 GLC5        0.0000 
     52 CA         20.2760    4.7850    1.0730 C.3       6 GLP5        0.0000 
     53 CA         24.4620    1.7335    5.7660 C.3       3 GLC5        0.0000 
     54 CA         23.5910    2.5650    3.9400 C.3       9 GLL5        0.0000 
     55 CA         23.0585    1.1240    4.6790 C.3       3 GLC5        0.0000 
     56 CA         22.5260   -0.3170    5.4180 C.3       6 GLP5        0.0000 
     57 CA         27.7265    0.7518    8.2240 C.3       3 GLC5        0.0000 
     58 CA         28.9970    2.0250    8.0780 C.3       9 GLL5        0.0000 
     59 CA         28.0520    3.4633    8.2315 C.3       3 GLC5        0.0000 
     60 CA         31.1507    2.3723    7.1795 C.3       3 GLC5        0.0000 
     61 CA         32.8600    3.1410    6.6120 C.3       6 GLP5        0.0000 
     62 CA         28.2233    0.0057    8.7570 C.3       3 GLC5        0.0000 
     63 CA         32.3265    0.6918    8.4753 C.3       3 GLC5        0.0000 
     64 CA         34.2180    1.2720    8.1370 C.3       6 GLP5        0.0000 
     65 CA         28.3935    0.1192    7.7307 C.3       3 GLC5        0.0000 
     66 CA         30.5583   -1.1126    7.4434 C.3       3 GLC5        0.0000 
     67 CA         29.8860    1.1820    7.4160 C.3       9 GLL5        0.0000 
     68 CA         29.5045    1.6099    1.8749 C.3       3 GLC5        0.0000 
     69 CA         29.7610    0.5660    3.8830 C.3       9 GLL5        0.0000 
     70 CA         29.9460    2.5810    0.0570 C.3       6 GLP5        0.0000 
     71 CA         27.7613    3.9150    1.5495 C.3       3 GLC5        0.0000 
     72 CA         27.6250    3.5650    3.6920 C.3       9 GLL5        0.0000 
     73 CA         27.7130    3.6060   -0.4720 C.3       6 GLP5        0.0000 
     74 CA         27.7863    6.9070    2.1477 C.3       3 GLC5        0.0000 
     75 CA         27.9940    4.8830    3.4500 C.3       9 GLL5        0.0000 
     76 CA         28.0640    8.4340    0.8550 C.3       6 GLP5        0.0000 
     77 CA         29.1302    5.8330    4.5032 C.3       3 GLC5        0.0000 
     78 CA         27.0230    5.8770    3.4310 C.3       9 GLL5        0.0000 
     79 CA         30.7520    6.2860    5.5660 C.3       6 GLP5        0.0000 
     80 CA         27.3474    4.5631    5.6645 C.3       3 GLC5        0.0000 
     81 CA         26.7430    6.2220    5.4518 C.3       3 GLC5        0.0000 
     82 CA         27.1320    6.7230    7.3610 C.3       6 GLP5        0.0000 
     83 CA         24.0278    5.2405    6.2098 C.3       3 GLC5        0.0000 
     84 CA         22.3208    3.1925    5.8868 C.3       3 GLC5        0.0000 
     85 CA         20.9470    2.4320    6.9360 C.3       6 GLP5        0.0000 
     86 CA         22.6557    2.1843    5.4435 C.3       3 GLC5        0.0000 
     87 CA         23.6940    3.6398    2.0708 C.3       3 GLC5        0.0000 
     88 CA         23.8990    3.9030    0.2550 C.3       6 GLP5        0.0000 
     89 CA         21.8015    2.6292    3.4447 C.3       3 GLC5        0.0000 
     90 CA         20.1140    1.8820    3.0030 C.3       6 GLP5        0.0000 
@<TRIPOS>BOND
@<TRIPOS>SUBSTRUCTURE
     1 ALC1       27 GROUP        1 X    ALC  0     ROOT ALC X 1
     2 SEC2        1 GROUP        1 X    SEC  0     **** SEC X 2
     3 GLC5        4 GROUP        1 X    GLC  0     **** GLC X 6
     4 ALP1       29 GROUP        1 Y    ALP  0     ROOT ALP Y 8
     5 SEP2        3 GROUP        1 Y    SEP  0     **** SEP Y 9
     6 GLP5        6 GROUP        1 Y    GLP  0     **** GLP Y 13
     7 ALL1       28 GROUP        1 Z    ALL  0     ROOT ALL Z 15
     8 SEL2        2 GROUP        1 Z    SEL  0     **** SEL Z 16
     9 GLL5        5 GROUP        1 Z    GLL  0     **** GLL Z 20
@<TRIPOS>SET

