#    Name: 3b66_B66_1_ligand
#    Modification time : Mon Mar 24 18:53:56 2014

@<TRIPOS>MOLECULE
3b66_B66_1_ligand
   45    46     1     0     0
SMALL
NO_CHARGES


@<TRIPOS>ATOM
      1 C17        28.9970    2.0250    8.0780 C.ar      1 B661        0.0000 
      2 C18        28.7690    1.8740    9.4420 C.ar      1 B661        0.0000 
      3 C21        29.4310    0.8790   10.1560 C.ar      1 B661        0.0000 
      4 N19        29.1910    0.7140   11.4540 N.pl3     1 B661        0.0000 
      5 O20        29.9060   -0.2640   12.1960 O.2       1 B661        0.0000 
      6 O19        28.2450    1.5410   12.1200 O.2       1 B661        0.0000 
      7 C20        30.3220    0.0360    9.4960 C.ar      1 B661        0.0000 
      8 C19        30.5480    0.1870    8.1310 C.ar      1 B661        0.0000 
      9 C16        29.8860    1.1820    7.4160 C.ar      1 B661        0.0000 
     10 O14        30.1260    1.3920    6.0930 O.3       1 B661        0.0000 
     11 C13        30.1390    0.1900    5.3060 C.3       1 B661        0.0000 
     12 C11        29.7610    0.5660    3.8830 C.3       1 B661        0.0000 
     13 O11        30.7790    1.4060    3.3330 O.3       1 B661        0.0000 
     14 C12        29.6010   -0.7010    3.0400 C.3       1 B661        0.0000 
     15 C10        28.4450    1.3450    3.9240 C.3       1 B661        0.0000 
     16 O10        27.3800    0.7850    4.1810 O.3       1 B661        0.0000 
     17 N9         28.5940    2.6500    3.7080 N.pl3     1 B661        0.0000 
     18 C6         27.6250    3.5650    3.6920 C.ar      1 B661        0.0000 
     19 C5         26.2820    3.2660    3.9120 C.ar      1 B661        0.0000 
     20 C1         27.9940    4.8830    3.4500 C.ar      1 B661        0.0000 
     21 C2         27.0230    5.8770    3.4310 C.ar      1 B661        0.0000 
     22 C3         25.6850    5.5650    3.6540 C.ar      1 B661        0.0000 
     23 C8         24.7650    6.6620    3.6250 C.1       1 B661        0.0000 
     24 N8         24.0390    7.5380    3.5940 N.1       1 B661        0.0000 
     25 C4         25.2890    4.2470    3.8990 C.ar      1 B661        0.0000 
     26 C7         23.8300    3.8490    4.1950 C.3       1 B661        0.0000 
     27 F2         23.5590    4.0570    5.4800 F         1 B661        0.0000 
     28 F3         22.9440    4.5270    3.4710 F         1 B661        0.0000 
     29 F1         23.5910    2.5650    3.9400 F         1 B661        0.0000 
     30 H          28.5060    2.7640    7.5544 H         1 B661        0.0000 
     31 H          28.1094    2.4992    9.9249 H         1 B661        0.0000 
     32 H          30.8144   -0.7005   10.0196 H         1 B661        0.0000 
     33 H          31.2070   -0.4391    7.6476 H         1 B661        0.0000 
     34 H          29.4164   -0.5363    5.6705 H         1 B661        0.0000 
     35 H          31.1255   -0.2671    5.2877 H         1 B661        0.0000 
     36 H          28.3254    1.1085    2.5127 H         1 B661        0.0000 
     37 H          29.6095    3.0065    3.5260 H         1 B661        0.0000 
     38 H          26.0083    2.2762    4.0926 H         1 B661        0.0000 
     39 H          28.9788    5.1209    3.2861 H         1 B661        0.0000 
     40 H          27.2956    6.8562    3.2499 H         1 B661        0.0000 
     41 H          30.4472   -1.2327    3.0043 H         1 B661        0.0000 
     42 H          28.8916   -1.3034    3.4059 H         1 B661        0.0000 
     43 H          29.3477   -0.4895    2.0960 H         1 B661        0.0000 
     44 H          30.7439    1.2433    2.3469 H         1 B661        0.0000 
     45 H          27.1762    1.0382    5.1267 H         1 B661        0.0000 
@<TRIPOS>BOND
     1    2    1 ar   
     2    9    1 ar   
     3   30    1 1    
     4    3    2 ar   
     5   31    2 1    
     6    4    3 1    
     7    7    3 ar   
     8    5    4 2    
     9    6    4 2    
    10    8    7 ar   
    11   32    7 1    
    12    9    8 ar   
    13   33    8 1    
    14   10    9 1    
    15   11   10 1    
    16   12   11 1    
    17   34   11 1    
    18   35   11 1    
    19   13   12 1    
    20   14   12 1    
    21   15   12 1    
    22   44   13 1    
    23   41   14 1    
    24   42   14 1    
    25   43   14 1    
    26   16   15 1    
    27   17   15 1    
    28   36   15 1    
    29   45   16 1    
    30   18   17 1    
    31   37   17 1    
    32   19   18 ar   
    33   20   18 ar   
    34   25   19 ar   
    35   38   19 1    
    36   21   20 ar   
    37   39   20 1    
    38   22   21 ar   
    39   40   21 1    
    40   23   22 1    
    41   25   22 ar   
    42   24   23 3    
    43   26   25 1    
    44   27   26 1    
    45   28   26 1    
    46   29   26 1    
@<TRIPOS>SUBSTRUCTURE
     1 B661        1 GROUP   
@<TRIPOS>SET

