#    Name: 3tky_SAH_2_INTS_M
#    Modification time : Mon Mar 24 20:16:16 2014

@<TRIPOS>MOLECULE
3tky_SAH_2_INTS_M
   72     0     9     0     0
SMALL
NO_CHARGES


@<TRIPOS>ATOM
      1 O         -12.7670   -3.9575   44.4545 O.2       1 ALC1        0.0000 
      2 O         -11.8560   -2.9060   44.1980 O.2       7 ALL1        0.0000 
      3 O         -13.6780   -5.0090   44.7110 O.2       4 ALP1        0.0000 
      4 CA        -10.7885   -4.4665   43.9170 C.3       3 GLC5        0.0000 
      5 CA        -10.5750   -2.3740   43.6110 C.3       9 GLL5        0.0000 
      6 CA        -11.0020   -6.5590   44.2230 C.3       6 GLP5        0.0000 
      7 CA        -10.1600   -3.3185   41.7070 C.3       3 GLC5        0.0000 
      8 CA         -9.7450   -4.2630   39.8030 C.3       6 GLP5        0.0000 
      9 CA         -9.7085   -2.5480   40.8940 C.3       3 GLC5        0.0000 
     10 CA         -9.6720   -0.8330   41.9850 C.3       9 GLL5        0.0000 
     11 CA         -7.7430   -1.1310   42.1330 C.3       3 GLC5        0.0000 
     12 CA         -5.8140   -1.4290   42.2810 C.3       6 GLP5        0.0000 
     13 CA        -11.1660    1.7425   39.9985 C.3       3 GLC5        0.0000 
     14 CA        -10.0420    0.3560   40.7260 C.3       9 GLL5        0.0000 
     15 CA        -12.2900    3.1290   39.2710 C.3       6 GLP5        0.0000 
     16 CA        -11.9585   -0.1775   40.6605 C.3       3 GLC5        0.0000 
     17 CA        -13.8750   -0.7110   40.5950 C.3       6 GLP5        0.0000 
     18 N          -9.6155   -2.8480   46.4880 N.am      2 SEC2        0.0000 
     19 N          -9.8320   -1.7960   45.7720 N.am      8 SEL2        0.0000 
     20 N          -9.3990   -3.9000   47.2040 N.am      5 SEP2        0.0000 
     21 N          -8.8920   -3.2950   45.8715 N.am      2 SEC2        0.0000 
     22 N          -8.3850   -2.6900   44.5390 N.am      8 SEL2        0.0000 
     23 CA         -7.9735    2.4960   39.2125 C.3       3 GLC5        0.0000 
     24 CA         -8.3920    1.0650   40.6100 C.3       9 GLL5        0.0000 
     25 CA         -7.5550    3.9270   37.8150 C.3       6 GLP5        0.0000 
     26 CA        -10.4760    3.3865   41.3660 C.3       3 GLC5        0.0000 
     27 CA         -8.6830    3.0560   42.2060 C.3       9 GLL5        0.0000 
     28 CA        -12.2690    3.7170   40.5260 C.3       6 GLP5        0.0000 
     29 O          -8.3695    3.0190   44.6485 O.2       1 ALC1        0.0000 
     30 O          -9.1550    2.9110   43.5410 O.2       7 ALL1        0.0000 
     31 O          -7.5840    3.1270   45.7560 O.2       4 ALP1        0.0000 
     32 O          -7.2460    5.1915   44.0880 O.2       1 ALC1        0.0000 
     33 O          -7.7980    5.2640   42.9510 O.2       7 ALL1        0.0000 
     34 O          -6.6940    5.1190   45.2250 O.2       4 ALP1        0.0000 
     35 CA         -5.7350    2.0110   43.8800 C.3       3 GLC5        0.0000 
     36 CA         -6.3600    3.3900   42.5140 C.3       9 GLL5        0.0000 
     37 CA         -5.1100    0.6320   45.2460 C.3       6 GLP5        0.0000 
     38 CA         -4.1430    6.1985   41.8860 C.3       3 GLC5        0.0000 
     39 CA         -3.0960    4.7740   41.6730 C.3       9 GLL5        0.0000 
     40 CA         -5.1900    7.6230   42.0990 C.3       6 GLP5        0.0000 
     41 CA         -2.1095    3.1535   41.7270 C.3       3 GLC5        0.0000 
     42 CA         -1.1230    1.5330   41.7810 C.3       6 GLP5        0.0000 
     43 CA         -2.3870    6.6645   42.7435 C.3       3 GLC5        0.0000 
     44 CA         -1.7640    5.1080   42.2070 C.3       9 GLL5        0.0000 
     45 CA         -3.0100    8.2210   43.2800 C.3       6 GLP5        0.0000 
     46 CA         -0.3590    6.0085   43.5295 C.3       3 GLC5        0.0000 
     47 CA          1.0460    6.9090   44.8520 C.3       6 GLP5        0.0000 
     48 CA         -0.6920    3.7645   42.2180 C.3       3 GLC5        0.0000 
     49 CA          0.3800    2.4210   42.2290 C.3       6 GLP5        0.0000 
     50 O           0.6210    6.0660   41.8400 O.2       1 ALC1        0.0000 
     51 O          -0.8050    5.6620   41.4170 O.2       7 ALL1        0.0000 
     52 O           2.0470    6.4700   42.2630 O.2       4 ALP1        0.0000 
     53 N          -0.1255    4.7075   43.8735 N.am      2 SEC2        0.0000 
     54 N          -1.5290    4.8730   43.5160 N.am      8 SEL2        0.0000 
     55 N           1.2780    4.5420   44.2310 N.am      5 SEP2        0.0000 
     56 CA         -3.6545    4.4540   45.9115 C.3       3 GLC5        0.0000 
     57 CA         -2.4330    4.3370   44.3580 C.3       9 GLL5        0.0000 
     58 CA         -4.8760    4.5710   47.4650 C.3       6 GLP5        0.0000 
     59 CA         -3.4270    6.0130   43.9185 C.3       3 GLC5        0.0000 
     60 CA         -4.4210    7.6890   43.4790 C.3       6 GLP5        0.0000 
     61 CA         -0.6935    5.6230   44.6050 C.3       3 GLC5        0.0000 
     62 CA         -2.1725    2.8575   43.8535 C.3       3 GLC5        0.0000 
     63 CA         -1.9120    1.3780   43.3490 C.3       6 GLP5        0.0000 
     64 CA         -4.2265    5.9385   43.0535 C.3       3 GLC5        0.0000 
     65 CA         -4.0320    4.1880   42.6280 C.3       9 GLL5        0.0000 
     66 CA         -2.9720    2.7830   42.9885 C.3       3 GLC5        0.0000 
     67 CA        -12.0213   -0.7960   41.5757 C.3       3 GLC5        0.0000 
     68 CA         -6.9917   -0.0098   41.7722 C.3       3 GLC5        0.0000 
     69 CA         -8.3053    4.1607   40.3443 C.3       3 GLC5        0.0000 
     70 CA         -8.4690    4.7250   38.5400 C.3       6 GLP5        0.0000 
     71 CA         -6.0850    5.6932   42.2007 C.3       3 GLC5        0.0000 
     72 CA         -7.6000    4.1370   42.0910 C.3       9 GLL5        0.0000 
@<TRIPOS>BOND
@<TRIPOS>SUBSTRUCTURE
     1 ALC1        1 GROUP        1 X    ALC  0     ROOT ALC X 1
     2 SEC2       18 GROUP        1 X    SEC  0     **** SEC X 2
     3 GLC5        4 GROUP        1 X    GLC  0     **** GLC X 6
     4 ALP1        3 GROUP        1 Y    ALP  0     ROOT ALP Y 8
     5 SEP2       20 GROUP        1 Y    SEP  0     **** SEP Y 9
     6 GLP5        6 GROUP        1 Y    GLP  0     **** GLP Y 13
     7 ALL1        2 GROUP        1 Z    ALL  0     ROOT ALL Z 15
     8 SEL2       19 GROUP        1 Z    SEL  0     **** SEL Z 16
     9 GLL5        5 GROUP        1 Z    GLL  0     **** GLL Z 20
@<TRIPOS>SET

