#    Name: 3tky_SAH_2_ligand
#    Modification time : Mon Mar 24 20:16:16 2014

@<TRIPOS>MOLECULE
3tky_SAH_2_ligand
   46    48     1     0     0
SMALL
NO_CHARGES


@<TRIPOS>ATOM
      1 N         -11.8560   -2.9060   44.1980 N.4       1 SAH370      0.0000 
      2 CA        -10.5750   -2.3740   43.6110 C.3       1 SAH370      0.0000 
      3 CB        -10.6630   -0.9290   43.1280 C.3       1 SAH370      0.0000 
      4 CG         -9.6720   -0.8330   41.9850 C.3       1 SAH370      0.0000 
      5 SD        -10.0420    0.3560   40.7260 S.3       1 SAH370      0.0000 
      6 C          -9.5410   -2.2930   44.6810 C.2       1 SAH370      0.0000 
      7 O          -9.8320   -1.7960   45.7720 O.co2     1 SAH370      0.0000 
      8 OXT        -8.3850   -2.6900   44.5390 O.co2     1 SAH370      0.0000 
      9 C5'        -8.3920    1.0650   40.6100 C.3       1 SAH370      0.0000 
     10 C4'        -7.9470    1.7540   41.9170 C.3       1 SAH370      0.0000 
     11 O4'        -6.5580    2.1200   41.8910 O.3       1 SAH370      0.0000 
     12 C3'        -8.6830    3.0560   42.2060 C.3       1 SAH370      0.0000 
     13 O3'        -9.1550    2.9110   43.5410 O.3       1 SAH370      0.0000 
     14 C2'        -7.6000    4.1370   42.0910 C.3       1 SAH370      0.0000 
     15 O2'        -7.7980    5.2640   42.9510 O.3       1 SAH370      0.0000 
     16 C1'        -6.3600    3.3900   42.5140 C.3       1 SAH370      0.0000 
     17 N9         -5.1530    3.9920   41.9420 N.pl3     1 SAH370      0.0000 
     18 C8         -4.9690    4.3880   40.6550 C.2       1 SAH370      0.0000 
     19 N7         -3.7230    4.8720   40.4690 N.2       1 SAH370      0.0000 
     20 C5         -3.0960    4.7740   41.6730 C.ar      1 SAH370      0.0000 
     21 C6         -1.7640    5.1080   42.2070 C.ar      1 SAH370      0.0000 
     22 N6         -0.8050    5.6620   41.4170 N.pl3     1 SAH370      0.0000 
     23 N1         -1.5290    4.8730   43.5160 N.ar      1 SAH370      0.0000 
     24 C2         -2.4330    4.3370   44.3580 C.ar      1 SAH370      0.0000 
     25 N3         -3.6580    4.0060   43.9360 N.ar      1 SAH370      0.0000 
     26 C4         -4.0320    4.1880   42.6280 C.ar      1 SAH370      0.0000 
     27 H         -10.2157   -2.9833   42.8275 H         1 SAH370      0.0000 
     28 H         -10.3757   -0.2701   43.9165 H         1 SAH370      0.0000 
     29 H         -11.6495   -0.7297   42.7736 H         1 SAH370      0.0000 
     30 H          -9.5841   -1.7659   41.4218 H         1 SAH370      0.0000 
     31 H          -8.6728   -0.5364   42.3151 H         1 SAH370      0.0000 
     32 H          -8.4815    1.7464   39.7880 H         1 SAH370      0.0000 
     33 H          -7.7853    0.2191   40.3561 H         1 SAH370      0.0000 
     34 H          -8.1331    1.0821   42.7492 H         1 SAH370      0.0000 
     35 H          -9.4179    3.1950   41.4951 H         1 SAH370      0.0000 
     36 H          -7.4921    4.3910   41.0643 H         1 SAH370      0.0000 
     37 H          -6.3290    3.3110   43.5498 H         1 SAH370      0.0000 
     38 H          -5.6553    4.3278   39.9565 H         1 SAH370      0.0000 
     39 H          -1.1306    6.2490   40.6757 H         1 SAH370      0.0000 
     40 H           0.1409    5.4335   41.6472 H         1 SAH370      0.0000 
     41 H          -2.1673    4.1777   45.3631 H         1 SAH370      0.0000 
     42 H         -11.9121   -2.7366   45.1820 H         1 SAH370      0.0000 
     43 H         -12.6599   -2.4816   43.7812 H         1 SAH370      0.0000 
     44 H         -11.9436   -3.8933   44.0651 H         1 SAH370      0.0000 
     45 H          -8.3533    3.0692   44.1174 H         1 SAH370      0.0000 
     46 H          -7.7608    4.8915   43.8783 H         1 SAH370      0.0000 
@<TRIPOS>BOND
     1    2    1 1    
     2   42    1 1    
     3   43    1 1    
     4   44    1 1    
     5    3    2 1    
     6    6    2 1    
     7   27    2 1    
     8    4    3 1    
     9   28    3 1    
    10   29    3 1    
    11    5    4 1    
    12   30    4 1    
    13   31    4 1    
    14    9    5 1    
    15    7    6 ar   
    16    8    6 ar   
    17   10    9 1    
    18   32    9 1    
    19   33    9 1    
    20   11   10 1    
    21   12   10 1    
    22   34   10 1    
    23   16   11 1    
    24   13   12 1    
    25   14   12 1    
    26   35   12 1    
    27   45   13 1    
    28   15   14 1    
    29   16   14 1    
    30   36   14 1    
    31   46   15 1    
    32   17   16 1    
    33   37   16 1    
    34   18   17 1    
    35   26   17 1    
    36   19   18 2    
    37   38   18 1    
    38   20   19 1    
    39   21   20 ar   
    40   26   20 ar   
    41   22   21 1    
    42   23   21 ar   
    43   39   22 1    
    44   40   22 1    
    45   24   23 ar   
    46   25   24 ar   
    47   41   24 1    
    48   26   25 ar   
@<TRIPOS>SUBSTRUCTURE
     1 SAH370      1 GROUP   
@<TRIPOS>SET

