#    Name: 3igg_EFQ_1_INTS_M
#    Modification time : Tue Mar 25 16:30:35 2014

@<TRIPOS>MOLECULE
3igg_EFQ_1_INTS_M
   58     0     9     0     0
SMALL
NO_CHARGES


@<TRIPOS>ATOM
      1 CA         -2.3910   33.4670    8.1105 C.3       3 GLC5        0.0000 
      2 CA         -1.4530   31.8920    8.6890 C.3       9 GLL5        0.0000 
      3 CA         -3.3290   35.0420    7.5320 C.3       6 GLP5        0.0000 
      4 N          -4.4605   29.4460   11.8130 N.am      2 SEC2        0.0000 
      5 N          -3.1600   30.3130   11.1490 N.am      8 SEL2        0.0000 
      6 N          -5.7610   28.5790   12.4770 N.am      5 SEP2        0.0000 
      7 O          -3.6865   30.9325   12.2280 O.2       1 ALC1        0.0000 
      8 O          -3.1600   30.3130   11.1490 O.2       7 ALL1        0.0000 
      9 O          -4.2130   31.5520   13.3070 O.2       4 ALP1        0.0000 
     10 O          -3.6550   29.9775   12.7500 O.2       1 ALC1        0.0000 
     11 O          -4.1500   29.6420   14.3510 O.2       4 ALP1        0.0000 
     12 N           2.7070   33.0500    6.4445 N.am      2 SEC2        0.0000 
     13 N           1.6810   32.1370    7.0490 N.am      8 SEL2        0.0000 
     14 N           3.7330   33.9630    5.8400 N.am      5 SEP2        0.0000 
     15 O           3.9875   30.7835    6.5345 O.2       1 ALC1        0.0000 
     16 O           2.9960   30.0580    7.1750 O.2       7 ALL1        0.0000 
     17 O           4.9790   31.5090    5.8940 O.2       4 ALP1        0.0000 
     18 CA         -2.6805   29.3510    7.5560 C.3       3 GLC5        0.0000 
     19 CA         -2.4830   30.7350    8.7410 C.3       9 GLL5        0.0000 
     20 CA         -2.8780   27.9670    6.3710 C.3       6 GLP5        0.0000 
     21 CA         -0.9615   33.9630   10.2325 C.3       3 GLC5        0.0000 
     22 CA         -1.4590   31.8270   10.2650 C.3       9 GLL5        0.0000 
     23 CA         -0.4640   36.0990   10.2000 C.3       6 GLP5        0.0000 
     24 CA         -0.8910   32.2765   11.9015 C.3       3 GLC5        0.0000 
     25 CA         -0.3230   32.7260   13.5380 C.3       6 GLP5        0.0000 
     26 CA          5.2230   28.0805    9.7165 C.3       3 GLC5        0.0000 
     27 CA          4.6330   28.3980    7.5700 C.3       9 GLL5        0.0000 
     28 CA          5.8130   27.7630   11.8630 C.3       6 GLP5        0.0000 
     29 CA          4.2315   29.5305    9.3775 C.3       3 GLC5        0.0000 
     30 CA          3.8300   30.6630   11.1850 C.3       6 GLP5        0.0000 
     31 CA          6.1385   29.5815    5.0300 C.3       3 GLC5        0.0000 
     32 CA          4.7770   27.9140    5.1070 C.3       9 GLL5        0.0000 
     33 CA          7.5000   31.2490    4.9530 C.3       6 GLP5        0.0000 
     34 CA          2.3855   24.8260    5.0860 C.3       3 GLC5        0.0000 
     35 CA          4.3690   25.1890    5.5890 C.3       9 GLL5        0.0000 
     36 CA          0.4020   24.4630    4.5830 C.3       6 GLP5        0.0000 
     37 CA         -1.8920   31.5427    6.9500 C.3       3 GLC5        0.0000 
     38 CA         -1.8160   31.7720    5.1850 C.3       6 GLP5        0.0000 
     39 CA          0.5020   32.2418    9.9265 C.3       3 GLC5        0.0000 
     40 CA          2.4600   32.6240   10.3760 C.3       6 GLP5        0.0000 
     41 CA          0.7790   29.5160    6.1400 C.3       3 GLC5        0.0000 
     42 CA          0.6210   30.5100    8.1670 C.3       9 GLL5        0.0000 
     43 CA          0.3500   28.3510    4.4650 C.3       6 GLP5        0.0000 
     44 CA         -0.3040   31.2265    6.5000 C.3       3 GLC5        0.0000 
     45 CA          1.7950   30.8520    7.4630 C.3       9 GLL5        0.0000 
     46 CA          1.8340   31.6525    9.0955 C.3       3 GLC5        0.0000 
     47 CA         -3.5756   32.4892    9.2203 C.3       3 GLC5        0.0000 
     48 CA         -5.0720   33.5620    8.5920 C.3       6 GLP5        0.0000 
     49 CA          6.4520   28.5810    7.5325 C.3       3 GLC5        0.0000 
     50 CA          8.2900   29.2380    8.0730 C.3       6 GLP5        0.0000 
     51 CA          2.4485   26.4680    6.5307 C.3       3 GLC5        0.0000 
     52 CA          4.5950   27.4500    6.4140 C.3       9 GLL5        0.0000 
     53 CA          0.4070   26.1600    6.5410 C.3       6 GLP5        0.0000 
     54 CA          5.2420   24.4247    7.4475 C.3       3 GLC5        0.0000 
     55 CA          4.3850   26.1020    6.6270 C.3       9 GLL5        0.0000 
     56 CA          6.1070   23.2040    8.7870 C.3       6 GLP5        0.0000 
     57 CA          2.6804   26.7334    4.3041 C.3       3 GLC5        0.0000 
     58 CA          0.7130   26.9210    4.1690 C.3       6 GLP5        0.0000 
@<TRIPOS>BOND
@<TRIPOS>SUBSTRUCTURE
     1 ALC1        7 GROUP        1 X    ALC  0     ROOT ALC X 1
     2 SEC2        4 GROUP        1 X    SEC  0     **** SEC X 2
     3 GLC5        1 GROUP        1 X    GLC  0     **** GLC X 6
     4 ALP1        9 GROUP        1 Y    ALP  0     ROOT ALP Y 8
     5 SEP2        6 GROUP        1 Y    SEP  0     **** SEP Y 9
     6 GLP5        3 GROUP        1 Y    GLP  0     **** GLP Y 13
     7 ALL1        8 GROUP        1 Z    ALL  0     ROOT ALL Z 15
     8 SEL2        5 GROUP        1 Z    SEL  0     **** SEL Z 16
     9 GLL5        2 GROUP        1 Z    GLL  0     **** GLL Z 20
@<TRIPOS>SET

