#    Name: 3igg_EFQ_1_ligand
#    Modification time : Tue Mar 25 16:30:35 2014

@<TRIPOS>MOLECULE
3igg_EFQ_1_ligand
   41    43     1     0     0
SMALL
NO_CHARGES


@<TRIPOS>ATOM
      1 C1         -1.4530   31.8920    8.6890 C.3       1 EFQ999      0.0000 
      2 N1         -0.1600   31.6100    8.1410 N.pl3     1 EFQ999      0.0000 
      3 O1         -3.1600   30.3130   11.1490 O.3       1 EFQ999      0.0000 
      4 C2          0.6210   30.5100    8.1670 C.2       1 EFQ999      0.0000 
      5 N2          1.6810   32.1370    7.0490 N.2       1 EFQ999      0.0000 
      6 O2          2.4330   28.2990    8.5350 O.2       1 EFQ999      0.0000 
      7 C3          0.5010   32.5740    7.4750 C.2       1 EFQ999      0.0000 
      8 N3          2.9960   30.0580    7.1750 N.am      1 EFQ999      0.0000 
      9 O3          4.4810   24.6730    3.2720 O.3       1 EFQ999      0.0000 
     10 C4         -2.4830   30.7350    8.7410 C.3       1 EFQ999      0.0000 
     11 C5         -1.4590   31.8270   10.2650 C.3       1 EFQ999      0.0000 
     12 C6          1.7950   30.8520    7.4630 C.2       1 EFQ999      0.0000 
     13 C7         -2.9160   31.2770   10.1230 C.3       1 EFQ999      0.0000 
     14 C8          3.2290   28.8950    7.8150 C.2       1 EFQ999      0.0000 
     15 C9          4.6330   28.3980    7.5700 C.3       1 EFQ999      0.0000 
     16 C10         4.5950   27.4500    6.4140 C.ar      1 EFQ999      0.0000 
     17 C11         4.3850   26.1020    6.6270 C.ar      1 EFQ999      0.0000 
     18 C12         4.7770   27.9140    5.1070 C.ar      1 EFQ999      0.0000 
     19 C13         4.3690   25.1890    5.5890 C.ar      1 EFQ999      0.0000 
     20 C14         4.7620   26.9930    4.0720 C.ar      1 EFQ999      0.0000 
     21 C15         4.5260   25.6380    4.2890 C.ar      1 EFQ999      0.0000 
     22 C16         5.6580   24.7400    2.4610 C.3       1 EFQ999      0.0000 
     23 H          -1.9563   32.7448    8.4491 H         1 EFQ999      0.0000 
     24 H           0.4529   29.6752    8.5604 H         1 EFQ999      0.0000 
     25 H           0.1475   33.4841    7.3272 H         1 EFQ999      0.0000 
     26 H           3.6380   30.4402    6.4647 H         1 EFQ999      0.0000 
     27 H          -2.0032   29.8646    8.8554 H         1 EFQ999      0.0000 
     28 H          -3.2075   30.9014    8.0714 H         1 EFQ999      0.0000 
     29 H          -1.4886   32.7503   10.6239 H         1 EFQ999      0.0000 
     30 H          -0.8576   31.0958   10.5581 H         1 EFQ999      0.0000 
     31 H          -3.5116   32.0732    9.9913 H         1 EFQ999      0.0000 
     32 H           4.9951   27.8892    8.4549 H         1 EFQ999      0.0000 
     33 H           5.2777   29.2373    7.3401 H         1 EFQ999      0.0000 
     34 H           4.2333   25.7604    7.6035 H         1 EFQ999      0.0000 
     35 H           4.9165   28.9050    4.9271 H         1 EFQ999      0.0000 
     36 H           4.2421   24.1889    5.7793 H         1 EFQ999      0.0000 
     37 H           4.9329   27.3229    3.0963 H         1 EFQ999      0.0000 
     38 H           6.4871   24.5758    2.9954 H         1 EFQ999      0.0000 
     39 H           5.6428   24.0605    1.7275 H         1 EFQ999      0.0000 
     40 H           5.7606   25.6358    2.0286 H         1 EFQ999      0.0000 
     41 H          -3.5380   30.8373   11.9120 H         1 EFQ999      0.0000 
@<TRIPOS>BOND
     1    2    1 1    
     2   10    1 1    
     3   11    1 1    
     4   23    1 1    
     5    4    2 1    
     6    7    2 1    
     7   13    3 1    
     8   41    3 1    
     9   12    4 2    
    10   24    4 1    
    11    7    5 2    
    12   12    5 1    
    13   14    6 2    
    14   25    7 1    
    15   12    8 1    
    16   14    8 am   
    17   26    8 1    
    18   21    9 1    
    19   22    9 1    
    20   13   10 1    
    21   27   10 1    
    22   28   10 1    
    23   13   11 1    
    24   29   11 1    
    25   30   11 1    
    26   31   13 1    
    27   15   14 1    
    28   16   15 1    
    29   32   15 1    
    30   33   15 1    
    31   17   16 ar   
    32   18   16 ar   
    33   19   17 ar   
    34   34   17 1    
    35   20   18 ar   
    36   35   18 1    
    37   21   19 ar   
    38   36   19 1    
    39   21   20 ar   
    40   37   20 1    
    41   38   22 1    
    42   39   22 1    
    43   40   22 1    
@<TRIPOS>SUBSTRUCTURE
     1 EFQ999      1 GROUP   
@<TRIPOS>SET

