#    Name: 1s6q_TPB_1_INTS_M
#    Modification time : Tue Mar 25 02:05:17 2014

@<TRIPOS>MOLECULE
1s6q_TPB_1_INTS_M
   74     0     9     0     0
SMALL
NO_CHARGES


@<TRIPOS>ATOM
      1 CA        144.3470  -19.1020   75.4135 C.3       3 GLC5        0.0000 
      2 CA        144.9820  -20.5380   74.4100 C.3       9 GLL5        0.0000 
      3 CA        143.7120  -17.6660   76.4170 C.3       6 GLP5        0.0000 
      4 CA        146.5520  -19.4970   74.5775 C.3       3 GLC5        0.0000 
      5 CA        148.1220  -18.4560   74.7450 C.3       6 GLP5        0.0000 
      6 CA        144.6335  -19.1325   72.7980 C.3       3 GLC5        0.0000 
      7 CA        144.2850  -17.7270   71.1860 C.3       6 GLP5        0.0000 
      8 CA        144.2725  -22.7780   75.7505 C.3       3 GLC5        0.0000 
      9 CA        146.2670  -21.9520   76.1210 C.3       9 GLL5        0.0000 
     10 CA        142.2780  -23.6040   75.3800 C.3       6 GLP5        0.0000 
     11 CA        148.4615  -24.5310   71.2705 C.3       3 GLC5        0.0000 
     12 CA        148.6050  -24.0380   72.9600 C.3       9 GLL5        0.0000 
     13 CA        148.3180  -25.0240   69.5810 C.3       6 GLP5        0.0000 
     14 CA        146.9285  -23.8675   70.5830 C.3       3 GLC5        0.0000 
     15 CA        145.5390  -22.7110   71.5850 C.3       9 GLL5        0.0000 
     16 CA        143.3535  -23.5785   72.3510 C.3       3 GLC5        0.0000 
     17 CA        144.2390  -24.7400   71.4940 C.3       9 GLL5        0.0000 
     18 CA        142.4680  -22.4170   73.2080 C.3       6 GLP5        0.0000 
     19 CA        144.7565  -26.6380   70.6115 C.3       3 GLC5        0.0000 
     20 CA        145.2740  -28.5360   69.7290 C.3       6 GLP5        0.0000 
     21 O         142.9315  -26.4850   71.2625 O.2       1 ALC1        0.0000 
     22 O         143.8080  -25.9570   72.1220 O.2       7 ALL1        0.0000 
     23 O         142.0550  -27.0130   70.4030 O.2       4 ALP1        0.0000 
     24 N         142.1095  -24.6375   70.2330 N.am      2 SEC2        0.0000 
     25 N         143.8220  -24.4030   70.1620 N.am      8 SEL2        0.0000 
     26 N         140.3970  -24.8720   70.3040 N.am      5 SEP2        0.0000 
     27 CA        142.5840  -23.0895   68.8645 C.3       3 GLC5        0.0000 
     28 CA        144.3210  -23.1760   69.5780 C.3       9 GLL5        0.0000 
     29 CA        140.8470  -23.0030   68.1510 C.3       6 GLP5        0.0000 
     30 CA        144.8365  -25.0625   68.6715 C.3       3 GLC5        0.0000 
     31 CA        145.3520  -26.9490   67.7650 C.3       6 GLP5        0.0000 
     32 CA        145.9030  -23.6560   68.5110 C.3       3 GLC5        0.0000 
     33 CA        147.4850  -24.1360   67.4440 C.3       6 GLP5        0.0000 
     34 CA        146.7835  -23.1145   69.4550 C.3       3 GLC5        0.0000 
     35 CA        145.1690  -22.3550   70.3000 C.3       9 GLL5        0.0000 
     36 CA        148.3980  -23.8740   68.6100 C.3       6 GLP5        0.0000 
     37 CA        144.2925  -30.6150   74.8105 C.3       3 GLC5        0.0000 
     38 CA        144.5600  -28.6200   74.7310 C.3       9 GLL5        0.0000 
     39 CA        144.0250  -32.6100   74.8900 C.3       6 GLP5        0.0000 
     40 CA        145.0620  -25.9080   77.4695 C.3       3 GLC5        0.0000 
     41 CA        145.7030  -26.5250   75.4540 C.3       9 GLL5        0.0000 
     42 CA        144.4210  -25.2910   79.4850 C.3       6 GLP5        0.0000 
     43 CA        146.9570  -29.3380   75.5375 C.3       3 GLC5        0.0000 
     44 CA        145.8440  -28.6960   76.7820 C.3       9 GLL5        0.0000 
     45 CA        148.0700  -29.9800   74.2930 C.3       6 GLP5        0.0000 
     46 CA        147.1235  -29.2975   78.2695 C.3       3 GLC5        0.0000 
     47 CA        148.4030  -29.8990   79.7570 C.3       6 GLP5        0.0000 
     48 CA        148.3040  -21.5640   77.1305 C.3       3 GLC5        0.0000 
     49 CA        147.4450  -23.2640   77.9110 C.3       9 GLL5        0.0000 
     50 CA        149.1630  -19.8640   76.3500 C.3       6 GLP5        0.0000 
     51 CA        148.7745  -24.2480   78.0830 C.3       3 GLC5        0.0000 
     52 CA        150.1040  -25.2320   78.2550 C.3       6 GLP5        0.0000 
     53 CA        146.3105  -22.4230   79.5160 C.3       3 GLC5        0.0000 
     54 CA        145.1760  -21.5820   81.1210 C.3       6 GLP5        0.0000 
     55 CA        145.9330  -24.2775   78.6980 C.3       3 GLC5        0.0000 
     56 CA        147.9610  -21.1448   74.0635 C.3       3 GLC5        0.0000 
     57 CA        146.0220  -21.6030   74.7400 C.3       9 GLL5        0.0000 
     58 CA        149.5370  -20.3600   73.9190 C.3       6 GLP5        0.0000 
     59 CA        144.0757  -21.8254   73.7585 C.3       3 GLC5        0.0000 
     60 CA        148.1418  -21.4020   75.1060 C.3       3 GLC5        0.0000 
     61 CA        149.3715  -23.7565   76.0650 C.3       3 GLC5        0.0000 
     62 CA        147.9800  -23.6040   75.4070 C.3       9 GLL5        0.0000 
     63 CA        151.1400  -24.2430   76.1940 C.3       6 GLP5        0.0000 
     64 CA        149.6587  -23.9485   74.8367 C.3       3 GLC5        0.0000 
     65 CA        147.7500  -23.2700   73.9990 C.3       9 GLL5        0.0000 
     66 CA        148.8860  -22.0487   73.8752 C.3       3 GLC5        0.0000 
     67 CA        143.6527  -22.6358   71.7341 C.3       3 GLC5        0.0000 
     68 CA        143.5282  -24.9030   74.5887 C.3       3 GLC5        0.0000 
     69 CA        144.3630  -26.5610   73.3130 C.3       9 GLL5        0.0000 
     70 CA        144.7415  -27.8912   71.5830 C.3       3 GLC5        0.0000 
     71 CA        144.7647  -27.9988   78.0373 C.3       3 GLC5        0.0000 
     72 CA        145.3750  -27.9290   75.6710 C.3       9 GLL5        0.0000 
     73 CA        143.9200  -27.6850   79.8480 C.3       6 GLP5        0.0000 
     74 CA        146.7026  -28.6899   74.8102 C.3       3 GLC5        0.0000 
@<TRIPOS>BOND
@<TRIPOS>SUBSTRUCTURE
     1 ALC1       21 GROUP        1 X    ALC  0     ROOT ALC X 1
     2 SEC2       24 GROUP        1 X    SEC  0     **** SEC X 2
     3 GLC5        1 GROUP        1 X    GLC  0     **** GLC X 6
     4 ALP1       23 GROUP        1 Y    ALP  0     ROOT ALP Y 8
     5 SEP2       26 GROUP        1 Y    SEP  0     **** SEP Y 9
     6 GLP5        3 GROUP        1 Y    GLP  0     **** GLP Y 13
     7 ALL1       22 GROUP        1 Z    ALL  0     ROOT ALL Z 15
     8 SEL2       25 GROUP        1 Z    SEL  0     **** SEL Z 16
     9 GLL5        2 GROUP        1 Z    GLL  0     **** GLL Z 20
@<TRIPOS>SET

