#    Name: 1s6q_TPB_1_ligand
#    Modification time : Tue Mar 25 02:05:17 2014

@<TRIPOS>MOLECULE
1s6q_TPB_1_ligand
   44    46     1     0     0
SMALL
NO_CHARGES


@<TRIPOS>ATOM
      1 C1        146.7480  -22.2560   73.6760 C.ar      1 TPB701      0.0000 
      2 N7        146.4280  -21.8520   72.3620 N.pl3     1 TPB701      0.0000 
      3 C2        146.0220  -21.6030   74.7400 C.ar      1 TPB701      0.0000 
      4 C21       144.9820  -20.5380   74.4100 C.3       1 TPB701      0.0000 
      5 C3        146.2670  -21.9520   76.1210 C.ar      1 TPB701      0.0000 
      6 C4        147.2260  -22.9360   76.4650 C.ar      1 TPB701      0.0000 
      7 C5        147.9800  -23.6040   75.4070 C.ar      1 TPB701      0.0000 
      8 C6        147.7500  -23.2700   73.9990 C.ar      1 TPB701      0.0000 
      9 C61       148.6050  -24.0380   72.9600 C.3       1 TPB701      0.0000 
     10 C8        145.5390  -22.7110   71.5850 C.ar      1 TPB701      0.0000 
     11 N1        145.0720  -23.8620   72.1450 N.ar      1 TPB701      0.0000 
     12 C9        144.2390  -24.7400   71.4940 C.ar      1 TPB701      0.0000 
     13 N5        143.8080  -25.9570   72.1220 N.pl3     1 TPB701      0.0000 
     14 N3        143.8220  -24.4030   70.1620 N.ar      1 TPB701      0.0000 
     15 C10       144.3210  -23.1760   69.5780 C.ar      1 TPB701      0.0000 
     16 C7        145.1690  -22.3550   70.3000 C.ar      1 TPB701      0.0000 
     17 C11       144.3630  -26.5610   73.3130 C.ar      1 TPB701      0.0000 
     18 C12       144.0550  -27.9320   73.5610 C.ar      1 TPB701      0.0000 
     19 C13       144.5600  -28.6200   74.7310 C.ar      1 TPB701      0.0000 
     20 C14       145.3750  -27.9290   75.6710 C.ar      1 TPB701      0.0000 
     21 C15       145.7030  -26.5250   75.4540 C.ar      1 TPB701      0.0000 
     22 C16       145.1940  -25.8430   74.2820 C.ar      1 TPB701      0.0000 
     23 C17       145.8440  -28.6960   76.7820 C.1       1 TPB701      0.0000 
     24 N6        146.2050  -29.3670   77.6610 N.1       1 TPB701      0.0000 
     25 C41       147.4450  -23.2640   77.9110 C.3       1 TPB701      0.0000 
     26 H         146.7849  -21.0134   71.9579 H         1 TPB701      0.0000 
     27 H         145.7341  -21.4747   76.8508 H         1 TPB701      0.0000 
     28 H         148.6672  -24.3034   75.6465 H         1 TPB701      0.0000 
     29 H         142.9973  -26.4701   71.6674 H         1 TPB701      0.0000 
     30 H         144.0294  -22.9403   68.6272 H         1 TPB701      0.0000 
     31 H         145.5229  -21.4837   69.8834 H         1 TPB701      0.0000 
     32 H         143.4653  -28.4482   72.9033 H         1 TPB701      0.0000 
     33 H         144.3260  -29.5972   74.8710 H         1 TPB701      0.0000 
     34 H         146.2795  -26.0368   76.1166 H         1 TPB701      0.0000 
     35 H         145.4086  -24.8703   74.1263 H         1 TPB701      0.0000 
     36 H         145.3832  -19.7685   73.9130 H         1 TPB701      0.0000 
     37 H         144.2450  -20.9024   73.8407 H         1 TPB701      0.0000 
     38 H         144.5578  -20.1649   75.2351 H         1 TPB701      0.0000 
     39 H         149.1675  -23.4192   72.4117 H         1 TPB701      0.0000 
     40 H         149.2260  -24.6882   73.3978 H         1 TPB701      0.0000 
     41 H         148.0364  -24.5589   72.3233 H         1 TPB701      0.0000 
     42 H         148.1452  -23.9679   78.0302 H         1 TPB701      0.0000 
     43 H         147.7418  -22.4640   78.4325 H         1 TPB701      0.0000 
     44 H         146.6108  -23.6039   78.3452 H         1 TPB701      0.0000 
@<TRIPOS>BOND
     1    2    1 1    
     2    3    1 ar   
     3    8    1 ar   
     4   10    2 1    
     5   26    2 1    
     6    4    3 1    
     7    5    3 ar   
     8   36    4 1    
     9   37    4 1    
    10   38    4 1    
    11    6    5 ar   
    12   27    5 1    
    13    7    6 ar   
    14   25    6 1    
    15    8    7 ar   
    16   28    7 1    
    17    9    8 1    
    18   39    9 1    
    19   40    9 1    
    20   41    9 1    
    21   11   10 ar   
    22   16   10 ar   
    23   12   11 ar   
    24   13   12 1    
    25   14   12 ar   
    26   17   13 1    
    27   29   13 1    
    28   15   14 ar   
    29   16   15 ar   
    30   30   15 1    
    31   31   16 1    
    32   18   17 ar   
    33   22   17 ar   
    34   19   18 ar   
    35   32   18 1    
    36   20   19 ar   
    37   33   19 1    
    38   21   20 ar   
    39   23   20 1    
    40   22   21 ar   
    41   34   21 1    
    42   35   22 1    
    43   24   23 3    
    44   42   25 1    
    45   43   25 1    
    46   44   25 1    
@<TRIPOS>SUBSTRUCTURE
     1 TPB701      1 GROUP   
@<TRIPOS>SET

