#    Name: 4IDN_1_CAVITY_N1_6.mol2
#    Modification time : Tue Mar 11 05:03:10 2014

@<TRIPOS>MOLECULE
4IDN_1_CAVITY_N1_6.mol2
   91     0     6     0     0
SMALL
NO_CHARGES


@<TRIPOS>ATOM
      1 CZ         32.1243    0.7314  -52.7262 C.ar      4 PHE5        0.0000 
      2 CA         31.2931    1.8859  -52.2507 C.3       5 GLY6        0.0000 
      3 CA         30.4618    3.0404  -51.7751 C.3       5 GLY6        0.0000 
      4 CZ         30.0779    1.2692  -52.8776 C.ar      4 PHE5        0.0000 
      5 CA         29.2467    2.4238  -52.4021 C.3       5 GLY6        0.0000 
      6 N          28.4154    3.5783  -51.9266 N.2       1 ALA2        0.0000 
      7 N          27.5842    4.7329  -51.4511 N.2       1 ALA2        0.0000 
      8 CA         26.7530    5.8874  -50.9756 C.3       5 GLY6        0.0000 
      9 CZ         28.0315    1.8071  -53.0291 C.ar      4 PHE5        0.0000 
     10 CZ         27.2003    2.9617  -52.5536 C.ar      4 PHE5        0.0000 
     11 CZ         26.8163    1.1905  -53.6561 C.ar      4 PHE5        0.0000 
     12 CZ         25.9851    2.3450  -53.1806 C.ar      4 PHE5        0.0000 
     13 CA         32.6051    3.5411  -49.2442 C.3       5 GLY6        0.0000 
     14 CA         33.0524    0.6154  -50.8222 C.3       5 GLY6        0.0000 
     15 CA         32.2211    1.7699  -50.3466 C.3       5 GLY6        0.0000 
     16 CA         31.3899    2.9244  -49.8711 C.3       5 GLY6        0.0000 
     17 CA         30.5587    4.0790  -49.3956 C.3       5 GLY6        0.0000 
     18 O          31.8372   -0.0013  -51.4491 O.2       1 ALA2        0.0000 
     19 CA         31.0060    1.1532  -50.9736 C.3       5 GLY6        0.0000 
     20 CA         30.1747    2.3078  -50.4981 C.3       5 GLY6        0.0000 
     21 N          29.3435    3.4623  -50.0226 N.2       1 ALA2        0.0000 
     22 CA         28.5123    4.6168  -49.5471 C.3       5 GLY6        0.0000 
     23 O          30.6220   -0.6179  -52.0761 O.2       1 ALA2        0.0000 
     24 CA         29.7908    0.5366  -51.6006 C.3       5 GLY6        0.0000 
     25 DU         28.9596    1.6911  -51.1251 H         6 CUB7        0.0000 
     26 DU         28.1284    2.8457  -50.6496 H         6 CUB7        0.0000 
     27 DU         27.2971    4.0002  -50.1741 H         6 CUB7        0.0000 
     28 CA         26.4659    5.1547  -49.6986 C.3       5 GLY6        0.0000 
     29 CA         28.5756   -0.0801  -52.2276 C.3       5 GLY6        0.0000 
     30 CA         27.7444    1.0745  -51.7521 C.3       5 GLY6        0.0000 
     31 N          26.9132    2.2290  -51.2766 N.2       1 ALA2        0.0000 
     32 N          26.0820    3.3835  -50.8011 N.2       1 ALA2        0.0000 
     33 CA         26.5292    0.4578  -52.3791 C.3       5 GLY6        0.0000 
     34 N          25.6980    1.6124  -51.9036 N.2       1 ALA2        0.0000 
     35 CA         25.3141   -0.1588  -53.0060 C.3       5 GLY6        0.0000 
     36 N          24.4828    0.9957  -52.5305 N.2       1 ALA2        0.0000 
     37 NZ         33.1492    1.6539  -48.4426 N.2       3 LYS4        0.0000 
     38 NZ         32.3180    2.8084  -47.9671 N.2       3 LYS4        0.0000 
     39 CA         31.4868    3.9630  -47.4916 C.3       5 GLY6        0.0000 
     40 NZ         32.7653   -0.1173  -49.5451 N.2       3 LYS4        0.0000 
     41 DU         31.9340    1.0372  -49.0696 H         6 CUB7        0.0000 
     42 DU         31.1028    2.1918  -48.5941 H         6 CUB7        0.0000 
     43 CA         30.2716    3.3463  -48.1186 C.3       5 GLY6        0.0000 
     44 CA         29.4404    4.5008  -47.6431 C.3       5 GLY6        0.0000 
     45 O          31.5501   -0.7339  -50.1721 O.2       1 ALA2        0.0000 
     46 N          30.7189    0.4206  -49.6966 N.2       1 ALA2        0.0000 
     47 DU         29.8876    1.5751  -49.2211 H         6 CUB7        0.0000 
     48 N          29.0564    2.7297  -48.7456 N.2       1 ALA2        0.0000 
     49 N          28.2252    3.8842  -48.2701 N.2       1 ALA2        0.0000 
     50 CZ         27.3940    5.0387  -47.7946 C.ar      4 PHE5        0.0000 
     51 O          28.6725    0.9585  -49.8481 O.2       1 ALA2        0.0000 
     52 N          27.8413    2.1130  -49.3726 N.2       1 ALA2        0.0000 
     53 O          26.1120    6.7360  -54.1566 O.2       1 ALA2        0.0000 
     54 O          25.2808    7.8906  -53.6811 O.2       1 ALA2        0.0000 
     55 O          24.8969    6.1194  -54.7836 O.2       1 ALA2        0.0000 
     56 O          23.2344    8.4285  -53.8326 O.2       1 ALA2        0.0000 
     57 N          28.7025    4.3110  -53.2036 N.2       1 ALA2        0.0000 
     58 N          27.8713    5.4655  -52.7281 N.2       1 ALA2        0.0000 
     59 CZ         26.6562    4.8489  -53.3551 C.ar      4 PHE5        0.0000 
     60 N          27.0100    3.2675  -48.8971 N.2       1 ALA2        0.0000 
     61 CZ         26.1788    4.4221  -48.4216 C.ar      4 PHE5        0.0000 
     62 CA         27.4573    0.3418  -50.4751 C.3       5 GLY6        0.0000 
     63 N          26.6261    1.4963  -49.9996 N.2       1 ALA2        0.0000 
     64 N          25.7949    2.6509  -49.5240 N.2       1 ALA2        0.0000 
     65 CA         26.2421   -0.2748  -51.1020 C.3       5 GLY6        0.0000 
     66 N          25.4109    0.8797  -50.6265 N.2       1 ALA2        0.0000 
     67 CA         25.0270   -0.8915  -51.7290 C.3       5 GLY6        0.0000 
     68 O          24.1957    0.2630  -51.2535 O.2       1 ALA2        0.0000 
     69 OD1        23.8118   -1.5081  -52.3560 O.3       2 ASP3        0.0000 
     70 O          22.9806   -0.3536  -51.8805 O.2       1 ALA2        0.0000 
     71 NZ         32.4148    3.8470  -45.5876 N.2       3 LYS4        0.0000 
     72 NZ         32.0309    2.0758  -46.6901 N.2       3 LYS4        0.0000 
     73 N          31.1997    3.2303  -46.2146 N.2       1 ALA2        0.0000 
     74 N          31.6469    0.3046  -47.7926 N.2       1 ALA2        0.0000 
     75 DU         30.8157    1.4591  -47.3171 H         6 CUB7        0.0000 
     76 N          29.9845    2.6137  -46.8416 N.2       1 ALA2        0.0000 
     77 N          30.4318   -0.3121  -48.4196 N.2       1 ALA2        0.0000 
     78 N          29.6005    0.8425  -47.9441 N.2       1 ALA2        0.0000 
     79 N          28.7693    1.9970  -47.4686 N.2       1 ALA2        0.0000 
     80 N          27.9381    3.1515  -46.9931 N.2       1 ALA2        0.0000 
     81 CA         25.1238    0.1470  -49.3495 C.3       5 GLY6        0.0000 
     82 O          24.7399   -1.6242  -50.4520 O.2       1 ALA2        0.0000 
     83 O          23.9086   -0.4696  -49.9765 O.2       1 ALA2        0.0000 
     84 O          22.6935   -1.0863  -50.6035 O.2       1 ALA2        0.0000 
     85 N          31.7438    1.3431  -45.4131 N.2       1 ALA2        0.0000 
     86 N          31.3598   -0.4281  -46.5156 N.2       1 ALA2        0.0000 
     87 N          30.5286    0.7265  -46.0401 N.2       1 ALA2        0.0000 
     88 N          25.5679    8.6232  -54.9582 N.2       1 ALA2        0.0000 
     89 N          25.1840    6.8520  -56.0606 N.2       1 ALA2        0.0000 
     90 N          24.3527    8.0066  -55.5851 N.2       1 ALA2        0.0000 
     91 CZ         24.8000    5.0809  -57.1631 C.ar      4 PHE5        0.0000 
@<TRIPOS>BOND
@<TRIPOS>SUBSTRUCTURE
     1 ALA2        6 GROUP   
     2 ASP3       69 GROUP   
     3 LYS4       37 GROUP   
     4 PHE5        1 GROUP   
     5 GLY6        2 GROUP   
     6 CUB7       25 GROUP   
@<TRIPOS>SET

