#    Name: 4idn_GNP_1_INTS_M
#    Modification time : Tue Mar 25 03:44:45 2014

@<TRIPOS>MOLECULE
4idn_GNP_1_INTS_M
   81     0    15     0     0
SMALL
NO_CHARGES


@<TRIPOS>ATOM
      1 Zn         21.2980   -3.3640  -51.1610 Zn        4 ZIC7        0.0000 
      2 Zn         20.9210   -3.0770  -50.3380 Zn       14 ZIL7        0.0000 
      3 Zn         21.6750   -3.6510  -51.9840 Zn        9 ZIP7        0.0000 
      4 N          19.4860   -2.8750  -50.7860 N.am      2 SEC2        0.0000 
      5 N          20.9210   -3.0770  -50.3380 N.am     12 SEL2        0.0000 
      6 N          18.0510   -2.6730  -51.2340 N.am      7 SEP2        0.0000 
      7 NZ         21.1175   -0.1440  -49.0405 N.4       3 LYC4        0.0000 
      8 NZ         20.4870   -1.3360  -48.5020 N.4      13 LYL4        0.0000 
      9 NZ         22.1190    2.2030  -49.0510 N.4       8 LYP4        0.0000 
     10 N          21.1175   -0.1440  -49.0405 N.am      2 SEC2        0.0000 
     11 N          20.4870   -1.3360  -48.5020 N.am     12 SEL2        0.0000 
     12 N          21.7480    1.0480  -49.5790 N.am      7 SEP2        0.0000 
     13 N          19.2940   -0.8230  -48.8925 N.am      2 SEC2        0.0000 
     14 N          18.1010   -0.3100  -49.2830 N.am      7 SEP2        0.0000 
     15 NZ         22.6580   -4.3300  -47.8630 N.4       3 LYC4        0.0000 
     16 NZ         21.5910   -3.3990  -47.9210 N.4      13 LYL4        0.0000 
     17 NZ         23.7250   -5.2610  -47.8050 N.4       8 LYP4        0.0000 
     18 N          22.5755   -2.3650  -47.1070 N.am      2 SEC2        0.0000 
     19 N          21.5910   -3.3990  -47.9210 N.am     12 SEL2        0.0000 
     20 N          23.5600   -1.3310  -46.2930 N.am      7 SEP2        0.0000 
     21 N          22.6580   -4.3300  -47.8630 N.am      2 SEC2        0.0000 
     22 N          23.7250   -5.2610  -47.8050 N.am      7 SEP2        0.0000 
     23 Zn         22.5910   -3.3940  -51.6385 Zn        4 ZIC7        0.0000 
     24 Zn         23.5070   -3.1370  -51.2930 Zn       14 ZIL7        0.0000 
     25 N          24.3695   -3.9645  -52.2540 N.am      2 SEC2        0.0000 
     26 N          23.5070   -3.1370  -51.2930 N.am     12 SEL2        0.0000 
     27 N          25.2320   -4.7920  -53.2150 N.am      7 SEP2        0.0000 
     28 NZ         24.2365   -4.3125  -48.4585 N.4       3 LYC4        0.0000 
     29 NZ         24.7480   -3.3640  -49.1120 N.4      13 LYL4        0.0000 
     30 N          25.5300   -2.5045  -47.9905 N.am      2 SEC2        0.0000 
     31 N          24.7480   -3.3640  -49.1120 N.am     12 SEL2        0.0000 
     32 N          26.3120   -1.6450  -46.8690 N.am      7 SEP2        0.0000 
     33 N          26.1525   -2.7240  -49.2195 N.am      2 SEC2        0.0000 
     34 N          27.5570   -2.0840  -49.3270 N.am      7 SEP2        0.0000 
     35 N          25.8315   -3.8410  -49.9970 N.am      2 SEC2        0.0000 
     36 N          26.9150   -4.3180  -50.8820 N.am      7 SEP2        0.0000 
     37 N          24.2365   -4.3125  -48.4585 N.am      2 SEC2        0.0000 
     38 N          26.2950   -1.7300  -49.9110 N.am      2 SEC2        0.0000 
     39 N          25.0330   -1.3760  -50.4950 N.am     12 SEL2        0.0000 
     40 N          26.1655   -2.3125  -53.9090 N.am      2 SEC2        0.0000 
     41 N          25.7660   -1.5420  -52.8350 N.am     12 SEL2        0.0000 
     42 N          26.5650   -3.0830  -54.9830 N.am      7 SEP2        0.0000 
     43 CA         26.9280   -0.3495  -50.6380 C.3       5 GLC5        0.0000 
     44 CA         25.7610    1.5150  -50.6010 C.3      15 GLL5        0.0000 
     45 CA         28.0950   -2.2140  -50.6750 C.3      10 GLP5        0.0000 
     46 CA         26.5640    3.0780  -53.7700 C.3       5 GLC5        0.0000 
     47 CA         27.0350    3.4150  -51.8520 C.3      15 GLL5        0.0000 
     48 CA         26.0930    2.7410  -55.6880 C.3      10 GLP5        0.0000 
     49 CA         25.5620    4.8265  -51.4920 C.3       5 GLC5        0.0000 
     50 CA         24.0890    6.2380  -51.1320 C.3      10 GLP5        0.0000 
     51 CA         28.8380    1.7540  -54.1050 C.3       5 GLC5        0.0000 
     52 CA         28.3790    2.8980  -52.3710 C.3      15 GLL5        0.0000 
     53 CA         29.2970    0.6100  -55.8390 C.3      10 GLP5        0.0000 
     54 CA         27.6800    3.3290  -54.1840 C.3       5 GLC5        0.0000 
     55 CA         26.9810    3.7600  -55.9970 C.3      10 GLP5        0.0000 
     56 O          29.7330    5.0335  -52.6545 O.2       1 ALC1        0.0000 
     57 O          29.0610    3.8830  -53.1220 O.2      11 ALL1        0.0000 
     58 O          30.4050    6.1840  -52.1870 O.2       6 ALP1        0.0000 
     59 N          31.3740   -1.5715  -51.6760 N.am      2 SEC2        0.0000 
     60 N          31.3910   -0.1090  -51.7150 N.am     12 SEL2        0.0000 
     61 N          31.3570   -3.0340  -51.6370 N.am      7 SEP2        0.0000 
     62 N          33.3880   -2.3545  -50.0735 N.am      2 SEC2        0.0000 
     63 N          33.8690   -0.9120  -50.0500 N.am     12 SEL2        0.0000 
     64 N          32.9070   -3.7970  -50.0970 N.am      7 SEP2        0.0000 
     65 N          34.9960   -1.5735  -49.6760 N.am      2 SEC2        0.0000 
     66 N          36.1230   -2.2350  -49.3020 N.am      7 SEP2        0.0000 
     67 O          34.4455    0.6220  -48.0590 O.2       1 ALC1        0.0000 
     68 O          33.3160    0.8910  -48.7530 O.2      11 ALL1        0.0000 
     69 O          35.5750    0.3530  -47.3650 O.2       6 ALP1        0.0000 
     70 O          33.9145    1.0630  -47.2070 O.2       1 ALC1        0.0000 
     71 O          34.5130    1.2350  -45.6610 O.2       6 ALP1        0.0000 
     72 O          33.7055    1.9495  -46.4895 O.2       1 ALC1        0.0000 
     73 O          32.8980    2.6640  -47.3180 O.2      11 ALL1        0.0000 
     74 CA         30.5360    3.4177  -52.4720 C.3       5 GLC5        0.0000 
     75 CA         29.1130    2.6530  -51.0630 C.3      15 GLL5        0.0000 
     76 CA         32.3260    4.0600  -53.2270 C.3      10 GLP5        0.0000 
     77 CA         33.3380    1.7170  -50.8017 C.3       5 GLC5        0.0000 
     78 CA         31.2230    1.5430  -50.1740 C.3      15 GLL5        0.0000 
     79 CA         35.0860    2.4380  -51.2260 C.3      10 GLP5        0.0000 
     80 CA         31.9580    2.5280  -51.8023 C.3       5 GLC5        0.0000 
     81 CA         31.9570    0.4490  -50.5810 C.3      15 GLL5        0.0000 
@<TRIPOS>BOND
@<TRIPOS>SUBSTRUCTURE
     1 ALC1       56 GROUP        1 X    ALC  0     ROOT ALC X 1
     2 SEC2        4 GROUP        1 X    SEC  0     **** SEC X 2
     3 LYC4        7 GROUP        1 X    LYC  0     **** LYC X 4
     4 ZIC7        1 GROUP        1 X    ZIC  0     **** ZIC X 5
     5 GLC5       43 GROUP        1 X    GLC  0     **** GLC X 6
     6 ALP1       58 GROUP        1 Y    ALP  0     ROOT ALP Y 8
     7 SEP2        6 GROUP        1 Y    SEP  0     **** SEP Y 9
     8 LYP4        9 GROUP        1 Y    LYP  0     **** LYP Y 11
     9 ZIP7        3 GROUP        1 Y    ZIP  0     **** ZIP Y 12
    10 GLP5       45 GROUP        1 Y    GLP  0     **** GLP Y 13
    11 ALL1       57 GROUP        1 Z    ALL  0     ROOT ALL Z 15
    12 SEL2        5 GROUP        1 Z    SEL  0     **** SEL Z 16
    13 LYL4        8 GROUP        1 Z    LYL  0     **** LYL Z 18
    14 ZIL7        2 GROUP        1 Z    ZIL  0     **** ZIL Z 19
    15 GLL5       44 GROUP        1 Z    GLL  0     **** GLL Z 20
@<TRIPOS>SET

