#    Name: 4idn_GNP_1_ligand
#    Modification time : Tue Mar 25 03:44:45 2014

@<TRIPOS>MOLECULE
4idn_GNP_1_ligand
   44    46     1     0     0
SMALL
NO_CHARGES


@<TRIPOS>ATOM
      1 PG         21.3790   -2.4220  -49.0530 P.3       1 GNP501      0.0000 
      2 O1G        20.9210   -3.0770  -50.3380 O.co2     1 GNP501      0.0000 
      3 O2G        20.4870   -1.3360  -48.5020 O.co2     1 GNP501      0.0000 
      4 O3G        21.5910   -3.3990  -47.9210 O.co2     1 GNP501      0.0000 
      5 N3B        22.8050   -1.7560  -49.3550 N.4       1 GNP501      0.0000 
      6 PB         24.0300   -2.4890  -50.0740 P.3       1 GNP501      0.0000 
      7 O1B        23.5070   -3.1370  -51.2930 O.co2     1 GNP501      0.0000 
      8 O2B        24.7480   -3.3640  -49.1120 O.co2     1 GNP501      0.0000 
      9 O3A        25.0330   -1.3760  -50.4950 O.3       1 GNP501      0.0000 
     10 PA         25.0650   -0.6560  -51.8650 P.3       1 GNP501      0.0000 
     11 O1A        25.7660   -1.5420  -52.8350 O.co2     1 GNP501      0.0000 
     12 O2A        23.7070   -0.1930  -52.2750 O.co2     1 GNP501      0.0000 
     13 O5'        25.9220    0.6670  -51.7280 O.3       1 GNP501      0.0000 
     14 C5'        25.7610    1.5150  -50.6010 C.3       1 GNP501      0.0000 
     15 C4'        26.8230    2.6090  -50.5690 C.3       1 GNP501      0.0000 
     16 O4'        28.1150    2.0390  -50.2520 O.3       1 GNP501      0.0000 
     17 C3'        27.0350    3.4150  -51.8520 C.3       1 GNP501      0.0000 
     18 O3'        27.1140    4.8150  -51.5030 O.3       1 GNP501      0.0000 
     19 C2'        28.3790    2.8980  -52.3710 C.3       1 GNP501      0.0000 
     20 O2'        29.0610    3.8830  -53.1220 O.3       1 GNP501      0.0000 
     21 C1'        29.1130    2.6530  -51.0630 C.3       1 GNP501      0.0000 
     22 N9         30.1940    1.6700  -51.0880 N.pl3     1 GNP501      0.0000 
     23 C8         30.3520    0.6340  -51.9800 C.2       1 GNP501      0.0000 
     24 N7         31.3910   -0.1090  -51.7150 N.2       1 GNP501      0.0000 
     25 C5         31.9570    0.4490  -50.5810 C.2       1 GNP501      0.0000 
     26 C6         33.0980    0.0480  -49.8430 C.2       1 GNP501      0.0000 
     27 O6         33.8690   -0.9120  -50.0500 O.2       1 GNP501      0.0000 
     28 N1         33.3160    0.8910  -48.7530 N.am      1 GNP501      0.0000 
     29 C2         32.5230    1.9680  -48.4150 C.2       1 GNP501      0.0000 
     30 N2         32.8980    2.6640  -47.3180 N.pl3     1 GNP501      0.0000 
     31 N3         31.4510    2.3450  -49.1060 N.2       1 GNP501      0.0000 
     32 C4         31.2230    1.5430  -50.1740 C.2       1 GNP501      0.0000 
     33 H          25.8342    0.9531  -49.6527 H         1 GNP501      0.0000 
     34 H          24.7736    2.0104  -50.5998 H         1 GNP501      0.0000 
     35 H          26.5663    3.3244  -49.7733 H         1 GNP501      0.0000 
     36 H          26.2818    3.1811  -52.5292 H         1 GNP501      0.0000 
     37 H          28.2288    1.9845  -52.8480 H         1 GNP501      0.0000 
     38 H          29.4084    3.5680  -50.6348 H         1 GNP501      0.0000 
     39 H          29.7171    0.4977  -52.7382 H         1 GNP501      0.0000 
     40 H          34.1603    0.6821  -48.1390 H         1 GNP501      0.0000 
     41 H          33.7460    2.3685  -46.8780 H         1 GNP501      0.0000 
     42 H          32.2940    3.4124  -47.0440 H         1 GNP501      0.0000 
     43 H          27.5037    4.8305  -50.5822 H         1 GNP501      0.0000 
     44 H          28.9981    4.7164  -52.5730 H         1 GNP501      0.0000 
@<TRIPOS>BOND
     1    2    1 ar   
     2    3    1 ar   
     3    4    1 ar   
     4    5    1 1    
     5    6    5 1    
     6    7    6 ar   
     7    8    6 ar   
     8    9    6 1    
     9   10    9 1    
    10   11   10 ar   
    11   12   10 ar   
    12   13   10 1    
    13   14   13 1    
    14   15   14 1    
    15   33   14 1    
    16   34   14 1    
    17   16   15 1    
    18   17   15 1    
    19   35   15 1    
    20   21   16 1    
    21   18   17 1    
    22   19   17 1    
    23   36   17 1    
    24   43   18 1    
    25   20   19 1    
    26   21   19 1    
    27   37   19 1    
    28   44   20 1    
    29   22   21 1    
    30   38   21 1    
    31   23   22 1    
    32   32   22 1    
    33   24   23 2    
    34   39   23 1    
    35   25   24 1    
    36   26   25 1    
    37   32   25 2    
    38   27   26 2    
    39   28   26 am   
    40   29   28 1    
    41   40   28 1    
    42   30   29 1    
    43   31   29 2    
    44   41   30 1    
    45   42   30 1    
    46   32   31 1    
@<TRIPOS>SUBSTRUCTURE
     1 GNP501      1 GROUP   
@<TRIPOS>SET

