#    Name: 2c3i_IYZ_1_INTS_M
#    Modification time : Mon Mar 24 22:28:29 2014

@<TRIPOS>MOLECULE
2c3i_IYZ_1_INTS_M
   63     0     3     0     0
SMALL
NO_CHARGES


@<TRIPOS>ATOM
      1 CA         29.2550   48.6345   -2.8740 C.3       1 GLC5        0.0000 
      2 CA         28.5410   50.6080   -2.6660 C.3       3 GLL5        0.0000 
      3 CA         29.9690   46.6610   -3.0820 C.3       2 GLP5        0.0000 
      4 CA         29.5805   52.3690   -2.4525 C.3       1 GLC5        0.0000 
      5 CA         30.6200   54.1300   -2.2390 C.3       2 GLP5        0.0000 
      6 CA         29.8420   50.3790   -1.3855 C.3       1 GLC5        0.0000 
      7 CA         31.1430   50.1500   -0.1050 C.3       2 GLP5        0.0000 
      8 CA         29.1125   52.6195   -3.7955 C.3       1 GLC5        0.0000 
      9 CA         28.2110   50.7480   -4.1470 C.3       3 GLL5        0.0000 
     10 CA         30.0140   54.4910   -3.4440 C.3       2 GLP5        0.0000 
     11 CA         24.8760   52.1050   -1.3440 C.3       1 GLC5        0.0000 
     12 CA         26.2020   51.6250   -2.8340 C.3       3 GLL5        0.0000 
     13 CA         23.5500   52.5850    0.1460 C.3       2 GLP5        0.0000 
     14 CA         28.8015   52.9175    3.3740 C.3       1 GLC5        0.0000 
     15 CA         26.8950   52.0880    3.2510 C.3       3 GLL5        0.0000 
     16 CA         30.7080   53.7470    3.4970 C.3       2 GLP5        0.0000 
     17 CA         27.8280   51.5640    4.8025 C.3       1 GLC5        0.0000 
     18 CA         28.7610   51.0400    6.3540 C.3       2 GLP5        0.0000 
     19 CA         25.0090   52.6015    2.9240 C.3       1 GLC5        0.0000 
     20 CA         23.1230   53.1150    2.5970 C.3       2 GLP5        0.0000 
     21 CA         25.1415   51.9665    1.1550 C.3       1 GLC5        0.0000 
     22 CA         26.7330   51.3480    2.1640 C.3       3 GLL5        0.0000 
     23 CA         24.8825   50.9535    0.5445 C.3       1 GLC5        0.0000 
     24 CA         26.2150   49.3220    0.9430 C.3       3 GLL5        0.0000 
     25 CA         27.3595   46.5495   -1.3515 C.3       1 GLC5        0.0000 
     26 CA         25.6130   47.7330   -1.6030 C.3       3 GLL5        0.0000 
     27 CA         29.1060   45.3660   -1.1000 C.3       2 GLP5        0.0000 
     28 CA         23.7355   48.4930   -1.3095 C.3       1 GLC5        0.0000 
     29 CA         21.8580   49.2530   -1.0160 C.3       2 GLP5        0.0000 
     30 CA         29.9625   50.4570   -4.3793 C.3       1 GLC5        0.0000 
     31 CA         31.5490   50.2360   -5.3520 C.3       2 GLP5        0.0000 
     32 CA         28.7402   55.7647   -0.0297 C.3       1 GLC5        0.0000 
     33 CA         27.4470   54.2010   -0.6080 C.3       3 GLL5        0.0000 
     34 CA         30.0060   57.2040   -0.1300 C.3       2 GLP5        0.0000 
     35 CA         29.0415   53.8350    2.3320 C.3       1 GLC5        0.0000 
     36 CA         27.5020   54.4500    0.7490 C.3       3 GLL5        0.0000 
     37 CA         29.0991   52.7264    0.5979 C.3       1 GLC5        0.0000 
     38 CA         27.2480   53.3960    1.5850 C.3       3 GLL5        0.0000 
     39 CA         30.8370   51.5920    0.3680 C.3       2 GLP5        0.0000 
     40 CA         25.4556   53.2229    0.4869 C.3       1 GLC5        0.0000 
     41 CA         26.3491   55.4369    1.3239 C.3       1 GLC5        0.0000 
     42 CA         25.3370   57.0130    1.8200 C.3       2 GLP5        0.0000 
     43 CA         27.5263   48.2267    2.5802 C.3       1 GLC5        0.0000 
     44 CA         26.3480   50.0310    2.1260 C.3       3 GLL5        0.0000 
     45 CA         28.7710   46.7770    3.6260 C.3       2 GLP5        0.0000 
     46 CA         24.4625   50.7120    2.8635 C.3       1 GLC5        0.0000 
     47 CA         26.0300   49.4470    3.3460 C.3       3 GLL5        0.0000 
     48 CA         22.7360   51.6850    2.9910 C.3       2 GLP5        0.0000 
     49 CA         28.3709   49.5919    1.1165 C.3       1 GLC5        0.0000 
     50 CA         30.3640   49.1780    0.6890 C.3       2 GLP5        0.0000 
     51 CA         24.0630   48.4483    1.1310 C.3       1 GLC5        0.0000 
     52 CA         22.1170   48.2270    1.2730 C.3       2 GLP5        0.0000 
     53 CA         27.2905   47.7832    3.5055 C.3       1 GLC5        0.0000 
     54 CA         25.5900   48.1320    3.4240 C.3       3 GLL5        0.0000 
     55 CA         24.7895   49.1132    5.0205 C.3       1 GLC5        0.0000 
     56 CA         23.7690   49.4370    6.6560 C.3       2 GLP5        0.0000 
     57 CA         26.6665   48.9357    5.3290 C.3       1 GLC5        0.0000 
     58 CA         27.5230   49.0820    7.2730 C.3       2 GLP5        0.0000 
     59 CA         25.1358   45.8340    3.7145 C.3       1 GLC5        0.0000 
     60 CA         24.7350   43.8920    4.5940 C.3       2 GLP5        0.0000 
     61 CA         23.8268   48.0015    2.0540 C.3       1 GLC5        0.0000 
     62 CA         25.4830   47.4200    2.2460 C.3       3 GLL5        0.0000 
     63 CA         27.2070   47.2478    2.6332 C.3       1 GLC5        0.0000 
@<TRIPOS>BOND
@<TRIPOS>SUBSTRUCTURE
     1 GLC5        1 GROUP        1 X    GLC  0     ROOT GLC X 6
     2 GLP5        3 GROUP        1 Y    GLP  0     ROOT GLP Y 13
     3 GLL5        2 GROUP        1 Z    GLL  0     ROOT GLL Z 20
@<TRIPOS>SET

