#    Name: 2c3i_IYZ_1_ligand
#    Modification time : Mon Mar 24 22:28:30 2014

@<TRIPOS>MOLECULE
2c3i_IYZ_1_ligand
   42    45     1     0     0
SMALL
NO_CHARGES


@<TRIPOS>ATOM
      1 CAJ        28.5410   50.6080   -2.6660 C.3       1 IYZ1306     0.0000 
      2 CAK        28.2110   50.7480   -4.1470 C.3       1 IYZ1306     0.0000 
      3 CAV        27.1030   50.4290   -3.1460 C.3       1 IYZ1306     0.0000 
      4 CAL        26.2020   51.6250   -2.8340 C.3       1 IYZ1306     0.0000 
      5 NAO        27.0630   52.6920   -2.2940 N.pl3     1 IYZ1306     0.0000 
      6 CAS        27.1300   52.9170   -1.0060 C.2       1 IYZ1306     0.0000 
      7 CAF        27.4470   54.2010   -0.6080 C.2       1 IYZ1306     0.0000 
      8 CAG        27.5020   54.4500    0.7490 C.2       1 IYZ1306     0.0000 
      9 NAN        26.8670   51.9210   -0.1470 N.2       1 IYZ1306     0.0000 
     10 NAW        26.9220   52.1300    1.0650 N.pl3     1 IYZ1306     0.0000 
     11 CAU        27.2480   53.3960    1.5850 C.2       1 IYZ1306     0.0000 
     12 NAM        27.2170   53.3200    2.8880 N.pl3     1 IYZ1306     0.0000 
     13 CAH        26.8950   52.0880    3.2510 C.2       1 IYZ1306     0.0000 
     14 CAT        26.7330   51.3480    2.1640 C.2       1 IYZ1306     0.0000 
     15 CAR        26.3480   50.0310    2.1260 C.ar      1 IYZ1306     0.0000 
     16 CAI        26.2150   49.3220    0.9430 C.ar      1 IYZ1306     0.0000 
     17 CAE        26.0300   49.4470    3.3460 C.ar      1 IYZ1306     0.0000 
     18 CAC        25.5900   48.1320    3.4240 C.ar      1 IYZ1306     0.0000 
     19 CAD        25.4830   47.4200    2.2460 C.ar      1 IYZ1306     0.0000 
     20 CAQ        25.8030   48.0170    1.0350 C.ar      1 IYZ1306     0.0000 
     21 CAP        25.6390   47.1570   -0.1820 C.2       1 IYZ1306     0.0000 
     22 CAA        25.6130   47.7330   -1.6030 C.3       1 IYZ1306     0.0000 
     23 OAB        25.5090   45.9580    0.0200 O.2       1 IYZ1306     0.0000 
     24 H          28.6150   51.4789   -2.3048 H         1 IYZ1306     0.0000 
     25 H          28.9071   49.7461   -2.5336 H         1 IYZ1306     0.0000 
     26 H          28.4524   49.9388   -4.5727 H         1 IYZ1306     0.0000 
     27 H          28.1603   51.6715   -4.3438 H         1 IYZ1306     0.0000 
     28 H          26.9041   49.5411   -3.1860 H         1 IYZ1306     0.0000 
     29 H          25.4625   51.3209   -2.1078 H         1 IYZ1306     0.0000 
     30 H          25.7202   51.9426   -3.7470 H         1 IYZ1306     0.0000 
     31 H          27.5948   53.2322   -3.0024 H         1 IYZ1306     0.0000 
     32 H          27.6320   54.9316   -1.2855 H         1 IYZ1306     0.0000 
     33 H          27.7209   55.3729    1.1044 H         1 IYZ1306     0.0000 
     34 H          27.4028   54.0588    3.5137 H         1 IYZ1306     0.0000 
     35 H          26.7931   51.7745    4.1724 H         1 IYZ1306     0.0000 
     36 H          26.4156   49.7561    0.0493 H         1 IYZ1306     0.0000 
     37 H          26.1232   50.0049    4.2164 H         1 IYZ1306     0.0000 
     38 H          25.3563   47.7127    4.3175 H         1 IYZ1306     0.0000 
     39 H          25.1635   46.4381    2.2629 H         1 IYZ1306     0.0000 
     40 H          26.4615   48.2137   -1.8245 H         1 IYZ1306     0.0000 
     41 H          25.4930   47.0178   -2.2915 H         1 IYZ1306     0.0000 
     42 H          24.8656   48.3861   -1.7254 H         1 IYZ1306     0.0000 
@<TRIPOS>BOND
     1    2    1 1    
     2    3    1 1    
     3   24    1 1    
     4   25    1 1    
     5    3    2 1    
     6   26    2 1    
     7   27    2 1    
     8    4    3 1    
     9   28    3 1    
    10    5    4 1    
    11   29    4 1    
    12   30    4 1    
    13    6    5 1    
    14   31    5 1    
    15    7    6 1    
    16    9    6 2    
    17    8    7 2    
    18   32    7 1    
    19   11    8 1    
    20   33    8 1    
    21   10    9 1    
    22   11   10 1    
    23   14   10 1    
    24   12   11 2    
    25   13   12 1    
    26   34   12 1    
    27   14   13 2    
    28   35   13 1    
    29   15   14 1    
    30   16   15 ar   
    31   17   15 ar   
    32   20   16 ar   
    33   36   16 1    
    34   18   17 ar   
    35   37   17 1    
    36   19   18 ar   
    37   38   18 1    
    38   20   19 ar   
    39   39   19 1    
    40   21   20 1    
    41   22   21 1    
    42   23   21 2    
    43   40   22 1    
    44   41   22 1    
    45   42   22 1    
@<TRIPOS>SUBSTRUCTURE
     1 IYZ1306     1 GROUP   
@<TRIPOS>SET

