#    Name: 1w0g_MYT_1_INTS_M
#    Modification time : Tue Mar 25 08:21:43 2014

@<TRIPOS>MOLECULE
1w0g_MYT_1_INTS_M
   24     0     3     0     0
SMALL
NO_CHARGES


@<TRIPOS>ATOM
      1 CA         57.1265   87.0260   10.5425 C.3       1 GLC5        0.0000 
      2 CA         57.7310   85.1200   11.1120 C.3       3 GLL5        0.0000 
      3 CA         56.5220   88.9320    9.9730 C.3       2 GLP5        0.0000 
      4 CA         57.8345   83.2025    6.4240 C.3       1 GLC5        0.0000 
      5 CA         58.6330   81.8560    7.4390 C.3       3 GLL5        0.0000 
      6 CA         57.0360   84.5490    5.4090 C.3       2 GLP5        0.0000 
      7 CA         59.3995   81.6285    5.6610 C.3       1 GLC5        0.0000 
      8 CA         60.1660   81.4010    3.8830 C.3       2 GLP5        0.0000 
      9 CA         60.6195   81.1335    6.7440 C.3       1 GLC5        0.0000 
     10 CA         62.6060   80.4110    6.0490 C.3       2 GLP5        0.0000 
     11 CA         61.9045   81.9645    7.8340 C.3       1 GLC5        0.0000 
     12 CA         60.5090   82.5700    8.9140 C.3       3 GLL5        0.0000 
     13 CA         63.3000   81.3590    6.7540 C.3       2 GLP5        0.0000 
     14 CA         58.5465   83.7111   14.4859 C.3       1 GLC5        0.0000 
     15 CA         58.4360   85.1170   13.3040 C.3       3 GLL5        0.0000 
     16 CA         58.3460   83.0710   16.0820 C.3       2 GLP5        0.0000 
     17 CA         58.6612   79.9312    8.0162 C.3       1 GLC5        0.0000 
     18 CA         59.0340   82.1570    8.8920 C.3       3 GLL5        0.0000 
     19 CA         58.4890   77.8560    7.8670 C.3       2 GLP5        0.0000 
     20 CA         59.7985   77.7435   11.8725 C.3       1 GLC5        0.0000 
     21 CA         58.0810   78.7220   11.0960 C.3       3 GLL5        0.0000 
     22 CA         60.8720   76.5130   12.6010 C.3       2 GLP5        0.0000 
     23 CA         58.6540   78.7949    9.2374 C.3       1 GLC5        0.0000 
     24 CA         59.7100   80.3380   10.4840 C.3       3 GLL5        0.0000 
@<TRIPOS>BOND
@<TRIPOS>SUBSTRUCTURE
     1 GLC5        1 GROUP        1 X    GLC  0     ROOT GLC X 6
     2 GLP5        3 GROUP        1 Y    GLP  0     ROOT GLP Y 13
     3 GLL5        2 GROUP        1 Z    GLL  0     ROOT GLL Z 20
@<TRIPOS>SET

