#    Name: 1w0g_MYT_1_ligand
#    Modification time : Tue Mar 25 08:21:43 2014

@<TRIPOS>MOLECULE
1w0g_MYT_1_ligand
   31    32     1     0     0
SMALL
NO_CHARGES


@<TRIPOS>ATOM
      1 N1         57.7830   85.6800   12.3180 N.ar      1 MYT1499     0.0000 
      2 C2         57.7310   85.1200   11.1120 C.ar      1 MYT1499     0.0000 
      3 C3         58.3550   83.8950   10.7980 C.ar      1 MYT1499     0.0000 
      4 C4         59.0370   83.2710   11.8550 C.ar      1 MYT1499     0.0000 
      5 C5         59.0790   83.9000   13.0960 C.ar      1 MYT1499     0.0000 
      6 C6         58.4360   85.1170   13.3040 C.ar      1 MYT1499     0.0000 
      7 C7         58.2430   83.3280    9.4350 C.2       1 MYT1499     0.0000 
      8 O8         57.4440   83.8220    8.6770 O.2       1 MYT1499     0.0000 
      9 C9         58.6330   81.8560    7.4390 C.3       1 MYT1499     0.0000 
     10 C10        59.0340   82.1570    8.8920 C.3       1 MYT1499     0.0000 
     11 C11        60.5090   82.5700    8.9140 C.3       1 MYT1499     0.0000 
     12 C12        58.7480   80.9170    9.6810 C.ar      1 MYT1499     0.0000 
     13 C13        57.4840   80.3820    9.6370 C.ar      1 MYT1499     0.0000 
     14 N14        57.1720   79.3100   10.3350 N.ar      1 MYT1499     0.0000 
     15 C15        58.0810   78.7220   11.0960 C.ar      1 MYT1499     0.0000 
     16 C16        59.3690   79.2260   11.1920 C.ar      1 MYT1499     0.0000 
     17 C17        59.7100   80.3380   10.4840 C.ar      1 MYT1499     0.0000 
     18 H          57.2021   85.5927   10.3256 H         1 MYT1499     0.0000 
     19 H          59.4925   82.3713   11.7101 H         1 MYT1499     0.0000 
     20 H          59.5955   83.4567   13.8751 H         1 MYT1499     0.0000 
     21 H          58.4958   85.5457   14.2489 H         1 MYT1499     0.0000 
     22 H          56.7695   80.8555    9.0270 H         1 MYT1499     0.0000 
     23 H          57.8509   77.8600   11.6460 H         1 MYT1499     0.0000 
     24 H          60.0559   78.7538   11.7986 H         1 MYT1499     0.0000 
     25 H          60.6480   80.7388   10.5395 H         1 MYT1499     0.0000 
     26 H          58.8010   82.6373    6.8379 H         1 MYT1499     0.0000 
     27 H          59.1452   81.0829    7.0649 H         1 MYT1499     0.0000 
     28 H          57.6621   81.6296    7.3610 H         1 MYT1499     0.0000 
     29 H          61.1030   81.8447    8.5660 H         1 MYT1499     0.0000 
     30 H          60.6762   83.3804    8.3525 H         1 MYT1499     0.0000 
     31 H          60.8206   82.7853    9.8395 H         1 MYT1499     0.0000 
@<TRIPOS>BOND
     1    2    1 ar   
     2    6    1 ar   
     3    3    2 ar   
     4   18    2 1    
     5    4    3 ar   
     6    7    3 1    
     7    5    4 ar   
     8   19    4 1    
     9    6    5 ar   
    10   20    5 1    
    11   21    6 1    
    12    8    7 2    
    13   10    7 1    
    14   10    9 1    
    15   26    9 1    
    16   27    9 1    
    17   28    9 1    
    18   11   10 1    
    19   12   10 1    
    20   29   11 1    
    21   30   11 1    
    22   31   11 1    
    23   13   12 ar   
    24   17   12 ar   
    25   14   13 ar   
    26   22   13 1    
    27   15   14 ar   
    28   16   15 ar   
    29   23   15 1    
    30   17   16 ar   
    31   24   16 1    
    32   25   17 1    
@<TRIPOS>SUBSTRUCTURE
     1 MYT1499     1 GROUP   
@<TRIPOS>SET

