#    Name: 1ci0_FMN_1_INTS_M
#    Modification time : Mon Mar 24 20:42:49 2014

@<TRIPOS>MOLECULE
1ci0_FMN_1_INTS_M
   84     0    12     0     0
SMALL
NO_CHARGES


@<TRIPOS>ATOM
      1 N         -24.8135    1.6495  -21.4125 N.am      2 SEC2        0.0000 
      2 N         -24.0720    0.9050  -20.2760 N.am     10 SEL2        0.0000 
      3 N         -25.5550    2.3940  -22.5490 N.am      6 SEP2        0.0000 
      4 CA        -31.1140   -6.6170  -14.7120 C.3       4 GLC5        0.0000 
      5 CA        -31.0080   -4.8710  -15.9560 C.3      12 GLL5        0.0000 
      6 CA        -31.2200   -8.3630  -13.4680 C.3       8 GLP5        0.0000 
      7 CA        -29.1825   -5.2865  -14.8660 C.3       4 GLC5        0.0000 
      8 CA        -27.3570   -5.7020  -13.7760 C.3       8 GLP5        0.0000 
      9 CA        -32.6985   -4.8815  -15.2580 C.3       4 GLC5        0.0000 
     10 CA        -34.3890   -4.8920  -14.5600 C.3       8 GLP5        0.0000 
     11 CA        -31.2570   -2.2420  -15.7930 C.3       4 GLC5        0.0000 
     12 CA        -31.0180   -2.8800  -17.5800 C.3      12 GLL5        0.0000 
     13 CA        -31.4960   -1.6040  -14.0060 C.3       8 GLP5        0.0000 
     14 CA        -32.2605   -1.6185  -16.1240 C.3       4 GLC5        0.0000 
     15 CA        -32.5180   -2.9070  -17.5980 C.3      12 GLL5        0.0000 
     16 CA        -32.0030   -0.3300  -14.6500 C.3       8 GLP5        0.0000 
     17 CA        -33.8320   -3.5715  -16.5620 C.3       4 GLC5        0.0000 
     18 CA        -35.1460   -4.2360  -15.5260 C.3       8 GLP5        0.0000 
     19 CA        -32.7520   -3.2795  -19.2750 C.3       4 GLC5        0.0000 
     20 CA        -32.9860   -3.6520  -20.9520 C.3       8 GLP5        0.0000 
     21 CA        -31.1615   -1.1370  -16.4865 C.3       4 GLC5        0.0000 
     22 CA        -30.3200   -1.9440  -18.3230 C.3      12 GLL5        0.0000 
     23 CA        -29.3035    2.8580  -17.7785 C.3       4 GLC5        0.0000 
     24 CA        -29.3290    1.3410  -19.2380 C.3      12 GLL5        0.0000 
     25 CA        -29.2780    4.3750  -16.3190 C.3       8 GLP5        0.0000 
     26 N         -31.8135    0.8435  -18.5450 N.am      2 SEC2        0.0000 
     27 N         -30.3690    1.0490  -18.3110 N.am     10 SEL2        0.0000 
     28 N         -33.2580    0.6380  -18.7790 N.am      6 SEP2        0.0000 
     29 O         -29.8590    0.7090  -17.1965 O.2       1 ALC1        0.0000 
     30 O         -30.3690    1.0490  -18.3110 O.2       9 ALL1        0.0000 
     31 O         -29.3490    0.3690  -16.0820 O.2       5 ALP1        0.0000 
     32 CA        -30.3365    3.4375  -18.4325 C.3       4 GLC5        0.0000 
     33 CA        -29.9280    2.3160  -20.2590 C.3      12 GLL5        0.0000 
     34 CA        -30.7450    4.5590  -16.6060 C.3       8 GLP5        0.0000 
     35 CA        -31.4965    1.4555  -21.4350 C.3       4 GLC5        0.0000 
     36 CA        -33.0650    0.5950  -22.6110 C.3       8 GLP5        0.0000 
     37 CA        -29.3300    4.0450  -18.2255 C.3       4 GLC5        0.0000 
     38 CA        -29.3820    3.7150  -20.1320 C.3      12 GLL5        0.0000 
     39 CA        -28.2255    4.7710  -18.4645 C.3       4 GLC5        0.0000 
     40 CA        -27.8940    3.8790  -20.3600 C.3      12 GLL5        0.0000 
     41 CA        -28.5570    5.6630  -16.5690 C.3       8 GLP5        0.0000 
     42 CA        -26.6015    4.4025  -19.1340 C.3       4 GLC5        0.0000 
     43 CA        -25.3090    4.9260  -17.9080 C.3       8 GLP5        0.0000 
     44 CA        -26.6360    4.1755  -22.0555 C.3       4 GLC5        0.0000 
     45 CA        -25.3780    4.4720  -23.7510 C.3       8 GLP5        0.0000 
     46 N         -26.0985    4.9490  -19.7185 N.am      2 SEC2        0.0000 
     47 N         -27.4410    5.2710  -20.1860 N.am     10 SEL2        0.0000 
     48 N         -24.7560    4.6270  -19.2510 N.am      6 SEP2        0.0000 
     49 NZ        -28.9800    7.6175  -18.1275 N.4       3 LYC4        0.0000 
     50 NZ        -29.3530    6.7590  -19.2830 N.4      11 LYL4        0.0000 
     51 NZ        -28.8400    7.9780  -15.7620 N.4       7 LYP4        0.0000 
     52 NZ        -30.6165    6.5615  -19.4850 N.4       3 LYC4        0.0000 
     53 NZ        -32.4850    7.2350  -18.8970 N.4       7 LYP4        0.0000 
     54 N         -28.9800    7.6175  -18.1275 N.am      2 SEC2        0.0000 
     55 N         -29.3530    6.7590  -19.2830 N.am     10 SEL2        0.0000 
     56 N         -28.6070    8.4760  -16.9720 N.am      6 SEP2        0.0000 
     57 N         -30.6165    6.5615  -19.4850 N.am      2 SEC2        0.0000 
     58 N         -31.8800    6.3640  -19.6870 N.am      6 SEP2        0.0000 
     59 NZ        -29.0730    6.0095  -22.8815 N.4       3 LYC4        0.0000 
     60 NZ        -28.7970    6.7800  -21.7170 N.4      11 LYL4        0.0000 
     61 NZ        -30.6150    4.8760  -23.9310 N.4       7 LYP4        0.0000 
     62 N         -28.0635    7.0165  -22.6635 N.am      2 SEC2        0.0000 
     63 N         -28.7970    6.7800  -21.7170 N.am     10 SEL2        0.0000 
     64 N         -27.3300    7.2530  -23.6100 N.am      6 SEP2        0.0000 
     65 N         -30.1085    6.1515  -22.4090 N.am      2 SEC2        0.0000 
     66 N         -31.4200    5.5230  -23.1010 N.am      6 SEP2        0.0000 
     67 N         -29.0730    6.0095  -22.8815 N.am      2 SEC2        0.0000 
     68 N         -29.3490    5.2390  -24.0460 N.am      6 SEP2        0.0000 
     69 NZ        -25.9590    6.1750  -19.6270 N.4       3 LYC4        0.0000 
     70 NZ        -27.1620    7.7230  -20.0030 N.4      11 LYL4        0.0000 
     71 NZ        -24.7560    4.6270  -19.2510 N.4       7 LYP4        0.0000 
     72 N         -27.8845    8.0995  -18.4875 N.am      2 SEC2        0.0000 
     73 N         -27.1620    7.7230  -20.0030 N.am     10 SEL2        0.0000 
     74 N         -26.5200    8.8080  -19.4045 N.am      2 SEC2        0.0000 
     75 N         -25.8780    9.8930  -18.8060 N.am      6 SEP2        0.0000 
     76 CA        -27.3190   -4.2365  -15.8490 C.3       4 GLC5        0.0000 
     77 CA        -28.1270   -2.7850  -17.5580 C.3      12 GLL5        0.0000 
     78 CA        -26.1340   -5.1970  -14.5220 C.3       8 GLP5        0.0000 
     79 CA        -30.8906   -2.9699  -15.1890 C.3       4 GLC5        0.0000 
     80 CA        -28.0935   -1.5757  -16.0257 C.3       4 GLC5        0.0000 
     81 CA        -27.4810   -0.5890  -14.2920 C.3       8 GLP5        0.0000 
     82 CA        -27.7955    1.1265  -18.0055 C.3       4 GLC5        0.0000 
     83 CA        -28.7990    0.1110  -19.9420 C.3      12 GLL5        0.0000 
     84 CA        -26.5270    1.5270  -16.4210 C.3       8 GLP5        0.0000 
@<TRIPOS>BOND
@<TRIPOS>SUBSTRUCTURE
     1 ALC1       29 GROUP        1 X    ALC  0     ROOT ALC X 1
     2 SEC2        1 GROUP        1 X    SEC  0     **** SEC X 2
     3 LYC4       49 GROUP        1 X    LYC  0     **** LYC X 4
     4 GLC5        4 GROUP        1 X    GLC  0     **** GLC X 6
     5 ALP1       31 GROUP        1 Y    ALP  0     ROOT ALP Y 8
     6 SEP2        3 GROUP        1 Y    SEP  0     **** SEP Y 9
     7 LYP4       51 GROUP        1 Y    LYP  0     **** LYP Y 11
     8 GLP5        6 GROUP        1 Y    GLP  0     **** GLP Y 13
     9 ALL1       30 GROUP        1 Z    ALL  0     ROOT ALL Z 15
    10 SEL2        2 GROUP        1 Z    SEL  0     **** SEL Z 16
    11 LYL4       50 GROUP        1 Z    LYL  0     **** LYL Z 18
    12 GLL5        5 GROUP        1 Z    GLL  0     **** GLL Z 20
@<TRIPOS>SET

