#    Name: 1ci0_FMN_1_ligand
#    Modification time : Mon Mar 24 20:42:49 2014

@<TRIPOS>MOLECULE
1ci0_FMN_1_ligand
   50    52     1     0     0
SMALL
NO_CHARGES


@<TRIPOS>ATOM
      1 N1        -26.0910    0.0630  -19.7240 N.2       1 FMN301      0.0000 
      2 C2        -24.7290    0.1040  -19.6870 C.2       1 FMN301      0.0000 
      3 O2        -24.0720    0.9050  -20.2760 O.2       1 FMN301      0.0000 
      4 N3        -24.0310   -0.8560  -18.8970 N.am      1 FMN301      0.0000 
      5 C4        -24.6090   -1.8310  -18.1590 C.2       1 FMN301      0.0000 
      6 O4        -23.9100   -2.6150  -17.5100 O.2       1 FMN301      0.0000 
      7 C4A       -26.0780   -1.8780  -18.1920 C.2       1 FMN301      0.0000 
      8 N5        -26.7530   -2.7860  -17.5020 N.2       1 FMN301      0.0000 
      9 C5A       -28.1270   -2.7850  -17.5580 C.ar      1 FMN301      0.0000 
     10 C6        -28.8810   -3.7670  -16.7940 C.ar      1 FMN301      0.0000 
     11 C7        -30.2440   -3.8340  -16.7820 C.ar      1 FMN301      0.0000 
     12 C7M       -31.0080   -4.8710  -15.9560 C.3       1 FMN301      0.0000 
     13 C8        -31.0180   -2.8800  -17.5800 C.ar      1 FMN301      0.0000 
     14 C8M       -32.5180   -2.9070  -17.5980 C.3       1 FMN301      0.0000 
     15 C9        -30.3200   -1.9440  -18.3230 C.ar      1 FMN301      0.0000 
     16 C9A       -28.9080   -1.8490  -18.3430 C.ar      1 FMN301      0.0000 
     17 N10       -28.1500   -0.9000  -19.0820 N.pl3     1 FMN301      0.0000 
     18 C10       -26.7600   -0.8580  -19.0340 C.2       1 FMN301      0.0000 
     19 C1'       -28.7990    0.1110  -19.9420 C.3       1 FMN301      0.0000 
     20 C2'       -29.3290    1.3410  -19.2380 C.3       1 FMN301      0.0000 
     21 O2'       -30.3690    1.0490  -18.3110 O.3       1 FMN301      0.0000 
     22 C3'       -29.9280    2.3160  -20.2590 C.3       1 FMN301      0.0000 
     23 O3'       -29.7300    1.8420  -21.6410 O.3       1 FMN301      0.0000 
     24 C4'       -29.3820    3.7150  -20.1320 C.3       1 FMN301      0.0000 
     25 O4'       -30.0300    4.5180  -21.1300 O.3       1 FMN301      0.0000 
     26 C5'       -27.8940    3.8790  -20.3600 C.3       1 FMN301      0.0000 
     27 O5'       -27.4410    5.2710  -20.1860 O.3       1 FMN301      0.0000 
     28 P         -28.2660    6.6670  -20.3260 P.3       1 FMN301      0.0000 
     29 O1P       -29.3530    6.7590  -19.2830 O.co2     1 FMN301      0.0000 
     30 O2P       -28.7970    6.7800  -21.7170 O.co2     1 FMN301      0.0000 
     31 O3P       -27.1620    7.7230  -20.0030 O.co2     1 FMN301      0.0000 
     32 H         -22.9670   -0.7746  -18.9078 H         1 FMN301      0.0000 
     33 H         -28.3112   -4.4460  -16.2323 H         1 FMN301      0.0000 
     34 H         -30.8586   -1.2576  -18.9113 H         1 FMN301      0.0000 
     35 H         -29.6441   -0.3612  -20.5029 H         1 FMN301      0.0000 
     36 H         -28.0828    0.4441  -20.7344 H         1 FMN301      0.0000 
     37 H         -28.5104    1.8565  -18.7551 H         1 FMN301      0.0000 
     38 H         -31.0154    2.3656  -20.0671 H         1 FMN301      0.0000 
     39 H         -29.6300    4.1086  -19.1523 H         1 FMN301      0.0000 
     40 H         -27.6545    3.5264  -21.3789 H         1 FMN301      0.0000 
     41 H         -27.3568    3.2147  -19.6601 H         1 FMN301      0.0000 
     42 H         -30.7730   -5.8054  -16.2237 H         1 FMN301      0.0000 
     43 H         -30.8097   -4.7872  -14.9794 H         1 FMN301      0.0000 
     44 H         -31.9976   -4.7755  -16.0634 H         1 FMN301      0.0000 
     45 H         -32.8697   -3.7829  -17.9284 H         1 FMN301      0.0000 
     46 H         -32.9030   -2.7615  -16.6866 H         1 FMN301      0.0000 
     47 H         -32.8951   -2.1967  -18.1924 H         1 FMN301      0.0000 
     48 H         -29.9774    0.3721  -17.6877 H         1 FMN301      0.0000 
     49 H         -29.9513    2.6280  -22.2183 H         1 FMN301      0.0000 
     50 H         -29.2942    5.0434  -21.5570 H         1 FMN301      0.0000 
@<TRIPOS>BOND
     1    2    1 1    
     2   18    1 2    
     3    3    2 2    
     4    4    2 am   
     5    5    4 am   
     6   32    4 1    
     7    6    5 2    
     8    7    5 1    
     9    8    7 2    
    10   18    7 1    
    11    9    8 1    
    12   10    9 ar   
    13   16    9 ar   
    14   11   10 ar   
    15   33   10 1    
    16   12   11 1    
    17   13   11 ar   
    18   42   12 1    
    19   43   12 1    
    20   44   12 1    
    21   14   13 1    
    22   15   13 ar   
    23   45   14 1    
    24   46   14 1    
    25   47   14 1    
    26   16   15 ar   
    27   34   15 1    
    28   17   16 1    
    29   18   17 1    
    30   19   17 1    
    31   20   19 1    
    32   35   19 1    
    33   36   19 1    
    34   21   20 1    
    35   22   20 1    
    36   37   20 1    
    37   48   21 1    
    38   23   22 1    
    39   24   22 1    
    40   38   22 1    
    41   49   23 1    
    42   25   24 1    
    43   26   24 1    
    44   39   24 1    
    45   50   25 1    
    46   27   26 1    
    47   40   26 1    
    48   41   26 1    
    49   28   27 1    
    50   29   28 ar   
    51   30   28 ar   
    52   31   28 ar   
@<TRIPOS>SUBSTRUCTURE
     1 FMN301      1 GROUP   
@<TRIPOS>SET

