#    Name: 3nd6_ATP_5_INTS_M
#    Modification time : Tue Mar 25 01:19:28 2014

@<TRIPOS>MOLECULE
3nd6_ATP_5_INTS_M
   56     0     9     0     0
SMALL
NO_CHARGES


@<TRIPOS>ATOM
      1 N         -15.3130  -31.3350   17.1105 N.am      2 SEC2        0.0000 
      2 N         -14.4830  -30.4890   17.9500 N.am      8 SEL2        0.0000 
      3 N         -16.1430  -32.1810   16.2710 N.am      5 SEP2        0.0000 
      4 N         -12.4815  -31.7130   15.9560 N.am      2 SEC2        0.0000 
      5 N         -11.4740  -31.1040   16.6560 N.am      8 SEL2        0.0000 
      6 N         -13.4890  -32.3220   15.2560 N.am      5 SEP2        0.0000 
      7 N          -9.0935  -33.1115   22.0130 N.am      2 SEC2        0.0000 
      8 N          -9.0540  -32.1630   20.6150 N.am      8 SEL2        0.0000 
      9 N          -9.1330  -34.0600   23.4110 N.am      5 SEP2        0.0000 
     10 N         -10.3265  -32.7795   21.6225 N.am      2 SEC2        0.0000 
     11 N         -11.5990  -33.3960   22.6300 N.am      5 SEP2        0.0000 
     12 N          -8.6335  -32.6525   19.0020 N.am      2 SEC2        0.0000 
     13 N          -8.2130  -33.1420   17.3890 N.am      5 SEP2        0.0000 
     14 N          -9.0450  -32.0885   17.9570 N.am      2 SEC2        0.0000 
     15 N          -9.8770  -31.0350   18.5250 N.am      8 SEL2        0.0000 
     16 CA         -6.7385  -31.8610   21.6570 C.3       3 GLC5        0.0000 
     17 CA         -6.5910  -30.5140   19.9280 C.3       9 GLL5        0.0000 
     18 CA         -6.8860  -33.2080   23.3860 C.3       6 GLP5        0.0000 
     19 CA         -6.7555  -31.8945   18.4355 C.3       3 GLC5        0.0000 
     20 CA         -6.9200  -33.2750   16.9430 C.3       6 GLP5        0.0000 
     21 N          -3.9105  -26.8690   18.6940 N.am      2 SEC2        0.0000 
     22 N          -5.1950  -27.1160   19.6520 N.am      8 SEL2        0.0000 
     23 N          -2.6260  -26.6220   17.7360 N.am      5 SEP2        0.0000 
     24 O          -5.6920  -26.0155   20.3700 O.2       1 ALC1        0.0000 
     25 O          -5.1950  -27.1160   19.6520 O.2       7 ALL1        0.0000 
     26 O          -6.1890  -24.9150   21.0880 O.2       4 ALP1        0.0000 
     27 O          -5.8210  -25.6240   17.4370 O.2       1 ALC1        0.0000 
     28 O          -6.9820  -26.4070   17.7260 O.2       7 ALL1        0.0000 
     29 O          -4.6600  -24.8410   17.1480 O.2       4 ALP1        0.0000 
     30 CA         -4.1065  -29.0425   16.3385 C.3       3 GLC5        0.0000 
     31 CA         -5.9590  -28.5670   17.1750 C.3       9 GLL5        0.0000 
     32 CA         -2.2540  -29.5180   15.5020 C.3       6 GLP5        0.0000 
     33 CA         -4.4330  -27.4250   16.7650 C.3       3 GLC5        0.0000 
     34 CA         -2.9070  -26.2830   16.3550 C.3       6 GLP5        0.0000 
     35 CA         -6.0780  -27.8025   11.2765 C.3       3 GLC5        0.0000 
     36 CA         -6.9650  -29.4890   12.3820 C.3       9 GLL5        0.0000 
     37 CA         -5.1910  -26.1160   10.1710 C.3       6 GLP5        0.0000 
     38 CA         -7.0340  -30.1440   10.2360 C.3       3 GLC5        0.0000 
     39 CA         -7.1030  -30.7990    8.0900 C.3       6 GLP5        0.0000 
     40 O          -9.3185  -29.8805   11.9055 O.2       1 ALC1        0.0000 
     41 O          -7.8510  -30.0230   11.5140 O.2       7 ALL1        0.0000 
     42 O         -10.7860  -29.7380   12.2970 O.2       4 ALP1        0.0000 
     43 CA         -3.0945  -28.8905   13.0110 C.3       3 GLC5        0.0000 
     44 CA         -4.9400  -28.3540   12.7990 C.3       9 GLL5        0.0000 
     45 CA         -1.2490  -29.4270   13.2230 C.3       6 GLP5        0.0000 
     46 CA         -5.0655  -27.2350   11.4850 C.3       3 GLC5        0.0000 
     47 CA         -4.2370  -29.2090   15.1030 C.3       3 GLC5        0.0000 
     48 CA         -6.2200  -28.9000   14.7040 C.3       9 GLL5        0.0000 
     49 CA         -4.3190  -30.6668   19.3802 C.3       3 GLC5        0.0000 
     50 CA         -5.6770  -29.4350   19.3450 C.3       9 GLL5        0.0000 
     51 CA         -2.5040  -31.3590   19.1240 C.3       6 GLP5        0.0000 
     52 CA         -6.6573  -31.2035   12.2150 C.3       3 GLC5        0.0000 
     53 CA         -7.2260  -29.5210   13.8400 C.3       9 GLL5        0.0000 
     54 CA         -6.2190  -32.9020   11.3190 C.3       6 GLP5        0.0000 
     55 CA         -8.2628  -27.7920   13.1370 C.3       3 GLC5        0.0000 
     56 CA         -9.4300  -26.0790   13.1630 C.3       6 GLP5        0.0000 
@<TRIPOS>BOND
@<TRIPOS>SUBSTRUCTURE
     1 ALC1       24 GROUP        1 X    ALC  0     ROOT ALC X 1
     2 SEC2        1 GROUP        1 X    SEC  0     **** SEC X 2
     3 GLC5       16 GROUP        1 X    GLC  0     **** GLC X 6
     4 ALP1       26 GROUP        1 Y    ALP  0     ROOT ALP Y 8
     5 SEP2        3 GROUP        1 Y    SEP  0     **** SEP Y 9
     6 GLP5       18 GROUP        1 Y    GLP  0     **** GLP Y 13
     7 ALL1       25 GROUP        1 Z    ALL  0     ROOT ALL Z 15
     8 SEL2        2 GROUP        1 Z    SEL  0     **** SEL Z 16
     9 GLL5       17 GROUP        1 Z    GLL  0     **** GLL Z 20
@<TRIPOS>SET

