#    Name: 3nd6_ATP_5_ligand
#    Modification time : Tue Mar 25 01:19:28 2014

@<TRIPOS>MOLECULE
3nd6_ATP_5_ligand
   43    45     1     0     0
SMALL
NO_CHARGES


@<TRIPOS>ATOM
      1 PG        -13.7880  -30.3330   19.2830 P.3       1 ATP965      0.0000 
      2 O1G       -14.4830  -30.4890   17.9500 O.co2     1 ATP965      0.0000 
      3 O2G       -14.3310  -31.2310   20.3720 O.co2     1 ATP965      0.0000 
      4 O3G       -13.5580  -28.8990   19.7060 O.co2     1 ATP965      0.0000 
      5 PB        -11.2430  -30.3800   17.9670 P.3       1 ATP965      0.0000 
      6 O1B       -11.1920  -28.8740   18.0410 O.co2     1 ATP965      0.0000 
      7 O2B       -11.4740  -31.1040   16.6560 O.co2     1 ATP965      0.0000 
      8 O3B       -12.2990  -30.9250   19.0640 O.3       1 ATP965      0.0000 
      9 PA         -9.2820  -30.8050   20.0030 P.3       1 ATP965      0.0000 
     10 O1A       -10.1240  -29.7830   20.7130 O.co2     1 ATP965      0.0000 
     11 O2A        -9.0540  -32.1630   20.6150 O.co2     1 ATP965      0.0000 
     12 O3A        -9.8770  -31.0350   18.5250 O.3       1 ATP965      0.0000 
     13 O5'        -7.9090  -30.0790   19.6080 O.3       1 ATP965      0.0000 
     14 C5'        -6.5910  -30.5140   19.9280 C.3       1 ATP965      0.0000 
     15 C4'        -5.6770  -29.4350   19.3450 C.3       1 ATP965      0.0000 
     16 O4'        -5.5110  -29.6840   17.9450 O.3       1 ATP965      0.0000 
     17 C3'        -6.2750  -28.0360   19.4570 C.3       1 ATP965      0.0000 
     18 O3'        -5.1950  -27.1160   19.6520 O.3       1 ATP965      0.0000 
     19 C2'        -6.8990  -27.7920   18.0890 C.3       1 ATP965      0.0000 
     20 O2'        -6.9820  -26.4070   17.7260 O.3       1 ATP965      0.0000 
     21 C1'        -5.9590  -28.5670   17.1750 C.3       1 ATP965      0.0000 
     22 N9         -6.6640  -29.0500   15.9560 N.pl3     1 ATP965      0.0000 
     23 C8         -7.8460  -29.7030   15.9260 C.2       1 ATP965      0.0000 
     24 N7         -8.1980  -29.9900   14.6500 N.2       1 ATP965      0.0000 
     25 C5         -7.2260  -29.5210   13.8400 C.ar      1 ATP965      0.0000 
     26 C6         -6.9650  -29.4890   12.3820 C.ar      1 ATP965      0.0000 
     27 N6         -7.8510  -30.0230   11.5140 N.pl3     1 ATP965      0.0000 
     28 N1         -5.8260  -28.9010   11.9480 N.ar      1 ATP965      0.0000 
     29 C2         -4.9400  -28.3540   12.7990 C.ar      1 ATP965      0.0000 
     30 N3         -5.1210  -28.3400   14.1330 N.ar      1 ATP965      0.0000 
     31 C4         -6.2200  -28.9000   14.7040 C.ar      1 ATP965      0.0000 
     32 H          -6.3431  -31.4505   19.4599 H         1 ATP965      0.0000 
     33 H          -6.4202  -30.5589   20.9893 H         1 ATP965      0.0000 
     34 H          -4.7375  -29.4523   19.8490 H         1 ATP965      0.0000 
     35 H          -6.9979  -28.0198   20.1910 H         1 ATP965      0.0000 
     36 H          -7.8454  -28.2977   18.0700 H         1 ATP965      0.0000 
     37 H          -5.1445  -27.9319   16.9122 H         1 ATP965      0.0000 
     38 H          -8.3754  -29.9369   16.7144 H         1 ATP965      0.0000 
     39 H          -8.8054  -30.0373   11.8124 H         1 ATP965      0.0000 
     40 H          -7.4740  -30.3567   10.6499 H         1 ATP965      0.0000 
     41 H          -4.0581  -27.9133   12.4018 H         1 ATP965      0.0000 
     42 H          -5.6284  -26.2166   19.7087 H         1 ATP965      0.0000 
     43 H          -6.1920  -25.9772   18.1632 H         1 ATP965      0.0000 
@<TRIPOS>BOND
     1    2    1 ar   
     2    3    1 ar   
     3    4    1 ar   
     4    8    1 1    
     5    6    5 ar   
     6    7    5 ar   
     7    8    5 1    
     8   12    5 1    
     9   10    9 ar   
    10   11    9 ar   
    11   12    9 1    
    12   13    9 1    
    13   14   13 1    
    14   15   14 1    
    15   32   14 1    
    16   33   14 1    
    17   16   15 1    
    18   17   15 1    
    19   34   15 1    
    20   21   16 1    
    21   18   17 1    
    22   19   17 1    
    23   35   17 1    
    24   42   18 1    
    25   20   19 1    
    26   21   19 1    
    27   36   19 1    
    28   43   20 1    
    29   22   21 1    
    30   37   21 1    
    31   23   22 1    
    32   31   22 1    
    33   24   23 2    
    34   38   23 1    
    35   25   24 1    
    36   26   25 ar   
    37   31   25 ar   
    38   27   26 1    
    39   28   26 ar   
    40   39   27 1    
    41   40   27 1    
    42   29   28 ar   
    43   30   29 ar   
    44   41   29 1    
    45   31   30 ar   
@<TRIPOS>SUBSTRUCTURE
     1 ATP965      1 GROUP   
@<TRIPOS>SET

