#    Name: 3MB8_2_CAVITY_N1_6.mol2
#    Modification time : Tue Mar 11 13:14:57 2014

@<TRIPOS>MOLECULE
3MB8_2_CAVITY_N1_6.mol2
   45     0     5     0     0
SMALL
NO_CHARGES


@<TRIPOS>ATOM
      1 O          64.5272   28.4929   40.4777 O.2       2 ALA2        0.0000 
      2 CA         64.5795   29.8443   39.8290 C.3       5 GLY6        0.0000 
      3 O          63.0975   26.9285   40.5720 O.2       2 ALA2        0.0000 
      4 O          63.1498   28.2800   39.9234 O.2       2 ALA2        0.0000 
      5 CA         65.3655   30.6721   41.6170 C.3       5 GLY6        0.0000 
      6 CA         65.4177   32.0236   40.9684 C.3       5 GLY6        0.0000 
      7 N          63.8836   27.7563   42.3600 N.2       2 ALA2        0.0000 
      8 N          63.9358   29.1078   41.7114 N.2       2 ALA2        0.0000 
      9 CZ         63.9880   30.4593   41.0627 C.ar      4 PHE5        0.0000 
     10 CA         62.4539   26.1920   42.4544 C.3       5 GLY6        0.0000 
     11 CA         62.5061   27.5435   41.8057 C.3       5 GLY6        0.0000 
     12 CZ         62.5583   28.8950   41.1571 C.ar      4 PHE5        0.0000 
     13 NZ         61.0764   25.9792   41.9001 N.2       3 LYS4        0.0000 
     14 NZ         61.1286   27.3307   41.2514 N.2       3 LYS4        0.0000 
     15 CA         64.7218   29.9356   43.4994 C.3       5 GLY6        0.0000 
     16 N          63.2399   27.0198   44.2424 N.2       2 ALA2        0.0000 
     17 CA         63.2921   28.3713   43.5937 C.3       5 GLY6        0.0000 
     18 CA         63.3443   29.7228   42.9451 C.3       5 GLY6        0.0000 
     19 CZ         63.3966   31.0743   42.2964 C.ar      4 PHE5        0.0000 
     20 N          61.8624   26.8070   43.6881 N.2       2 ALA2        0.0000 
     21 CZ         61.9146   28.1585   43.0394 C.ar      4 PHE5        0.0000 
     22 CZ         61.9669   29.5100   42.3908 C.ar      4 PHE5        0.0000 
     23 OG         60.4849   26.5942   43.1338 O.2       1 SER1        0.0000 
     24 CZ         60.5372   27.9457   42.4851 C.ar      4 PHE5        0.0000 
     25 OG         59.1074   26.3814   42.5795 O.2       1 SER1        0.0000 
     26 CZ         59.1597   27.7328   41.9308 C.ar      4 PHE5        0.0000 
     27 O          57.7300   26.1685   42.0251 O.2       2 ALA2        0.0000 
     28 O          62.6484   27.6348   45.4761 O.2       2 ALA2        0.0000 
     29 CA         62.7007   28.9862   44.8274 C.3       5 GLY6        0.0000 
     30 N          61.2187   26.0705   45.5704 N.2       2 ALA2        0.0000 
     31 N          61.2710   27.4219   44.9218 N.2       2 ALA2        0.0000 
     32 CA         61.3232   28.7734   44.2731 C.3       5 GLY6        0.0000 
     33 CA         61.3754   30.1249   43.6245 C.3       5 GLY6        0.0000 
     34 OG         59.8413   25.8576   45.0161 O.2       1 SER1        0.0000 
     35 OG         59.8935   27.2091   44.3675 O.2       1 SER1        0.0000 
     36 CZ         59.9457   28.5606   43.7188 C.ar      4 PHE5        0.0000 
     37 CZ         59.9979   29.9121   43.0702 C.ar      4 PHE5        0.0000 
     38 O          58.5160   26.9963   43.8131 O.2       2 ALA2        0.0000 
     39 N          58.5682   28.3478   43.1645 N.2       2 ALA2        0.0000 
     40 NZ         60.6273   26.6854   46.8041 N.2       3 LYS4        0.0000 
     41 NZ         60.6795   28.0369   46.1555 N.2       3 LYS4        0.0000 
     42 O          59.2498   26.4726   46.2498 O.2       2 ALA2        0.0000 
     43 CA         59.3020   27.8241   45.6011 C.3       5 GLY6        0.0000 
     44 CA         59.3542   29.1756   44.9525 C.3       5 GLY6        0.0000 
     45 O          57.9245   27.6113   45.0468 O.2       2 ALA2        0.0000 
@<TRIPOS>BOND
@<TRIPOS>SUBSTRUCTURE
     1 SER1       23 GROUP   
     2 ALA2        1 GROUP   
     3 LYS4       13 GROUP   
     4 PHE5        9 GROUP   
     5 GLY6        2 GROUP   
@<TRIPOS>SET

