#    Name: 3mb8_IMH_2_INTS_M
#    Modification time : Mon Mar 24 22:57:19 2014

@<TRIPOS>MOLECULE
3mb8_IMH_2_INTS_M
   57     0     9     0     0
SMALL
NO_CHARGES


@<TRIPOS>ATOM
      1 N          57.4695   29.1775   42.3715 N.am      2 SEC2        0.0000 
      2 N          58.4240   28.3130   42.7750 N.am      8 SEL2        0.0000 
      3 N          56.5150   30.0420   41.9680 N.am      5 SEP2        0.0000 
      4 CA         57.3170   29.5315   43.1995 C.3       3 GLC5        0.0000 
      5 CA         59.2900   28.9340   43.7140 C.3       9 GLL5        0.0000 
      6 CA         55.3440   30.1290   42.6850 C.3       6 GLP5        0.0000 
      7 CA         58.5955   31.0005   43.9985 C.3       3 GLC5        0.0000 
      8 CA         57.9010   33.0670   44.2830 C.3       6 GLP5        0.0000 
      9 CA         59.8845   29.7405   42.0625 C.3       3 GLC5        0.0000 
     10 CA         60.4790   30.5470   40.4110 C.3       6 GLP5        0.0000 
     11 CA         60.5365   30.5530   44.4775 C.3       3 GLC5        0.0000 
     12 CA         61.7830   32.1720   45.2410 C.3       6 GLP5        0.0000 
     13 CA         58.8365   29.1285   46.7590 C.3       3 GLC5        0.0000 
     14 CA         60.5090   28.5570   45.8150 C.3       9 GLL5        0.0000 
     15 CA         57.1640   29.7000   47.7030 C.3       6 GLP5        0.0000 
     16 CA         61.1460   30.3645   45.5280 C.3       3 GLC5        0.0000 
     17 O          60.7990   28.4050   48.1090 O.2       1 ALC1        0.0000 
     18 O          60.2990   27.8940   47.0670 O.2       7 ALL1        0.0000 
     19 O          61.2990   28.9160   49.1510 O.2       4 ALP1        0.0000 
     20 CA         62.6690   29.6305   46.1835 C.3       3 GLC5        0.0000 
     21 CA         61.8740   28.1770   45.2470 C.3       9 GLL5        0.0000 
     22 CA         63.4640   31.0840   47.1200 C.3       6 GLP5        0.0000 
     23 N          63.9305   28.5500   46.4570 N.am      2 SEC2        0.0000 
     24 N          62.7520   27.7580   46.2920 N.am      8 SEL2        0.0000 
     25 N          65.1090   29.3420   46.6220 N.am      5 SEP2        0.0000 
     26 O          62.7215   27.4885   47.6245 O.2       1 ALC1        0.0000 
     27 O          62.7520   27.7580   46.2920 O.2       7 ALL1        0.0000 
     28 O          62.6910   27.2190   48.9570 O.2       4 ALP1        0.0000 
     29 O          62.0255   28.3370   47.7215 O.2       1 ALC1        0.0000 
     30 CA         61.2375   24.4700   42.4030 C.3       3 GLC5        0.0000 
     31 CA         61.7360   26.3330   41.8520 C.3       9 GLL5        0.0000 
     32 CA         60.7390   22.6070   42.9540 C.3       6 GLP5        0.0000 
     33 O          62.0320   25.9905   39.5305 O.2       1 ALC1        0.0000 
     34 O          62.3250   26.8000   40.7090 O.2       7 ALL1        0.0000 
     35 O          61.7390   25.1810   38.3520 O.2       4 ALP1        0.0000 
     36 CA         65.9330   28.8550   40.0695 C.3       3 GLC5        0.0000 
     37 CA         63.8190   28.8790   40.1360 C.3       9 GLL5        0.0000 
     38 CA         68.0470   28.8310   40.0030 C.3       6 GLP5        0.0000 
     39 CA         66.3080   30.3050   41.9970 C.3       3 GLC5        0.0000 
     40 CA         64.2110   30.2000   42.0630 C.3       9 GLL5        0.0000 
     41 CA         68.4050   30.4100   41.9310 C.3       6 GLP5        0.0000 
     42 CA         65.1940   29.1940   43.4215 C.3       3 GLC5        0.0000 
     43 CA         66.1770   28.1880   44.7800 C.3       6 GLP5        0.0000 
     44 CA         63.8245   30.9570   43.8965 C.3       3 GLC5        0.0000 
     45 CA         63.4380   31.7140   45.7300 C.3       6 GLP5        0.0000 
     46 CA         64.5425   28.2410   43.5655 C.3       3 GLC5        0.0000 
     47 CA         62.9080   28.2940   42.3510 C.3       9 GLL5        0.0000 
     48 CA         57.9243   29.2785   45.3430 C.3       3 GLC5        0.0000 
     49 CA         59.5030   27.9520   44.8580 C.3       9 GLL5        0.0000 
     50 CA         56.4520   30.1140   46.4000 C.3       6 GLP5        0.0000 
     51 CA         63.8375   27.2032   45.1043 C.3       3 GLC5        0.0000 
     52 CA         65.9270   26.8190   45.4420 C.3       6 GLP5        0.0000 
     53 CA         64.6635   27.1895   39.5905 C.3       3 GLC5        0.0000 
     54 CA         63.0050   27.9510   40.9360 C.3       9 GLL5        0.0000 
     55 CA         65.9150   25.9640   38.6450 C.3       6 GLP5        0.0000 
     56 CA         63.5433   25.9748   41.9549 C.3       3 GLC5        0.0000 
     57 CA         64.6590   24.5020   41.9060 C.3       6 GLP5        0.0000 
@<TRIPOS>BOND
@<TRIPOS>SUBSTRUCTURE
     1 ALC1       17 GROUP        1 X    ALC  0     ROOT ALC X 1
     2 SEC2        1 GROUP        1 X    SEC  0     **** SEC X 2
     3 GLC5        4 GROUP        1 X    GLC  0     **** GLC X 6
     4 ALP1       19 GROUP        1 Y    ALP  0     ROOT ALP Y 8
     5 SEP2        3 GROUP        1 Y    SEP  0     **** SEP Y 9
     6 GLP5        6 GROUP        1 Y    GLP  0     **** GLP Y 13
     7 ALL1       18 GROUP        1 Z    ALL  0     ROOT ALL Z 15
     8 SEL2        2 GROUP        1 Z    SEL  0     **** SEL Z 16
     9 GLL5        5 GROUP        1 Z    GLL  0     **** GLL Z 20
@<TRIPOS>SET

