#    Name: 3mb8_IMH_2_ligand
#    Modification time : Mon Mar 24 22:57:20 2014

@<TRIPOS>MOLECULE
3mb8_IMH_2_ligand
   32    34     1     0     0
SMALL
NO_CHARGES


@<TRIPOS>ATOM
      1 O5'        58.4240   28.3130   42.7750 O.3       1 IMH280      0.0000 
      2 C5'        59.2900   28.9340   43.7140 C.3       1 IMH280      0.0000 
      3 C4'        59.5030   27.9520   44.8580 C.3       1 IMH280      0.0000 
      4 N4'        60.1930   26.7760   44.3390 N.4       1 IMH280      0.0000 
      5 C3'        60.5090   28.5570   45.8150 C.3       1 IMH280      0.0000 
      6 O3'        60.2990   27.8940   47.0670 O.3       1 IMH280      0.0000 
      7 C2'        61.8740   28.1770   45.2470 C.3       1 IMH280      0.0000 
      8 O2'        62.7520   27.7580   46.2920 O.3       1 IMH280      0.0000 
      9 C1'        61.6220   26.9980   44.2860 C.3       1 IMH280      0.0000 
     10 C9         62.0610   27.2120   42.8760 C.2       1 IMH280      0.0000 
     11 C8         61.7360   26.3330   41.8520 C.2       1 IMH280      0.0000 
     12 N7         62.3250   26.8000   40.7090 N.pl3     1 IMH280      0.0000 
     13 C5         63.0050   27.9510   40.9360 C.ar      1 IMH280      0.0000 
     14 C6         63.8190   28.8790   40.1360 C.ar      1 IMH280      0.0000 
     15 O6         63.9880   28.6060   38.8280 O.3       1 IMH280      0.0000 
     16 N1         64.3660   29.9720   40.7290 N.ar      1 IMH280      0.0000 
     17 C2         64.2110   30.2000   42.0630 C.ar      1 IMH280      0.0000 
     18 N3         63.4930   29.4050   42.8760 N.ar      1 IMH280      0.0000 
     19 C4         62.9080   28.2940   42.3510 C.ar      1 IMH280      0.0000 
     20 H          58.8606   29.8442   44.1283 H         1 IMH280      0.0000 
     21 H          60.2629   29.1651   43.2843 H         1 IMH280      0.0000 
     22 H          58.6291   27.7249   45.3403 H         1 IMH280      0.0000 
     23 H          60.3963   29.5801   45.8477 H         1 IMH280      0.0000 
     24 H          62.2505   28.9895   44.6823 H         1 IMH280      0.0000 
     25 H          62.1240   26.1288   44.7073 H         1 IMH280      0.0000 
     26 H          61.2024   25.5544   41.9406 H         1 IMH280      0.0000 
     27 H          62.2598   26.3538   39.8383 H         1 IMH280      0.0000 
     28 H          64.6879   31.0576   42.4785 H         1 IMH280      0.0000 
     29 H          58.9799   28.1890   41.9530 H         1 IMH280      0.0000 
     30 H          60.2782   28.6266   47.7473 H         1 IMH280      0.0000 
     31 H          62.1629   27.6332   47.0904 H         1 IMH280      0.0000 
     32 H          64.9439   28.8304   38.6383 H         1 IMH280      0.0000 
@<TRIPOS>BOND
     1    2    1 1    
     2   29    1 1    
     3    3    2 1    
     4   20    2 1    
     5   21    2 1    
     6    4    3 1    
     7    5    3 1    
     8   22    3 1    
     9    9    4 1    
    10    6    5 1    
    11    7    5 1    
    12   23    5 1    
    13   30    6 1    
    14    8    7 1    
    15    9    7 1    
    16   24    7 1    
    17   31    8 1    
    18   10    9 1    
    19   25    9 1    
    20   11   10 2    
    21   19   10 1    
    22   12   11 1    
    23   26   11 1    
    24   13   12 1    
    25   27   12 1    
    26   14   13 ar   
    27   19   13 ar   
    28   15   14 1    
    29   16   14 ar   
    30   32   15 1    
    31   17   16 ar   
    32   18   17 ar   
    33   28   17 1    
    34   19   18 ar   
@<TRIPOS>SUBSTRUCTURE
     1 IMH280      1 GROUP   
@<TRIPOS>SET

