#    Name: 3ekv_478_1_INTS_M
#    Modification time : Tue Mar 25 02:02:39 2014

@<TRIPOS>MOLECULE
3ekv_478_1_INTS_M
   83     0     9     0     0
SMALL
NO_CHARGES


@<TRIPOS>ATOM
      1 CA         17.3220   25.2405   13.5040 C.3       3 GLC5        0.0000 
      2 CA         18.4240   26.3950   12.1820 C.3       9 GLL5        0.0000 
      3 CA         16.2200   24.0860   14.8260 C.3       6 GLP5        0.0000 
      4 CA         17.5400   30.4495   17.8460 C.3       3 GLC5        0.0000 
      5 CA         19.0380   30.2540   16.2520 C.3       9 GLL5        0.0000 
      6 CA         16.0420   30.6450   19.4400 C.3       6 GLP5        0.0000 
      7 CA         15.3210   30.6925   15.4565 C.3       3 GLC5        0.0000 
      8 CA         16.0720   32.3350   16.3650 C.3       9 GLL5        0.0000 
      9 CA         14.5700   29.0500   14.5480 C.3       6 GLP5        0.0000 
     10 CA         15.1900   36.4505   15.7100 C.3       3 GLC5        0.0000 
     11 CA         16.2840   35.0510   16.7400 C.3       9 GLL5        0.0000 
     12 CA         14.0960   37.8500   14.6800 C.3       6 GLP5        0.0000 
     13 CA         23.1250   34.0575   14.6385 C.3       3 GLC5        0.0000 
     14 CA         22.2520   32.2430   15.0420 C.3       9 GLL5        0.0000 
     15 CA         23.9980   35.8720   14.2350 C.3       6 GLP5        0.0000 
     16 CA         24.0205   31.0220   14.9500 C.3       3 GLC5        0.0000 
     17 CA         25.7890   29.8010   14.8580 C.3       6 GLP5        0.0000 
     18 CA         21.4625   33.8305   13.7195 C.3       3 GLC5        0.0000 
     19 CA         20.6730   35.4180   12.3970 C.3       6 GLP5        0.0000 
     20 CA         22.9950   32.6605   19.0090 C.3       3 GLC5        0.0000 
     21 CA         22.3240   33.2540   17.2740 C.3       9 GLL5        0.0000 
     22 CA         23.6660   32.0670   20.7440 C.3       6 GLP5        0.0000 
     23 CA         23.1610   34.5630   15.7545 C.3       3 GLC5        0.0000 
     24 CA         24.1420   32.1570   17.3470 C.3       3 GLC5        0.0000 
     25 CA         25.9600   31.0600   17.4200 C.3       6 GLP5        0.0000 
     26 CA         26.6435   25.2140   11.7245 C.3       3 GLC5        0.0000 
     27 CA         25.2870   26.5250   11.9820 C.3       9 GLL5        0.0000 
     28 CA         28.0000   23.9030   11.4670 C.3       6 GLP5        0.0000 
     29 O          20.3945   26.4455   14.2350 O.2       1 ALC1        0.0000 
     30 O          20.6520   27.9610   13.7600 O.2       7 ALL1        0.0000 
     31 O          20.1370   24.9300   14.7100 O.2       4 ALP1        0.0000 
     32 O          13.5105   33.7270   18.7995 O.2       1 ALC1        0.0000 
     33 O          14.4000   34.9810   18.2110 O.2       7 ALL1        0.0000 
     34 O          12.6210   32.4730   19.3880 O.2       4 ALP1        0.0000 
     35 N          19.4050   27.5430   17.8235 N.am      2 SEC2        0.0000 
     36 N          19.9580   28.0360   16.5280 N.am      8 SEL2        0.0000 
     37 N          18.8520   27.0500   19.1190 N.am      5 SEP2        0.0000 
     38 O          20.8275   27.7290   17.4410 O.2       1 ALC1        0.0000 
     39 O          19.9580   28.0360   16.5280 O.2       7 ALL1        0.0000 
     40 O          21.6970   27.4220   18.3540 O.2       4 ALP1        0.0000 
     41 O          21.5100   28.4635   16.9915 O.2       1 ALC1        0.0000 
     42 O          23.0620   28.8910   17.4550 O.2       4 ALP1        0.0000 
     43 N          25.3445   24.2975   12.3265 N.am      2 SEC2        0.0000 
     44 N          24.4480   25.4180   11.6380 N.am      8 SEL2        0.0000 
     45 N          26.2410   23.1770   13.0150 N.am      5 SEP2        0.0000 
     46 CA         23.1000   25.8080   13.0813 C.3       3 GLC5        0.0000 
     47 CA         23.4000   25.8700   10.7830 C.3       9 GLL5        0.0000 
     48 CA         22.9400   25.0400   15.1400 C.3       6 GLP5        0.0000 
     49 CA         24.4178   26.6060   13.7218 C.3       3 GLC5        0.0000 
     50 CA         23.9660   26.0580   15.5620 C.3       6 GLP5        0.0000 
     51 CA         26.6268   27.8985   11.9083 C.3       3 GLC5        0.0000 
     52 CA         28.3840   28.6430   11.9350 C.3       6 GLP5        0.0000 
     53 CA         25.9928   27.8775   10.3063 C.3       3 GLC5        0.0000 
     54 CA         27.1160   28.6010    8.7310 C.3       6 GLP5        0.0000 
     55 CA         25.3293   28.4775   13.3697 C.3       3 GLC5        0.0000 
     56 CA         24.4520   27.7830   11.7810 C.3       9 GLL5        0.0000 
     57 CA         24.4055   29.2963   11.5273 C.3       3 GLC5        0.0000 
     58 CA         25.0250   31.0600   11.5330 C.3       6 GLP5        0.0000 
     59 CA         16.3552   26.4967   12.2010 C.3       3 GLC5        0.0000 
     60 CA         18.0450   27.6520   12.6600 C.3       9 GLL5        0.0000 
     61 CA         14.4760   25.9700   11.9810 C.3       6 GLP5        0.0000 
     62 CA         17.2467   30.1495   10.3023 C.3       3 GLC5        0.0000 
     63 CA         17.2640   28.2280   10.4520 C.3       9 GLL5        0.0000 
     64 CA         17.1330   31.9060    9.4840 C.3       6 GLP5        0.0000 
     65 CA         15.9183   27.1815   11.5508 C.3       3 GLC5        0.0000 
     66 CA         16.1894   28.6255   13.5670 C.3       3 GLC5        0.0000 
     67 CA         17.4570   28.5580   11.7890 C.3       9 GLL5        0.0000 
     68 CA         16.2060   26.2445   11.1947 C.3       3 GLC5        0.0000 
     69 CA         17.6400   26.9730    9.9760 C.3       9 GLL5        0.0000 
     70 CA         16.1480   27.8522    9.0075 C.3       3 GLC5        0.0000 
     71 CA         14.8440   28.1040    7.8010 C.3       6 GLP5        0.0000 
     72 CA         18.8666   28.7900    9.6811 C.3       3 GLC5        0.0000 
     73 CA         20.2330   29.8970    8.8140 C.3       6 GLP5        0.0000 
     74 CA         15.6245   32.6433   14.2465 C.3       3 GLC5        0.0000 
     75 CA         17.1060   33.0120   15.7110 C.3       9 GLL5        0.0000 
     76 CA         14.6600   32.6130   12.4550 C.3       6 GLP5        0.0000 
     77 CA         14.0907   34.6442   15.8348 C.3       3 GLC5        0.0000 
     78 CA         15.1760   32.9770   17.2100 C.3       9 GLL5        0.0000 
     79 CA         12.9530   35.6240   14.3650 C.3       6 GLP5        0.0000 
     80 CA         15.7473   32.0745   18.2666 C.3       3 GLC5        0.0000 
     81 CA         15.2810   34.3520   17.3990 C.3       9 GLL5        0.0000 
     82 CA         13.5753   33.2810   16.5586 C.3       3 GLC5        0.0000 
     83 CA         11.6980   33.0580   16.0240 C.3       6 GLP5        0.0000 
@<TRIPOS>BOND
@<TRIPOS>SUBSTRUCTURE
     1 ALC1       29 GROUP        1 X    ALC  0     ROOT ALC X 1
     2 SEC2       35 GROUP        1 X    SEC  0     **** SEC X 2
     3 GLC5        1 GROUP        1 X    GLC  0     **** GLC X 6
     4 ALP1       31 GROUP        1 Y    ALP  0     ROOT ALP Y 8
     5 SEP2       37 GROUP        1 Y    SEP  0     **** SEP Y 9
     6 GLP5        3 GROUP        1 Y    GLP  0     **** GLP Y 13
     7 ALL1       30 GROUP        1 Z    ALL  0     ROOT ALL Z 15
     8 SEL2       36 GROUP        1 Z    SEL  0     **** SEL Z 16
     9 GLL5        2 GROUP        1 Z    GLL  0     **** GLL Z 20
@<TRIPOS>SET

