#    Name: 3ekv_478_1_ligand
#    Modification time : Tue Mar 25 02:02:39 2014

@<TRIPOS>MOLECULE
3ekv_478_1_ligand
   70    72     1     0     0
SMALL
NO_CHARGES


@<TRIPOS>ATOM
      1 C1         23.4000   25.8700   10.7830 C.3       1 478200      0.0000 
      2 C2         24.4520   27.7830   11.7810 C.3       1 478200      0.0000 
      3 C3         21.4400   28.2740   12.7340 C.2       1 478200      0.0000 
      4 C4         23.1200   27.2820   11.2620 C.3       1 478200      0.0000 
      5 C5         19.5870   28.8070   14.2580 C.3       1 478200      0.0000 
      6 C6         19.9690   29.1940   15.6810 C.3       1 478200      0.0000 
      7 C7         18.2760   28.0360   14.1060 C.3       1 478200      0.0000 
      8 C8         18.0450   27.6520   12.6600 C.ar      1 478200      0.0000 
      9 C9         18.4240   26.3950   12.1820 C.ar      1 478200      0.0000 
     10 C10        17.4570   28.5580   11.7890 C.ar      1 478200      0.0000 
     11 C11        18.2320   26.0650   10.8410 C.ar      1 478200      0.0000 
     12 C12        17.2640   28.2280   10.4520 C.ar      1 478200      0.0000 
     13 C13        17.6400   26.9730    9.9760 C.ar      1 478200      0.0000 
     14 C14        19.0380   30.2540   16.2520 C.3       1 478200      0.0000 
     15 C15        20.1020   32.4520   16.4680 C.3       1 478200      0.0000 
     16 C16        21.6130   32.2010   16.4280 C.3       1 478200      0.0000 
     17 C17        17.1060   33.0120   15.7110 C.ar      1 478200      0.0000 
     18 C18        16.0720   32.3350   16.3650 C.ar      1 478200      0.0000 
     19 C19        15.1760   32.9770   17.2100 C.ar      1 478200      0.0000 
     20 C20        15.2810   34.3520   17.3990 C.ar      1 478200      0.0000 
     21 C21        16.2840   35.0510   16.7400 C.ar      1 478200      0.0000 
     22 C22        17.1860   34.3810   15.9070 C.ar      1 478200      0.0000 
     23 C23        22.2520   32.2430   15.0420 C.3       1 478200      0.0000 
     24 C24        22.3240   33.2540   17.2740 C.3       1 478200      0.0000 
     25 C25        25.2870   26.5250   11.9820 C.3       1 478200      0.0000 
     26 N1         20.6520   27.9610   13.7600 N.am      1 478200      0.0000 
     27 N2         19.3690   31.5270   15.5820 N.pl3     1 478200      0.0000 
     28 N3         14.4000   34.9810   18.2110 N.pl3     1 478200      0.0000 
     29 O1         22.2460   27.1400   12.3730 O.3       1 478200      0.0000 
     30 O2         21.4990   29.3460   12.1360 O.2       1 478200      0.0000 
     31 O3         19.9580   28.0360   16.5280 O.3       1 478200      0.0000 
     32 O4         17.4210   31.1750   14.0660 O.2       1 478200      0.0000 
     33 O5         18.7150   33.0920   13.7920 O.2       1 478200      0.0000 
     34 O6         24.4480   25.4180   11.6380 O.3       1 478200      0.0000 
     35 S1         18.1350   32.1960   14.7720 S.o2      1 478200      0.0000 
     36 H          23.7055   25.9137    9.7537 H         1 478200      0.0000 
     37 H          22.5038   25.2880   10.8958 H         1 478200      0.0000 
     38 H          24.3169   28.2771   12.7157 H         1 478200      0.0000 
     39 H          24.9153   28.4086   11.0530 H         1 478200      0.0000 
     40 H          22.7713   27.8611   10.5018 H         1 478200      0.0000 
     41 H          19.5395   29.7031   13.6533 H         1 478200      0.0000 
     42 H          20.9762   29.6207   15.6501 H         1 478200      0.0000 
     43 H          17.4539   28.6607   14.4545 H         1 478200      0.0000 
     44 H          18.3189   27.1373   14.7209 H         1 478200      0.0000 
     45 H          18.8465   25.7107   12.8234 H         1 478200      0.0000 
     46 H          17.1601   29.4842   12.1347 H         1 478200      0.0000 
     47 H          18.5321   25.1425   10.4947 H         1 478200      0.0000 
     48 H          16.8415   28.9129    9.8094 H         1 478200      0.0000 
     49 H          17.4790   26.7265    8.9947 H         1 478200      0.0000 
     50 H          19.2021   30.3274   17.3167 H         1 478200      0.0000 
     51 H          18.0165   29.9687   16.0495 H         1 478200      0.0000 
     52 H          19.9190   33.4937   16.1715 H         1 478200      0.0000 
     53 H          19.7625   32.3390   17.5065 H         1 478200      0.0000 
     54 H          21.8265   31.2353   16.8792 H         1 478200      0.0000 
     55 H          15.9729   31.3062   16.2094 H         1 478200      0.0000 
     56 H          14.4445   32.4450   17.6901 H         1 478200      0.0000 
     57 H          16.3679   36.0708   16.8628 H         1 478200      0.0000 
     58 H          17.9281   34.9257   15.4287 H         1 478200      0.0000 
     59 H          25.6008   26.4890   13.0185 H         1 478200      0.0000 
     60 H          26.1567   26.5896   11.3389 H         1 478200      0.0000 
     61 H          20.7738   27.0440   14.2775 H         1 478200      0.0000 
     62 H          14.5215   35.9685   18.3111 H         1 478200      0.0000 
     63 H          13.7056   34.4025   18.6390 H         1 478200      0.0000 
     64 H          23.2372   32.0762   15.0820 H         1 478200      0.0000 
     65 H          21.8624   31.5527   14.4323 H         1 478200      0.0000 
     66 H          22.1227   33.1307   14.6002 H         1 478200      0.0000 
     67 H          23.3152   33.1217   17.2757 H         1 478200      0.0000 
     68 H          22.1524   34.1795   16.9364 H         1 478200      0.0000 
     69 H          22.0234   33.2294   18.2274 H         1 478200      0.0000 
     70 H          20.8756   27.9961   16.9236 H         1 478200      0.0000 
@<TRIPOS>BOND
     1    4    1 1    
     2   34    1 1    
     3   36    1 1    
     4   37    1 1    
     5    4    2 1    
     6   25    2 1    
     7   38    2 1    
     8   39    2 1    
     9   26    3 am   
    10   29    3 1    
    11   30    3 2    
    12   29    4 1    
    13   40    4 1    
    14    6    5 1    
    15    7    5 1    
    16   26    5 1    
    17   41    5 1    
    18   14    6 1    
    19   31    6 1    
    20   42    6 1    
    21    8    7 1    
    22   43    7 1    
    23   44    7 1    
    24    9    8 ar   
    25   10    8 ar   
    26   11    9 ar   
    27   45    9 1    
    28   12   10 ar   
    29   46   10 1    
    30   13   11 ar   
    31   47   11 1    
    32   13   12 ar   
    33   48   12 1    
    34   49   13 1    
    35   27   14 1    
    36   50   14 1    
    37   51   14 1    
    38   16   15 1    
    39   27   15 1    
    40   52   15 1    
    41   53   15 1    
    42   23   16 1    
    43   24   16 1    
    44   54   16 1    
    45   18   17 ar   
    46   22   17 ar   
    47   35   17 1    
    48   19   18 ar   
    49   55   18 1    
    50   20   19 ar   
    51   56   19 1    
    52   21   20 ar   
    53   28   20 1    
    54   22   21 ar   
    55   57   21 1    
    56   58   22 1    
    57   64   23 1    
    58   65   23 1    
    59   66   23 1    
    60   67   24 1    
    61   68   24 1    
    62   69   24 1    
    63   34   25 1    
    64   59   25 1    
    65   60   25 1    
    66   61   26 1    
    67   35   27 1    
    68   62   28 1    
    69   63   28 1    
    70   70   31 1    
    71   35   32 2    
    72   35   33 2    
@<TRIPOS>SUBSTRUCTURE
     1 478200      1 GROUP   
@<TRIPOS>SET

