#    Name: 4DU3_1_CAVITY_N1_6.mol2
#    Modification time : Mon Mar 10 15:00:06 2014

@<TRIPOS>MOLECULE
4DU3_1_CAVITY_N1_6.mol2
  136     0     7     0     0
SMALL
NO_CHARGES


@<TRIPOS>ATOM
      1 O           1.6211    8.2119   50.7755 O.2       2 ALA2        0.0000 
      2 NZ         -0.3347    7.6371   50.1885 N.2       4 LYS4        0.0000 
      3 CA          1.0311    7.0289   50.0668 C.3       6 GLY6        0.0000 
      4 O           2.3968    6.4207   49.9450 O.2       2 ALA2        0.0000 
      5 CZ          0.4411    5.8459   49.3580 C.ar      5 PHE5        0.0000 
      6 CZ          1.8068    5.2377   49.2363 C.ar      5 PHE5        0.0000 
      7 CZ         -0.1490    4.6629   48.6492 C.ar      5 PHE5        0.0000 
      8 CA         -2.1047    4.0881   48.0621 C.3       6 GLY6        0.0000 
      9 NZ          2.8069   14.2454   52.4160 N.2       4 LYS4        0.0000 
     10 OD1         4.1726   13.6371   52.2943 O.3       3 ASP3        0.0000 
     11 NZ          0.8511   13.6706   51.8290 N.2       4 LYS4        0.0000 
     12 NZ          2.2168   13.0624   51.7072 N.2       4 LYS4        0.0000 
     13 O           3.5826   12.4541   51.5855 O.2       2 ALA2        0.0000 
     14 NZ         -3.8361   14.3123   51.4853 N.2       4 LYS4        0.0000 
     15 NZ         -2.4704   13.7041   51.3636 N.2       4 LYS4        0.0000 
     16 NZ         -1.1047   13.0958   51.2419 N.2       4 LYS4        0.0000 
     17 NZ          0.2611   12.4876   51.1202 N.2       4 LYS4        0.0000 
     18 NZ          1.6268   11.8794   50.9985 N.2       4 LYS4        0.0000 
     19 O           2.9926   11.2711   50.8767 O.2       2 ALA2        0.0000 
     20 OG         -5.7919   13.7375   50.8983 O.2       1 SER1        0.0000 
     21 OG         -4.4261   13.1293   50.7766 O.2       1 SER1        0.0000 
     22 NZ         -3.0604   12.5211   50.6548 N.2       4 LYS4        0.0000 
     23 NZ         -1.6947   11.9128   50.5331 N.2       4 LYS4        0.0000 
     24 NZ          1.0368   10.6964   50.2897 N.2       4 LYS4        0.0000 
     25 CA          2.4025   10.0881   50.1680 C.3       6 GLY6        0.0000 
     26 CA          3.7683    9.4799   50.0462 C.3       6 GLY6        0.0000 
     27 OG         -6.3819   12.5545   50.1895 O.2       1 SER1        0.0000 
     28 OG         -5.0162   11.9463   50.0678 O.2       1 SER1        0.0000 
     29 NZ         -3.6504   11.3381   49.9461 N.2       4 LYS4        0.0000 
     30 NZ         -0.9190   10.1216   49.7026 N.2       4 LYS4        0.0000 
     31 NZ          0.4468    9.5134   49.5809 N.2       4 LYS4        0.0000 
     32 O           1.8125    8.9051   49.4592 O.2       2 ALA2        0.0000 
     33 O           3.1783    8.2969   49.3375 O.2       2 ALA2        0.0000 
     34 CA         -6.9719   11.3715   49.4807 C.3       6 GLY6        0.0000 
     35 N          -5.6062   10.7633   49.3590 N.2       2 ALA2        0.0000 
     36 NZ         -4.2405   10.1550   49.2373 N.2       4 LYS4        0.0000 
     37 NZ         -1.5090    8.9386   48.9938 N.2       4 LYS4        0.0000 
     38 NZ         -0.1432    8.3303   48.8721 N.2       4 LYS4        0.0000 
     39 DU          1.2225    7.7221   48.7504 H         7 CUB7        0.0000 
     40 N           2.5882    7.1139   48.6287 N.2       2 ALA2        0.0000 
     41 NZ         -6.1962    9.5803   48.6502 N.2       4 LYS4        0.0000 
     42 CA         -2.0990    7.7556   48.2851 C.3       6 GLY6        0.0000 
     43 CA         -0.7333    7.1473   48.1633 C.3       6 GLY6        0.0000 
     44 DU          0.6325    6.5391   48.0416 H         7 CUB7        0.0000 
     45 N           1.9982    5.9309   47.9199 N.2       2 ALA2        0.0000 
     46 CA         -1.3233    5.9643   47.4546 C.3       6 GLY6        0.0000 
     47 CZ          0.0425    5.3561   47.3328 C.ar      5 PHE5        0.0000 
     48 CZ          1.4082    4.7479   47.2111 C.ar      5 PHE5        0.0000 
     49 CA         -1.9133    4.7813   46.7458 C.3       6 GLY6        0.0000 
     50 CZ         -0.5476    4.1731   46.6241 C.ar      5 PHE5        0.0000 
     51 CZ          0.8182    3.5649   46.5023 C.ar      5 PHE5        0.0000 
     52 CZ         -1.1376    2.9901   45.9153 C.ar      5 PHE5        0.0000 
     53 OD1         1.6325   15.5468   51.2214 O.3       3 ASP3        0.0000 
     54 OD1         2.9983   14.9386   51.0997 O.3       3 ASP3        0.0000 
     55 OD1         4.3640   14.3304   50.9779 O.3       3 ASP3        0.0000 
     56 NZ         -3.0547   16.1885   50.8778 N.2       4 LYS4        0.0000 
     57 NZ         -0.3232   14.9721   50.6343 N.2       4 LYS4        0.0000 
     58 NZ          1.0425   14.3638   50.5126 N.2       4 LYS4        0.0000 
     59 OD1         2.4082   13.7556   50.3909 O.3       3 ASP3        0.0000 
     60 O           3.7740   13.1474   50.2692 O.2       2 ALA2        0.0000 
     61 NZ         -3.6447   15.0055   50.1690 N.2       4 LYS4        0.0000 
     62 NZ         -2.2790   14.3973   50.0473 N.2       4 LYS4        0.0000 
     63 NZ         -0.9132   13.7890   49.9255 N.2       4 LYS4        0.0000 
     64 OD1         0.4525   13.1808   49.8038 O.3       3 ASP3        0.0000 
     65 OD1         1.8182   12.5726   49.6821 O.3       3 ASP3        0.0000 
     66 OD1         3.1840   11.9644   49.5604 O.3       3 ASP3        0.0000 
     67 O           4.5497   11.3561   49.4387 O.2       2 ALA2        0.0000 
     68 OG         -5.6005   14.4307   49.5819 O.2       1 SER1        0.0000 
     69 DU         -4.2347   13.8225   49.4602 H         7 CUB7        0.0000 
     70 DU         -2.8690   13.2143   49.3385 H         7 CUB7        0.0000 
     71 DU         -1.5033   12.6060   49.2168 H         7 CUB7        0.0000 
     72 OD1        -0.1375   11.9978   49.0950 O.3       3 ASP3        0.0000 
     73 OD1         1.2282   11.3896   48.9733 O.3       3 ASP3        0.0000 
     74 CA          2.5939   10.7813   48.8516 C.3       6 GLY6        0.0000 
     75 CA          3.9597   10.1731   48.7299 C.3       6 GLY6        0.0000 
     76 OG         -6.1905   13.2477   48.8731 O.2       1 SER1        0.0000 
     77 DU         -4.8248   12.6395   48.7514 H         7 CUB7        0.0000 
     78 DU         -3.4590   12.0313   48.6297 H         7 CUB7        0.0000 
     79 NZ         -2.0933   11.4230   48.5080 N.2       4 LYS4        0.0000 
     80 OD1        -0.7276   10.8148   48.3863 O.3       3 ASP3        0.0000 
     81 OD1         0.6382   10.2066   48.2645 O.3       3 ASP3        0.0000 
     82 CA          2.0039    9.5983   48.1428 C.3       6 GLY6        0.0000 
     83 OG         -6.7805   12.0647   48.1643 O.2       1 SER1        0.0000 
     84 DU         -5.4148   11.4565   48.0426 H         7 CUB7        0.0000 
     85 DU         -1.3176    9.6318   47.6775 H         7 CUB7        0.0000 
     86 DU          0.0482    9.0236   47.5558 H         7 CUB7        0.0000 
     87 O           1.4139    8.4153   47.4340 O.2       2 ALA2        0.0000 
     88 NZ         -6.0048   10.2735   47.3338 N.2       4 LYS4        0.0000 
     89 DU         -0.5419    7.8406   46.8470 H         7 CUB7        0.0000 
     90 O           0.8239    7.2323   46.7253 O.2       2 ALA2        0.0000 
     91 DU         -1.1319    6.6576   46.1382 H         7 CUB7        0.0000 
     92 DU          0.2339    6.0493   46.0165 H         7 CUB7        0.0000 
     93 O           1.5996    5.4411   45.8948 O.2       2 ALA2        0.0000 
     94 DU         -0.3562    4.8663   45.3077 H         7 CUB7        0.0000 
     95 CZ          1.0096    4.2581   45.1860 C.ar      5 PHE5        0.0000 
     96 CZ          0.4196    3.0751   44.4772 C.ar      5 PHE5        0.0000 
     97 NZ          0.4582   16.8483   50.0267 N.2       4 LYS4        0.0000 
     98 OD1         1.8239   16.2400   49.9050 O.3       3 ASP3        0.0000 
     99 OD1         3.1897   15.6318   49.7833 O.3       3 ASP3        0.0000 
    100 NZ         -1.4976   16.2735   49.4397 N.2       4 LYS4        0.0000 
    101 NZ         -0.1318   15.6653   49.3180 N.2       4 LYS4        0.0000 
    102 OD1         1.2339   15.0570   49.1962 O.3       3 ASP3        0.0000 
    103 OD1         2.5997   14.4488   49.0745 O.3       3 ASP3        0.0000 
    104 OD1        -3.4533   15.6987   48.8526 O.3       3 ASP3        0.0000 
    105 DU         -2.0876   15.0905   48.7309 H         7 CUB7        0.0000 
    106 OD1        -0.7218   14.4823   48.6092 O.3       3 ASP3        0.0000 
    107 DU         -4.0433   14.5157   48.1438 H         7 CUB7        0.0000 
    108 OD1        -1.3119   13.2993   47.9004 O.3       3 ASP3        0.0000 
    109 DU         -4.6334   13.3327   47.4350 H         7 CUB7        0.0000 
    110 DU         -5.2234   12.1497   46.7263 H         7 CUB7        0.0000 
    111 CA          0.2396    9.7168   46.2394 C.3       6 GLY6        0.0000 
    112 O           1.0153    7.9255   45.4089 O.2       2 ALA2        0.0000 
    113 CA          1.7910    6.1343   44.5784 C.3       6 GLY6        0.0000 
    114 CA          1.2010    4.9513   43.8696 C.3       6 GLY6        0.0000 
    115 NZ          1.2396   18.7245   49.4192 N.2       4 LYS4        0.0000 
    116 OD1         2.6054   18.1163   49.2974 O.3       3 ASP3        0.0000 
    117 OD1         3.9711   17.5080   49.1757 O.3       3 ASP3        0.0000 
    118 DU          0.6496   17.5415   48.7104 H         7 CUB7        0.0000 
    119 OD1         2.0153   16.9333   48.5887 O.3       3 ASP3        0.0000 
    120 O           3.3811   16.3250   48.4669 O.2       2 ALA2        0.0000 
    121 DU          0.0596   16.3585   48.0016 H         7 CUB7        0.0000 
    122 OD1         1.4253   15.7503   47.8799 O.3       3 ASP3        0.0000 
    123 OD1         2.7911   15.1420   47.7582 O.3       3 ASP3        0.0000 
    124 DU         -1.8962   15.7837   47.4145 H         7 CUB7        0.0000 
    125 OD1        -0.5304   15.1755   47.2928 O.3       3 ASP3        0.0000 
    126 CA          2.7968   18.8095   47.9811 C.3       6 GLY6        0.0000 
    127 O           4.1625   18.2013   47.8594 O.2       2 ALA2        0.0000 
    128 DU          0.8410   18.2347   47.3940 H         7 CUB7        0.0000 
    129 O           2.2068   17.6265   47.2723 O.2       2 ALA2        0.0000 
    130 O           3.5725   17.0182   47.1506 O.2       2 ALA2        0.0000 
    131 DU          0.2510   17.0517   46.6852 H         7 CUB7        0.0000 
    132 OD1         1.6167   16.4435   46.5635 O.3       3 ASP3        0.0000 
    133 OD1         2.9825   15.8352   46.4418 O.3       3 ASP3        0.0000 
    134 CA          1.8081   17.1367   45.2471 C.3       6 GLY6        0.0000 
    135 CA          1.2181   15.9537   44.5384 C.3       6 GLY6        0.0000 
    136 O           2.2111    9.3949   51.4843 O.2       2 ALA2        0.0000 
@<TRIPOS>BOND
@<TRIPOS>SUBSTRUCTURE
     1 SER1       20 GROUP   
     2 ALA2        1 GROUP   
     3 ASP3       10 GROUP   
     4 LYS4        2 GROUP   
     5 PHE5        5 GROUP   
     6 GLY6        3 GROUP   
     7 CUB7       39 GROUP   
@<TRIPOS>SET

