#    Name: 4du3_DTP_1_INTS_M
#    Modification time : Mon Apr  7 23:10:55 2014

@<TRIPOS>MOLECULE
4du3_DTP_1_INTS_M
   54     0     9     0     0
SMALL
NO_CHARGES


@<TRIPOS>ATOM
      1 NZ          5.9565   12.8405   50.7895 N.4       2 LYC4        0.0000 
      2 NZ          4.8470   12.6330   51.6730 N.4       8 LYL4        0.0000 
      3 NZ          7.0420   14.0270   49.0070 N.4       5 LYP4        0.0000 
      4 N           4.9110   11.4175   52.3350 N.am      1 SEC2        0.0000 
      5 N           4.8470   12.6330   51.6730 N.am      7 SEL2        0.0000 
      6 N           4.9750   10.2020   52.9970 N.am      4 SEP2        0.0000 
      7 N           5.9565   12.8405   50.7895 N.am      1 SEC2        0.0000 
      8 N           7.0660   13.0480   49.9060 N.am      4 SEP2        0.0000 
      9 NZ          4.7250   14.2440   49.3065 N.4       2 LYC4        0.0000 
     10 NZ          3.5530   13.8440   49.8890 N.4       8 LYL4        0.0000 
     11 NZ          4.0820   15.4090   50.7450 N.4       2 LYC4        0.0000 
     12 NZ          4.6110   16.9740   51.6010 N.4       5 LYP4        0.0000 
     13 NZ          2.8260   13.2925   48.4225 N.4       2 LYC4        0.0000 
     14 NZ          2.0990   12.7410   46.9560 N.4       5 LYP4        0.0000 
     15 N           4.7250   14.2440   49.3065 N.am      1 SEC2        0.0000 
     16 N           3.5530   13.8440   49.8890 N.am      7 SEL2        0.0000 
     17 N           5.8970   14.6440   48.7240 N.am      4 SEP2        0.0000 
     18 N           2.8260   13.2925   48.4225 N.am      1 SEC2        0.0000 
     19 N           2.0990   12.7410   46.9560 N.am      4 SEP2        0.0000 
     20 N           3.0225    8.6610   51.9865 N.am      1 SEC2        0.0000 
     21 N           2.1640    9.8570   51.4830 N.am      7 SEL2        0.0000 
     22 N           3.8810    7.4650   52.4900 N.am      4 SEP2        0.0000 
     23 N           4.2915   10.7880   51.5140 N.am      1 SEC2        0.0000 
     24 N           3.6080   11.3740   50.0310 N.am      7 SEL2        0.0000 
     25 NZ          1.0415   11.9145   47.1130 N.4       2 LYC4        0.0000 
     26 NZ         -0.0160   11.0880   47.2700 N.4       8 LYL4        0.0000 
     27 N           1.0415   11.9145   47.1130 N.am      1 SEC2        0.0000 
     28 N          -0.0160   11.0880   47.2700 N.am      7 SEL2        0.0000 
     29 N           1.7055   11.8575   48.1600 N.am      1 SEC2        0.0000 
     30 N           1.3120   10.9740   49.3640 N.am      7 SEL2        0.0000 
     31 CA         -0.8560    7.8505   51.3090 C.3       3 GLC5        0.0000 
     32 CA         -0.2730    7.9360   49.4130 C.3       9 GLL5        0.0000 
     33 CA         -1.4390    7.7650   53.2050 C.3       6 GLP5        0.0000 
     34 CA          0.8725    4.6485   49.7905 C.3       3 GLC5        0.0000 
     35 CA          0.2590    6.5770   49.0190 C.3       9 GLL5        0.0000 
     36 CA          1.4860    2.7200   50.5620 C.3       6 GLP5        0.0000 
     37 N           3.2675    5.5690   50.4850 N.am      1 SEC2        0.0000 
     38 N           2.7000    6.5360   49.5380 N.am      7 SEL2        0.0000 
     39 N           3.8350    4.6020   51.4320 N.am      4 SEP2        0.0000 
     40 CA          3.3075    5.8795   46.0760 C.3       3 GLC5        0.0000 
     41 CA          1.7270    5.4560   47.5540 C.3       9 GLL5        0.0000 
     42 CA          4.8880    6.3030   44.5980 C.3       6 GLP5        0.0000 
     43 CA          1.0780    3.7030   47.6295 C.3       3 GLC5        0.0000 
     44 CA          0.3340    5.4630   46.9440 C.3       9 GLL5        0.0000 
     45 CA          1.8220    1.9430   48.3150 C.3       6 GLP5        0.0000 
     46 CA          3.4220    5.3845   43.7390 C.3       3 GLC5        0.0000 
     47 CA          1.9560    4.4660   42.8800 C.3       9 GLL5        0.0000 
     48 CA         -1.4475    6.1902   49.7215 C.3       3 GLC5        0.0000 
     49 CA         -2.8880    5.1240   50.2270 C.3       6 GLP5        0.0000 
     50 CA          2.0282    4.2817   48.7548 C.3       3 GLC5        0.0000 
     51 CA          1.6940    6.6190   48.5150 C.3       9 GLL5        0.0000 
     52 CA          2.3460    2.5260   49.4750 C.3       6 GLP5        0.0000 
     53 CA          2.9636    6.2995   44.1587 C.3       3 GLC5        0.0000 
     54 CA          0.8670    6.9140   43.5800 C.3       9 GLL5        0.0000 
@<TRIPOS>BOND
@<TRIPOS>SUBSTRUCTURE
     1 SEC2        4 GROUP        1 X    SEC  0     ROOT SEC X 2
     2 LYC4        1 GROUP        1 X    LYC  0     **** LYC X 4
     3 GLC5       31 GROUP        1 X    GLC  0     **** GLC X 6
     4 SEP2        6 GROUP        1 Y    SEP  0     ROOT SEP Y 9
     5 LYP4        3 GROUP        1 Y    LYP  0     **** LYP Y 11
     6 GLP5       33 GROUP        1 Y    GLP  0     **** GLP Y 13
     7 SEL2        5 GROUP        1 Z    SEL  0     ROOT SEL Z 16
     8 LYL4        2 GROUP        1 Z    LYL  0     **** LYL Z 18
     9 GLL5       32 GROUP        1 Z    GLL  0     **** GLL Z 20
@<TRIPOS>SET

