#    Name: 4du3_DTP_1_ligand
#    Modification time : Mon Apr  7 23:10:56 2014

@<TRIPOS>MOLECULE
4du3_DTP_1_ligand
   42    44     1     0     0
SMALL
NO_CHARGES


@<TRIPOS>ATOM
      1 PG          3.5510   12.7380   50.9000 P.3       1 DTP1001     0.0000 
      2 O1G         2.2930   12.6630   51.7250 O.co2     1 DTP1001     0.0000 
      3 O2G         4.8470   12.6330   51.6730 O.co2     1 DTP1001     0.0000 
      4 O3G         3.5530   13.8440   49.8890 O.co2     1 DTP1001     0.0000 
      5 PB          2.5380   10.1840   50.0630 P.3       1 DTP1001     0.0000 
      6 O1B         3.0760    9.0830   49.1820 O.co2     1 DTP1001     0.0000 
      7 O2B         2.1640    9.8570   51.4830 O.co2     1 DTP1001     0.0000 
      8 O3B         3.6080   11.3740   50.0310 O.3       1 DTP1001     0.0000 
      9 PA         -0.0340   10.4540   48.6270 P.3       1 DTP1001     0.0000 
     10 O1A        -0.0160   11.0880   47.2700 O.co2     1 DTP1001     0.0000 
     11 O2A        -1.1930   10.7530   49.5310 O.co2     1 DTP1001     0.0000 
     12 O3A         1.3120   10.9740   49.3640 O.3       1 DTP1001     0.0000 
     13 O5'         0.1020    8.8610   48.4000 O.3       1 DTP1001     0.0000 
     14 C5'        -0.2730    7.9360   49.4130 C.3       1 DTP1001     0.0000 
     15 C4'         0.2590    6.5770   49.0190 C.3       1 DTP1001     0.0000 
     16 O4'        -0.5160    6.0920   47.9160 O.3       1 DTP1001     0.0000 
     17 C3'         1.6940    6.6190   48.5150 C.3       1 DTP1001     0.0000 
     18 O3'         2.7000    6.5360   49.5380 O.3       1 DTP1001     0.0000 
     19 C2'         1.7270    5.4560   47.5540 C.3       1 DTP1001     0.0000 
     20 C1'         0.3340    5.4630   46.9440 C.3       1 DTP1001     0.0000 
     21 N9          0.4280    6.2480   45.6850 N.pl3     1 DTP1001     0.0000 
     22 C8          0.0510    7.5310   45.5020 C.2       1 DTP1001     0.0000 
     23 N7          0.2980    7.9370   44.2340 N.2       1 DTP1001     0.0000 
     24 C5          0.8670    6.9140   43.5800 C.ar      1 DTP1001     0.0000 
     25 C6          1.3920    6.6720   42.2140 C.ar      1 DTP1001     0.0000 
     26 N6          1.3520    7.6380   41.2600 N.pl3     1 DTP1001     0.0000 
     27 N1          1.9050    5.4440   41.9500 N.ar      1 DTP1001     0.0000 
     28 C2          1.9560    4.4660   42.8800 C.ar      1 DTP1001     0.0000 
     29 N3          1.4930    4.6260   44.1370 N.ar      1 DTP1001     0.0000 
     30 C4          0.9490    5.7990   44.5420 C.ar      1 DTP1001     0.0000 
     31 H          -1.3564    7.8620   49.5150 H         1 DTP1001     0.0000 
     32 H           0.1512    8.2007   50.3824 H         1 DTP1001     0.0000 
     33 H           0.1993    5.9051   49.8436 H         1 DTP1001     0.0000 
     34 H           1.7864    7.5223   47.9122 H         1 DTP1001     0.0000 
     35 H           1.8824    4.5481   48.0821 H         1 DTP1001     0.0000 
     36 H           2.4509    5.6268   46.7963 H         1 DTP1001     0.0000 
     37 H           0.0558    4.4642   46.7476 H         1 DTP1001     0.0000 
     38 H          -0.3504    8.0982   46.1964 H         1 DTP1001     0.0000 
     39 H           1.6816    7.3749   40.3533 H         1 DTP1001     0.0000 
     40 H           0.9965    8.5270   41.5486 H         1 DTP1001     0.0000 
     41 H           2.3790    3.5307   42.6095 H         1 DTP1001     0.0000 
     42 H           2.6891    7.4306   49.9847 H         1 DTP1001     0.0000 
@<TRIPOS>BOND
     1    2    1 ar   
     2    3    1 ar   
     3    4    1 ar   
     4    8    1 1    
     5    6    5 ar   
     6    7    5 ar   
     7    8    5 1    
     8   12    5 1    
     9   10    9 ar   
    10   11    9 ar   
    11   12    9 1    
    12   13    9 1    
    13   14   13 1    
    14   15   14 1    
    15   31   14 1    
    16   32   14 1    
    17   16   15 1    
    18   17   15 1    
    19   33   15 1    
    20   20   16 1    
    21   18   17 1    
    22   19   17 1    
    23   34   17 1    
    24   42   18 1    
    25   20   19 1    
    26   35   19 1    
    27   36   19 1    
    28   21   20 1    
    29   37   20 1    
    30   22   21 1    
    31   30   21 1    
    32   23   22 2    
    33   38   22 1    
    34   24   23 1    
    35   25   24 ar   
    36   30   24 ar   
    37   26   25 1    
    38   27   25 ar   
    39   39   26 1    
    40   40   26 1    
    41   28   27 ar   
    42   29   28 ar   
    43   41   28 1    
    44   30   29 ar   
@<TRIPOS>SUBSTRUCTURE
     1 DTP1001     1 GROUP   
@<TRIPOS>SET

