#    Name: 1FKI_1_CAVITY_N1_6.mol2
#    Modification time : Mon Mar 10 23:18:52 2014

@<TRIPOS>MOLECULE
1FKI_1_CAVITY_N1_6.mol2
   66     0     7     0     0
SMALL
NO_CHARGES


@<TRIPOS>ATOM
      1 N           6.5238  -43.2350    3.0146 N.2       2 ALA2        0.0000 
      2 CA          7.5972  -44.2814    2.9640 C.3       6 GLY6        0.0000 
      3 CA          7.1762  -44.6460    1.5712 C.3       6 GLY6        0.0000 
      4 N           8.2496  -45.6925    1.5206 N.2       2 ALA2        0.0000 
      5 OG          5.7573  -39.7665    3.9538 O.2       1 SER1        0.0000 
      6 OG          6.8308  -40.8130    3.9032 O.2       1 SER1        0.0000 
      7 CA          7.9042  -41.8594    3.8526 C.3       6 GLY6        0.0000 
      8 CA          8.9777  -42.9059    3.8020 C.3       6 GLY6        0.0000 
      9 DU          5.3362  -40.1311    2.5610 H         7 CUB7        0.0000 
     10 DU          6.4097  -41.1776    2.5104 H         7 CUB7        0.0000 
     11 DU          7.4832  -42.2240    2.4599 H         7 CUB7        0.0000 
     12 CA          8.5566  -43.2705    2.4093 C.3       6 GLY6        0.0000 
     13 CA          9.6301  -44.3170    2.3587 C.3       6 GLY6        0.0000 
     14 DU          4.9152  -40.4957    1.1683 H         7 CUB7        0.0000 
     15 DU          5.9886  -41.5422    1.1177 H         7 CUB7        0.0000 
     16 DU          7.0621  -42.5887    1.0671 H         7 CUB7        0.0000 
     17 CA          8.1355  -43.6351    1.0165 C.3       6 GLY6        0.0000 
     18 NZ          6.6410  -42.9533   -0.3256 N.2       4 LYS4        0.0000 
     19 OG          5.6432  -37.7091    3.4497 O.2       1 SER1        0.0000 
     20 OG          8.8636  -40.8485    3.2979 O.2       1 SER1        0.0000 
     21 CA          9.9370  -41.8950    3.2474 C.3       6 GLY6        0.0000 
     22 N           4.1487  -37.0272    2.1075 N.2       2 ALA2        0.0000 
     23 DU          5.2222  -38.0737    2.0569 H         7 CUB7        0.0000 
     24 OG          6.2956  -39.1202    2.0063 O.2       1 SER1        0.0000 
     25 OG          7.3691  -40.1667    1.9558 O.2       1 SER1        0.0000 
     26 DU          8.4425  -41.2131    1.9052 H         7 CUB7        0.0000 
     27 CZ          9.5160  -42.2596    1.8546 C.ar      5 PHE5        0.0000 
     28 DU          4.8011  -38.4383    0.6642 H         7 CUB7        0.0000 
     29 DU          5.8745  -39.4848    0.6136 H         7 CUB7        0.0000 
     30 OG          6.9480  -40.5313    0.5630 O.2       1 SER1        0.0000 
     31 NZ          8.0215  -41.5778    0.5124 N.2       4 LYS4        0.0000 
     32 CA          9.0949  -42.6242    0.4618 C.3       6 GLY6        0.0000 
     33 CZ          4.3800  -38.8029   -0.7286 C.ar      5 PHE5        0.0000 
     34 OG          5.4535  -39.8494   -0.7792 O.2       1 SER1        0.0000 
     35 OG          6.5269  -40.8959   -0.8298 O.2       1 SER1        0.0000 
     36 OG          5.0324  -40.2140   -2.1719 O.2       1 SER1        0.0000 
     37 OD1         5.9502  -35.2871    4.3383 O.3       3 ASP3        0.0000 
     38 CA          5.5292  -35.6517    2.9456 C.3       6 GLY6        0.0000 
     39 OG          6.6026  -36.6982    2.8950 O.2       1 SER1        0.0000 
     40 OG          9.8230  -39.8376    2.7432 O.2       1 SER1        0.0000 
     41 CA          5.1081  -36.0163    1.5528 C.3       6 GLY6        0.0000 
     42 DU          6.1815  -37.0628    1.5022 H         7 CUB7        0.0000 
     43 OG          7.2550  -38.1093    1.4516 O.2       1 SER1        0.0000 
     44 OG          8.3284  -39.1558    1.4011 O.2       1 SER1        0.0000 
     45 CZ          9.4019  -40.2022    1.3505 C.ar      5 PHE5        0.0000 
     46 CZ          4.6870  -36.3809    0.1600 C.ar      5 PHE5        0.0000 
     47 CZ          5.7605  -37.4274    0.1095 C.ar      5 PHE5        0.0000 
     48 OG          6.8339  -38.4739    0.0589 O.2       1 SER1        0.0000 
     49 OG          7.9074  -39.5204    0.0083 O.2       1 SER1        0.0000 
     50 OG          8.9808  -40.5668   -0.0423 O.2       1 SER1        0.0000 
     51 CZ          5.3394  -37.7920   -1.2833 C.ar      5 PHE5        0.0000 
     52 OG          6.4129  -38.8385   -1.3339 O.2       1 SER1        0.0000 
     53 OD1         7.5620  -35.6873    2.3403 O.3       3 ASP3        0.0000 
     54 OG          8.6354  -36.7338    2.2897 O.2       1 SER1        0.0000 
     55 OG          9.7089  -37.7802    2.2391 O.2       1 SER1        0.0000 
     56 CA          7.1409  -36.0519    0.9475 C.3       6 GLY6        0.0000 
     57 DU          8.2144  -37.0984    0.8970 H         7 CUB7        0.0000 
     58 CZ          9.2878  -38.1449    0.8464 C.ar      5 PHE5        0.0000 
     59 CZ          6.7198  -36.4165   -0.4452 C.ar      5 PHE5        0.0000 
     60 OG          7.7933  -37.4630   -0.4958 O.2       1 SER1        0.0000 
     61 CZ          8.8667  -38.5095   -0.5464 C.ar      5 PHE5        0.0000 
     62 OG          7.3722  -37.8276   -1.8885 O.2       1 SER1        0.0000 
     63 CZ          8.1003  -35.0410    0.3929 C.ar      5 PHE5        0.0000 
     64 O           9.1737  -36.0875    0.3423 O.2       2 ALA2        0.0000 
     65 CZ          7.6792  -35.4056   -0.9999 C.ar      5 PHE5        0.0000 
     66 CZ          8.7527  -36.4521   -1.0505 C.ar      5 PHE5        0.0000 
@<TRIPOS>BOND
@<TRIPOS>SUBSTRUCTURE
     1 SER1        5 GROUP   
     2 ALA2        1 GROUP   
     3 ASP3       37 GROUP   
     4 LYS4       18 GROUP   
     5 PHE5       27 GROUP   
     6 GLY6        2 GROUP   
     7 CUB7        9 GROUP   
@<TRIPOS>SET

