#    Name: 1fki_SB1_1_INTS_M
#    Modification time : Tue Mar 25 01:26:16 2014

@<TRIPOS>MOLECULE
1fki_SB1_1_INTS_M
   46     0     6     0     0
SMALL
NO_CHARGES


@<TRIPOS>ATOM
      1 N           8.9000  -38.7770    3.6780 N.am      1 SEC2        0.0000 
      2 N           9.4950  -39.1460    2.5420 N.am      5 SEL2        0.0000 
      3 N           8.3050  -38.4080    4.8140 N.am      3 SEP2        0.0000 
      4 CA          8.4450  -43.5215   -0.2755 C.3       2 GLC5        0.0000 
      5 CA          7.0980  -42.9360    1.2220 C.3       6 GLL5        0.0000 
      6 CA          9.7920  -44.1070   -1.7730 C.3       4 GLP5        0.0000 
      7 CA          4.2280  -34.9540    0.8400 C.3       2 GLC5        0.0000 
      8 CA          3.2960  -36.7250    1.4300 C.3       6 GLL5        0.0000 
      9 CA          5.1600  -33.1830    0.2500 C.3       4 GLP5        0.0000 
     10 CA          5.2370  -34.7555    2.9965 C.3       2 GLC5        0.0000 
     11 CA          4.9390  -36.9370    3.3450 C.3       6 GLL5        0.0000 
     12 CA          5.5350  -32.5740    2.6480 C.3       4 GLP5        0.0000 
     13 N           7.3750  -34.0485    3.3025 N.am      1 SEC2        0.0000 
     14 N           7.1310  -35.3720    2.6740 N.am      5 SEL2        0.0000 
     15 N           7.6190  -32.7250    3.9310 N.am      3 SEP2        0.0000 
     16 CA          9.5795  -35.1905   -0.7835 C.3       2 GLC5        0.0000 
     17 CA          8.4830  -36.0780    0.2490 C.3       6 GLL5        0.0000 
     18 CA         10.6760  -34.3030   -1.8160 C.3       4 GLP5        0.0000 
     19 CA         10.5130  -42.2605    2.2720 C.3       2 GLC5        0.0000 
     20 CA          8.6630  -42.4620    3.0960 C.3       6 GLL5        0.0000 
     21 CA         12.3630  -42.0590    1.4480 C.3       4 GLP5        0.0000 
     22 CA          7.9280  -43.0440    4.8345 C.3       2 GLC5        0.0000 
     23 CA          7.1930  -43.6260    6.5730 C.3       4 GLP5        0.0000 
     24 CA          9.8535  -44.0350    3.6530 C.3       2 GLC5        0.0000 
     25 CA         11.0440  -45.6080    4.2100 C.3       4 GLP5        0.0000 
     26 CA         10.2390  -42.0475    4.1415 C.3       2 GLC5        0.0000 
     27 CA         11.8150  -41.6330    5.1870 C.3       4 GLP5        0.0000 
     28 CA          2.5325  -38.6295   -2.5142 C.3       2 GLC5        0.0000 
     29 CA          1.3740  -40.4380   -1.2610 C.3       6 GLL5        0.0000 
     30 CA          3.2830  -36.9090   -3.1310 C.3       4 GLP5        0.0000 
     31 CA          2.5017  -37.8952   -1.6680 C.3       2 GLC5        0.0000 
     32 CA          1.1280  -39.0910   -0.6270 C.3       6 GLL5        0.0000 
     33 CA          3.2652  -36.4310   -0.6795 C.3       2 GLC5        0.0000 
     34 CA          2.0550  -37.2730    0.7520 C.3       6 GLL5        0.0000 
     35 CA          3.8550  -35.8630   -2.4500 C.3       4 GLP5        0.0000 
     36 CA         10.3477  -37.2605    0.7600 C.3       2 GLC5        0.0000 
     37 CA         12.3250  -37.9740    0.6860 C.3       4 GLP5        0.0000 
     38 CA          6.5670  -34.6692   -0.0250 C.3       2 GLC5        0.0000 
     39 CA          6.1570  -36.0610   -2.0372 C.3       2 GLC5        0.0000 
     40 CA          7.4650  -36.2330   -0.8490 C.3       6 GLL5        0.0000 
     41 CA          4.8860  -35.1600   -3.0220 C.3       4 GLP5        0.0000 
     42 CA          8.9715  -36.0475   -1.9808 C.3       2 GLC5        0.0000 
     43 CA         10.5150  -35.1330   -2.9090 C.3       4 GLP5        0.0000 
     44 CA          7.8265  -38.9383   -2.2260 C.3       2 GLC5        0.0000 
     45 CA          7.3910  -37.6910   -1.2560 C.3       6 GLL5        0.0000 
     46 CA          8.4170  -39.7460   -3.7960 C.3       4 GLP5        0.0000 
@<TRIPOS>BOND
@<TRIPOS>SUBSTRUCTURE
     1 SEC2        1 GROUP        1 X    SEC  0     ROOT SEC X 2
     2 GLC5        4 GROUP        1 X    GLC  0     **** GLC X 6
     3 SEP2        3 GROUP        1 Y    SEP  0     ROOT SEP Y 9
     4 GLP5        6 GROUP        1 Y    GLP  0     **** GLP Y 13
     5 SEL2        2 GROUP        1 Z    SEL  0     ROOT SEL Z 16
     6 GLL5        5 GROUP        1 Z    GLL  0     **** GLL Z 20
@<TRIPOS>SET

