#    Name: 1fki_SB1_1_ligand
#    Modification time : Tue Mar 25 01:26:16 2014

@<TRIPOS>MOLECULE
1fki_SB1_1_ligand
   70    71     1     0     0
SMALL
NO_CHARGES


@<TRIPOS>ATOM
      1 N1          8.2000  -38.3720    0.8770 N.am      1 SB1109      0.0000 
      2 C2          8.7830  -39.3840    1.5490 C.2       1 SB1109      0.0000 
      3 O2          9.4950  -39.1460    2.5420 O.2       1 SB1109      0.0000 
      4 C3          8.5570  -40.8410    1.1260 C.2       1 SB1109      0.0000 
      5 O3          9.0030  -41.2190    0.0390 O.2       1 SB1109      0.0000 
      6 C4          7.7510  -41.8170    2.0150 C.3       1 SB1109      0.0000 
      7 C5          7.0980  -42.9360    1.2220 C.3       1 SB1109      0.0000 
      8 O6          6.3130  -42.2040    0.2750 O.3       1 SB1109      0.0000 
      9 C7          5.4490  -42.8090   -0.5010 C.2       1 SB1109      0.0000 
     10 O7          5.3030  -44.0240   -0.4610 O.2       1 SB1109      0.0000 
     11 C8          4.7200  -41.9230   -1.4770 C.3       1 SB1109      0.0000 
     12 C9          3.4010  -42.4600   -1.9570 C.3       1 SB1109      0.0000 
     13 C10         2.8310  -41.5560   -3.0580 C.3       1 SB1109      0.0000 
     14 C11         2.1900  -40.2620   -2.5340 C.3       1 SB1109      0.0000 
     15 C12         1.3740  -40.4380   -1.2610 C.3       1 SB1109      0.0000 
     16 C13         1.1280  -39.0910   -0.6270 C.3       1 SB1109      0.0000 
     17 C14         2.3130  -38.6720    0.2170 C.3       1 SB1109      0.0000 
     18 C15         2.0550  -37.2730    0.7520 C.3       1 SB1109      0.0000 
     19 C16         3.2960  -36.7250    1.4300 C.3       1 SB1109      0.0000 
     20 C17         3.6950  -37.5120    2.6810 C.3       1 SB1109      0.0000 
     21 C18         4.9390  -36.9370    3.3450 C.3       1 SB1109      0.0000 
     22 O19         6.0730  -37.3520    2.5180 O.3       1 SB1109      0.0000 
     23 C20         7.0910  -36.5260    2.2580 C.2       1 SB1109      0.0000 
     24 O20         7.1310  -35.3720    2.6740 O.2       1 SB1109      0.0000 
     25 C21         8.2580  -37.0160    1.4190 C.3       1 SB1109      0.0000 
     26 C22         8.4830  -36.0780    0.2490 C.3       1 SB1109      0.0000 
     27 C23         7.4650  -36.2330   -0.8490 C.3       1 SB1109      0.0000 
     28 C24         7.3910  -37.6910   -1.2560 C.3       1 SB1109      0.0000 
     29 C25         7.0810  -38.5700   -0.0560 C.3       1 SB1109      0.0000 
     30 C26         6.5810  -41.1270    2.7740 C.3       1 SB1109      0.0000 
     31 C27         8.6630  -42.4620    3.0960 C.3       1 SB1109      0.0000 
     32 H           6.4964  -43.5161    1.8830 H         1 SB1109      0.0000 
     33 H           7.8619  -43.5126    0.7537 H         1 SB1109      0.0000 
     34 H           5.3767  -41.7375   -2.3546 H         1 SB1109      0.0000 
     35 H           4.5572  -40.9284   -1.0079 H         1 SB1109      0.0000 
     36 H           2.6917  -42.4976   -1.1328 H         1 SB1109      0.0000 
     37 H           3.5309  -43.4625   -2.3595 H         1 SB1109      0.0000 
     38 H           2.0771  -42.1204   -3.6280 H         1 SB1109      0.0000 
     39 H           3.6391  -41.2939   -3.7581 H         1 SB1109      0.0000 
     40 H           1.5423  -39.8451   -3.3243 H         1 SB1109      0.0000 
     41 H           2.9885  -39.5222   -2.3526 H         1 SB1109      0.0000 
     42 H           1.9209  -41.0741   -0.5709 H         1 SB1109      0.0000 
     43 H           0.4253  -40.9069   -1.5064 H         1 SB1109      0.0000 
     44 H           0.2368  -39.1413    0.0018 H         1 SB1109      0.0000 
     45 H           0.9593  -38.3461   -1.4073 H         1 SB1109      0.0000 
     46 H           3.2085  -38.6661   -0.3896 H         1 SB1109      0.0000 
     47 H           2.4315  -39.3580    1.0448 H         1 SB1109      0.0000 
     48 H           1.2353  -37.3071    1.4691 H         1 SB1109      0.0000 
     49 H           1.7733  -36.6184   -0.0724 H         1 SB1109      0.0000 
     50 H           3.1236  -35.6762    1.7120 H         1 SB1109      0.0000 
     51 H           4.1354  -36.7402    0.7199 H         1 SB1109      0.0000 
     52 H           3.8825  -38.5531    2.4018 H         1 SB1109      0.0000 
     53 H           2.8642  -37.4943    3.3927 H         1 SB1109      0.0000 
     54 H           5.0167  -37.3384    4.3424 H         1 SB1109      0.0000 
     55 H           4.8512  -35.8631    3.3750 H         1 SB1109      0.0000 
     56 H           9.1825  -36.9227    2.0416 H         1 SB1109      0.0000 
     57 H           9.4925  -36.2548   -0.1615 H         1 SB1109      0.0000 
     58 H           8.4671  -35.0374    0.6173 H         1 SB1109      0.0000 
     59 H           7.7557  -35.6343   -1.7066 H         1 SB1109      0.0000 
     60 H           6.4913  -35.9081   -0.4957 H         1 SB1109      0.0000 
     61 H           8.3447  -37.9958   -1.6887 H         1 SB1109      0.0000 
     62 H           6.6105  -37.8189   -2.0071 H         1 SB1109      0.0000 
     63 H           6.1529  -38.2503    0.3817 H         1 SB1109      0.0000 
     64 H           7.0237  -39.5939   -0.3775 H         1 SB1109      0.0000 
     65 H           6.9079  -40.4019    3.3801 H         1 SB1109      0.0000 
     66 H           5.9251  -40.7097    2.1450 H         1 SB1109      0.0000 
     67 H           6.0722  -41.7753    3.3404 H         1 SB1109      0.0000 
     68 H           9.4150  -42.9790    2.6871 H         1 SB1109      0.0000 
     69 H           9.0722  -41.7740    3.6954 H         1 SB1109      0.0000 
     70 H           8.1555  -43.0953    3.6803 H         1 SB1109      0.0000 
@<TRIPOS>BOND
     1    2    1 am   
     2   25    1 1    
     3   29    1 1    
     4    3    2 2    
     5    4    2 1    
     6    5    4 2    
     7    6    4 1    
     8    7    6 1    
     9   30    6 1    
    10   31    6 1    
    11    8    7 1    
    12   32    7 1    
    13   33    7 1    
    14    9    8 1    
    15   10    9 2    
    16   11    9 1    
    17   12   11 1    
    18   34   11 1    
    19   35   11 1    
    20   13   12 1    
    21   36   12 1    
    22   37   12 1    
    23   14   13 1    
    24   38   13 1    
    25   39   13 1    
    26   15   14 1    
    27   40   14 1    
    28   41   14 1    
    29   16   15 1    
    30   42   15 1    
    31   43   15 1    
    32   17   16 1    
    33   44   16 1    
    34   45   16 1    
    35   18   17 1    
    36   46   17 1    
    37   47   17 1    
    38   19   18 1    
    39   48   18 1    
    40   49   18 1    
    41   20   19 1    
    42   50   19 1    
    43   51   19 1    
    44   21   20 1    
    45   52   20 1    
    46   53   20 1    
    47   22   21 1    
    48   54   21 1    
    49   55   21 1    
    50   23   22 1    
    51   24   23 2    
    52   25   23 1    
    53   26   25 1    
    54   56   25 1    
    55   27   26 1    
    56   57   26 1    
    57   58   26 1    
    58   28   27 1    
    59   59   27 1    
    60   60   27 1    
    61   29   28 1    
    62   61   28 1    
    63   62   28 1    
    64   63   29 1    
    65   64   29 1    
    66   65   30 1    
    67   66   30 1    
    68   67   30 1    
    69   68   31 1    
    70   69   31 1    
    71   70   31 1    
@<TRIPOS>SUBSTRUCTURE
     1 SB1109      1 GROUP   
@<TRIPOS>SET

