#    Name: 1FFU_3_CAVITY_N1_6.mol2
#    Modification time : Mon Mar 10 23:08:05 2014

@<TRIPOS>MOLECULE
1FFU_3_CAVITY_N1_6.mol2
   41     0     3     0     0
SMALL
NO_CHARGES


@<TRIPOS>ATOM
      1 OG         42.0068   80.2050   50.3700 O.2       1 SER1        0.0000 
      2 CA         41.9415   79.3794   51.6206 C.3       3 GLY6        0.0000 
      3 CA         41.8762   78.5537   52.8712 C.3       3 GLY6        0.0000 
      4 OG         40.6850   80.0917   52.0252 O.2       1 SER1        0.0000 
      5 N          40.6197   79.2660   53.2758 N.2       2 ALA2        0.0000 
      6 CA         46.9044   81.0447   52.9793 C.3       3 GLY6        0.0000 
      7 CA         46.8391   80.2190   54.2299 C.3       3 GLY6        0.0000 
      8 CA         45.7132   82.5827   52.1333 C.3       3 GLY6        0.0000 
      9 CA         45.6479   81.7570   53.3839 C.3       3 GLY6        0.0000 
     10 CA         45.5826   80.9314   54.6346 C.3       3 GLY6        0.0000 
     11 OG         44.4567   83.2950   52.5380 O.2       1 SER1        0.0000 
     12 OG         44.3914   82.4694   53.7886 O.2       1 SER1        0.0000 
     13 CA         44.3261   81.6437   55.0392 C.3       3 GLY6        0.0000 
     14 N          44.2607   80.8181   56.2898 N.2       2 ALA2        0.0000 
     15 OG         43.0695   82.3560   55.4438 O.2       1 SER1        0.0000 
     16 CA         46.0878   80.0147   52.2566 C.3       3 GLY6        0.0000 
     17 CA         46.0225   79.1891   53.5073 C.3       3 GLY6        0.0000 
     18 CA         44.8966   81.5527   51.4107 C.3       3 GLY6        0.0000 
     19 CA         44.8313   80.7270   52.6613 C.3       3 GLY6        0.0000 
     20 CA         44.7660   79.9014   53.9119 C.3       3 GLY6        0.0000 
     21 N          44.7006   79.0757   55.1625 N.2       2 ALA2        0.0000 
     22 OG         43.5748   81.4394   53.0659 O.2       1 SER1        0.0000 
     23 OG         43.5094   80.6137   54.3165 O.2       1 SER1        0.0000 
     24 N          43.4441   79.7881   55.5671 N.2       2 ALA2        0.0000 
     25 OG         42.2529   81.3260   54.7212 O.2       1 SER1        0.0000 
     26 CA         42.1876   80.5004   55.9718 C.3       3 GLY6        0.0000 
     27 CA         46.5299   83.6127   52.8560 C.3       3 GLY6        0.0000 
     28 CA         46.4645   82.7870   54.1066 C.3       3 GLY6        0.0000 
     29 CA         46.3992   81.9614   55.3572 C.3       3 GLY6        0.0000 
     30 CA         45.2733   84.3250   53.2606 C.3       3 GLY6        0.0000 
     31 CA         45.2080   83.4993   54.5112 C.3       3 GLY6        0.0000 
     32 CA         45.1427   82.6737   55.7619 C.3       3 GLY6        0.0000 
     33 CA         44.0800   80.5227   50.6880 C.3       3 GLY6        0.0000 
     34 CA         44.0147   79.6970   51.9386 C.3       3 GLY6        0.0000 
     35 O          43.9493   78.8714   53.1892 O.2       2 ALA2        0.0000 
     36 CA         43.8840   78.0457   54.4398 C.3       3 GLY6        0.0000 
     37 OG         42.8235   81.2350   51.0926 O.2       1 SER1        0.0000 
     38 OG         42.7581   80.4094   52.3433 O.2       1 SER1        0.0000 
     39 CA         42.6928   79.5837   53.5939 C.3       3 GLY6        0.0000 
     40 CA         42.6275   78.7581   54.8445 C.3       3 GLY6        0.0000 
     41 N          41.4363   80.2960   53.9985 N.2       2 ALA2        0.0000 
@<TRIPOS>BOND
@<TRIPOS>SUBSTRUCTURE
     1 SER1        1 GROUP   
     2 ALA2        5 GROUP   
     3 GLY6        2 GROUP   
@<TRIPOS>SET

