#    Name: 1ffu_CDP_3_INTS_M
#    Modification time : Tue Mar 25 01:20:49 2014

@<TRIPOS>MOLECULE
1ffu_CDP_3_INTS_M
   72     0     9     0     0
SMALL
NO_CHARGES


@<TRIPOS>ATOM
      1 N          39.7735   76.1385   53.4405 N.am      2 SEC2        0.0000 
      2 N          39.7530   77.1430   52.5690 N.am      8 SEL2        0.0000 
      3 N          39.7940   75.1340   54.3120 N.am      5 SEP2        0.0000 
      4 N          37.5880   80.5890   51.7100 N.am      2 SEC2        0.0000 
      5 N          38.3340   79.2870   51.8130 N.am      8 SEL2        0.0000 
      6 N          36.8420   81.8910   51.6070 N.am      5 SEP2        0.0000 
      7 N          37.6420   79.8265   52.8900 N.am      2 SEC2        0.0000 
      8 N          36.9500   80.3660   53.9670 N.am      5 SEP2        0.0000 
      9 N          39.8040   79.3440   55.1980 N.am      2 SEC2        0.0000 
     10 N          40.3000   79.1810   53.9300 N.am      8 SEL2        0.0000 
     11 N          39.3080   79.5070   56.4660 N.am      5 SEP2        0.0000 
     12 N          40.0450   82.6950   51.8820 N.am      2 SEC2        0.0000 
     13 N          40.9830   81.6560   51.3800 N.am      8 SEL2        0.0000 
     14 N          39.1070   83.7340   52.3840 N.am      5 SEP2        0.0000 
     15 N          41.4595   82.6090   52.0155 N.am      2 SEC2        0.0000 
     16 N          41.9360   83.5620   52.6510 N.am      5 SEP2        0.0000 
     17 N          41.7780   79.2610   49.1270 N.am      2 SEC2        0.0000 
     18 N          42.5320   80.1850   50.1870 N.am      8 SEL2        0.0000 
     19 N          41.0240   78.3370   48.0670 N.am      5 SEP2        0.0000 
     20 N          43.2555   80.6140   49.1355 N.am      2 SEC2        0.0000 
     21 N          43.9790   81.0430   48.0840 N.am      5 SEP2        0.0000 
     22 N          43.4390   79.2610   49.5205 N.am      2 SEC2        0.0000 
     23 N          44.3460   78.3370   48.8540 N.am      5 SEP2        0.0000 
     24 CA         43.2240   77.9240   51.7225 C.3       3 GLC5        0.0000 
     25 CA         43.3020   79.1250   53.1950 C.3       9 GLL5        0.0000 
     26 CA         43.1460   76.7230   50.2500 C.3       6 GLP5        0.0000 
     27 CA         45.8260   79.3975   55.5850 C.3       3 GLC5        0.0000 
     28 CA         44.2100   79.7120   54.3400 C.3       9 GLL5        0.0000 
     29 CA         47.4420   79.0830   56.8300 C.3       6 GLP5        0.0000 
     30 CA         41.7005   80.1525   56.4220 C.3       3 GLC5        0.0000 
     31 CA         43.2870   80.5660   55.2890 C.3       9 GLL5        0.0000 
     32 CA         40.1140   79.7390   57.5550 C.3       6 GLP5        0.0000 
     33 O          43.4865   81.5925   57.6895 O.2       1 ALC1        0.0000 
     34 O          43.6580   80.4980   56.6300 O.2       7 ALL1        0.0000 
     35 O          43.3150   82.6870   58.7490 O.2       4 ALP1        0.0000 
     36 O          43.6020   82.8465   57.2365 O.2       1 ALC1        0.0000 
     37 O          43.8890   83.0060   55.7240 O.2       7 ALL1        0.0000 
     38 CA         45.5815   82.2505   56.2915 C.3       3 GLC5        0.0000 
     39 CA         45.4720   81.8110   54.2270 C.3       9 GLL5        0.0000 
     40 CA         45.6910   82.6900   58.3560 C.3       6 GLP5        0.0000 
     41 CA         46.4570   80.4470   55.5285 C.3       3 GLC5        0.0000 
     42 CA         47.4905   81.9035   53.4565 C.3       3 GLC5        0.0000 
     43 CA         49.5090   81.9960   52.6860 C.3       6 GLP5        0.0000 
     44 N          47.8880   85.3615   54.4595 N.am      2 SEC2        0.0000 
     45 N          47.3070   83.8630   54.6480 N.am      8 SEL2        0.0000 
     46 N          48.4690   86.8600   54.2710 N.am      5 SEP2        0.0000 
     47 N          48.3280   84.4655   55.5100 N.am      2 SEC2        0.0000 
     48 N          49.3490   85.0680   56.3720 N.am      5 SEP2        0.0000 
     49 N          47.6490   85.8560   53.4985 N.am      2 SEC2        0.0000 
     50 N          46.8290   84.8520   52.7260 N.am      8 SEL2        0.0000 
     51 O          46.5610   86.3440   49.1255 O.2       1 ALC1        0.0000 
     52 O          46.4010   85.9780   50.7240 O.2       7 ALL1        0.0000 
     53 O          46.7210   86.7100   47.5270 O.2       4 ALP1        0.0000 
     54 O          46.8740   87.1525   50.8355 O.2       1 ALC1        0.0000 
     55 O          47.3470   88.3270   50.9470 O.2       4 ALP1        0.0000 
     56 O          45.3675   85.4500   49.6600 O.2       1 ALC1        0.0000 
     57 O          44.3340   84.9220   48.5960 O.2       4 ALP1        0.0000 
     58 CA         46.7900   84.0310   49.8270 C.3       3 GLC5        0.0000 
     59 CA         45.1780   83.8950   51.2580 C.3       9 GLL5        0.0000 
     60 CA         48.4020   84.1670   48.3960 C.3       6 GLP5        0.0000 
     61 CA         43.8240   83.4385   49.6330 C.3       3 GLC5        0.0000 
     62 CA         42.4700   82.9820   48.0080 C.3       6 GLP5        0.0000 
     63 CA         45.2665   77.9973   53.5083 C.3       3 GLC5        0.0000 
     64 CA         46.7770   76.5760   53.2490 C.3       6 GLP5        0.0000 
     65 CA         42.9788   78.1806   55.1846 C.3       3 GLC5        0.0000 
     66 CA         42.4360   76.3690   55.8410 C.3       6 GLP5        0.0000 
     67 CA         44.7220   81.9340   56.7713 C.3       3 GLC5        0.0000 
     68 CA         43.6732   84.5885   51.7758 C.3       3 GLC5        0.0000 
     69 CA         44.9790   82.8650   52.1310 C.3       9 GLL5        0.0000 
     70 CA         42.2680   85.7970   51.8570 C.3       6 GLP5        0.0000 
     71 CA         45.7963   81.8990   50.7348 C.3       3 GLC5        0.0000 
     72 CA         46.5140   80.4180   49.7750 C.3       6 GLP5        0.0000 
@<TRIPOS>BOND
@<TRIPOS>SUBSTRUCTURE
     1 ALC1       33 GROUP        1 X    ALC  0     ROOT ALC X 1
     2 SEC2        1 GROUP        1 X    SEC  0     **** SEC X 2
     3 GLC5       24 GROUP        1 X    GLC  0     **** GLC X 6
     4 ALP1       35 GROUP        1 Y    ALP  0     ROOT ALP Y 8
     5 SEP2        3 GROUP        1 Y    SEP  0     **** SEP Y 9
     6 GLP5       26 GROUP        1 Y    GLP  0     **** GLP Y 13
     7 ALL1       34 GROUP        1 Z    ALL  0     ROOT ALL Z 15
     8 SEL2        2 GROUP        1 Z    SEL  0     **** SEL Z 16
     9 GLL5       25 GROUP        1 Z    GLL  0     **** GLL Z 20
@<TRIPOS>SET

