#    Name: 1ffu_CDP_3_ligand
#    Modification time : Tue Mar 25 01:20:49 2014

@<TRIPOS>MOLECULE
1ffu_CDP_3_ligand
   37    38     1     0     0
SMALL
NO_CHARGES


@<TRIPOS>ATOM
      1 O3B        39.7530   77.1430   52.5690 O.co2     1 CDP1921     0.0000 
      2 PB         39.5460   78.7040   52.6280 P.3       1 CDP1921     0.0000 
      3 O1B        38.3340   79.2870   51.8130 O.co2     1 CDP1921     0.0000 
      4 O2B        40.3000   79.1810   53.9300 O.co2     1 CDP1921     0.0000 
      5 O3A        40.7580   79.0270   51.6710 O.3       1 CDP1921     0.0000 
      6 PA         41.7900   80.3010   51.5080 P.3       1 CDP1921     0.0000 
      7 O1A        40.9830   81.6560   51.3800 O.co2     1 CDP1921     0.0000 
      8 O2A        42.5320   80.1850   50.1870 O.co2     1 CDP1921     0.0000 
      9 O5'        42.8120   80.4160   52.7260 O.3       1 CDP1921     0.0000 
     10 C5'        43.3020   79.1250   53.1950 C.3       1 CDP1921     0.0000 
     11 C4'        44.2100   79.7120   54.3400 C.3       1 CDP1921     0.0000 
     12 O4'        45.3390   80.4400   53.8360 O.3       1 CDP1921     0.0000 
     13 C3'        43.2870   80.5660   55.2890 C.3       1 CDP1921     0.0000 
     14 O3'        43.6580   80.4980   56.6300 O.3       1 CDP1921     0.0000 
     15 C2'        44.2190   81.7900   55.0840 C.3       1 CDP1921     0.0000 
     16 O2'        43.8890   83.0060   55.7240 O.3       1 CDP1921     0.0000 
     17 C1'        45.4720   81.8110   54.2270 C.3       1 CDP1921     0.0000 
     18 N1         45.6780   82.8670   53.2770 N.am      1 CDP1921     0.0000 
     19 C2         46.6240   83.8360   53.6100 C.2       1 CDP1921     0.0000 
     20 O2         47.3070   83.8630   54.6480 O.2       1 CDP1921     0.0000 
     21 N3         46.8290   84.8520   52.7260 N.2       1 CDP1921     0.0000 
     22 C4         46.1890   84.9800   51.5370 C.2       1 CDP1921     0.0000 
     23 N4         46.4010   85.9780   50.7240 N.pl3     1 CDP1921     0.0000 
     24 C5         45.1780   83.8950   51.2580 C.2       1 CDP1921     0.0000 
     25 C6         44.9790   82.8650   52.1310 C.2       1 CDP1921     0.0000 
     26 H          43.9206   78.6606   52.5079 H         1 CDP1921     0.0000 
     27 H          42.5612   78.5558   53.6397 H         1 CDP1921     0.0000 
     28 H          44.5271   78.8424   54.9387 H         1 CDP1921     0.0000 
     29 H          42.4476   80.7533   54.9738 H         1 CDP1921     0.0000 
     30 H          45.0015   81.3946   56.2287 H         1 CDP1921     0.0000 
     31 H          46.2957   81.7994   55.0199 H         1 CDP1921     0.0000 
     32 H          47.0765   86.6525   51.0220 H         1 CDP1921     0.0000 
     33 H          45.8685   85.9767   49.8775 H         1 CDP1921     0.0000 
     34 H          44.6606   83.9888   50.3776 H         1 CDP1921     0.0000 
     35 H          44.3124   82.1163   51.9082 H         1 CDP1921     0.0000 
     36 H          43.6340   81.4439   56.9533 H         1 CDP1921     0.0000 
     37 H          43.8391   82.7810   56.6970 H         1 CDP1921     0.0000 
@<TRIPOS>BOND
     1    2    1 ar   
     2    3    2 ar   
     3    4    2 ar   
     4    5    2 1    
     5    6    5 1    
     6    7    6 ar   
     7    8    6 ar   
     8    9    6 1    
     9   10    9 1    
    10   11   10 1    
    11   26   10 1    
    12   27   10 1    
    13   12   11 1    
    14   13   11 1    
    15   28   11 1    
    16   17   12 1    
    17   14   13 1    
    18   15   13 1    
    19   29   13 1    
    20   36   14 1    
    21   16   15 1    
    22   17   15 1    
    23   30   15 1    
    24   37   16 1    
    25   18   17 1    
    26   31   17 1    
    27   19   18 am   
    28   25   18 1    
    29   20   19 2    
    30   21   19 1    
    31   22   21 2    
    32   23   22 1    
    33   24   22 1    
    34   32   23 1    
    35   33   23 1    
    36   25   24 2    
    37   34   24 1    
    38   35   25 1    
@<TRIPOS>SUBSTRUCTURE
     1 CDP1921     1 GROUP   
@<TRIPOS>SET

