#    Name: 1gij_2PU_1_INTS_M
#    Modification time : Tue Mar 25 03:14:03 2014

@<TRIPOS>MOLECULE
1gij_2PU_1_INTS_M
   49     0    12     0     0
SMALL
NO_CHARGES


@<TRIPOS>ATOM
      1 CA          5.5770   11.4590   25.2835 C.3       4 GLC5        0.0000 
      2 CA          6.6380   11.2020   27.2210 C.3      12 GLL5        0.0000 
      3 CA          4.5160   11.7160   23.3460 C.3       8 GLP5        0.0000 
      4 CA          8.3745    8.8950   26.7535 C.3       4 GLC5        0.0000 
      5 CA          8.0240   10.5870   27.1770 C.3      12 GLL5        0.0000 
      6 CA          8.7250    7.2030   26.3300 C.3       8 GLP5        0.0000 
      7 CA          7.9415   10.0135   29.2535 C.3       4 GLC5        0.0000 
      8 CA          7.8590    9.4400   31.3300 C.3       8 GLP5        0.0000 
      9 CA          5.1235    8.9390   29.8155 C.3       4 GLC5        0.0000 
     10 CA          3.6050   10.4470   29.3470 C.3      12 GLL5        0.0000 
     11 CA          6.6420    7.4310   30.2840 C.3       8 GLP5        0.0000 
     12 CA          9.1800   13.0155   30.3510 C.3       4 GLC5        0.0000 
     13 CA          8.1410   12.4420   28.7360 C.3      12 GLL5        0.0000 
     14 CA         10.2190   13.5890   31.9660 C.3       8 GLP5        0.0000 
     15 CA          8.0000   10.9410   30.0330 C.3       4 GLC5        0.0000 
     16 O           4.2850    7.0285   22.7190 O.2       1 ALC1        0.0000 
     17 O           4.9720    7.6360   23.6570 O.2       9 ALL1        0.0000 
     18 O           3.5980    6.4210   21.7810 O.2       5 ALP1        0.0000 
     19 N           2.3390    6.9105   24.2760 N.am      2 SEC2        0.0000 
     20 N           3.1860    7.6090   25.0500 N.am     10 SEL2        0.0000 
     21 N           1.4920    6.2120   23.5020 N.am      6 SEP2        0.0000 
     22 CA          6.3635    7.7785   20.5300 C.3       4 GLC5        0.0000 
     23 CA          7.0980    7.3640   22.4860 C.3      12 GLL5        0.0000 
     24 CA          5.6290    8.1930   18.5740 C.3       8 GLP5        0.0000 
     25 CA          8.1000    9.9395   21.7120 C.3       4 GLC5        0.0000 
     26 CA          8.3310    8.0430   22.5730 C.3      12 GLL5        0.0000 
     27 CA          7.8690   11.8360   20.8510 C.3       8 GLP5        0.0000 
     28 OD1         9.6585    9.1530   20.1905 O.co2     3 ASC3        0.0000 
     29 OD1         9.6260    7.7520   20.3670 O.co2    11 ASL3        0.0000 
     30 OD1         9.6910   10.5540   20.0140 O.co2     7 ASP3        0.0000 
     31 CA         11.0335    8.9105   18.4845 C.3       4 GLC5        0.0000 
     32 CA         11.0410    7.4120   20.0000 C.3      12 GLL5        0.0000 
     33 CA         11.0260   10.4090   16.9690 C.3       8 GLP5        0.0000 
     34 CA          3.7115   10.4885   25.9020 C.3       4 GLC5        0.0000 
     35 CA          5.3140   10.4270   27.5210 C.3      12 GLL5        0.0000 
     36 CA          2.4770   11.0500   24.6330 C.3       8 GLP5        0.0000 
     37 CA          5.7321    8.7416   28.8863 C.3       4 GLC5        0.0000 
     38 CA          1.7190    8.9733   29.7560 C.3       4 GLC5        0.0000 
     39 CA          2.8670    9.4560   28.6210 C.3      12 GLL5        0.0000 
     40 CA          0.2020    7.9950   30.5280 C.3       8 GLP5        0.0000 
     41 CA          3.5374   12.1846   27.9117 C.3       4 GLC5        0.0000 
     42 CA          2.7390   13.8070   27.0720 C.3       8 GLP5        0.0000 
     43 CA          1.1867    9.8125   27.4630 C.3       4 GLC5        0.0000 
     44 CA         -0.7350   10.4170   26.9210 C.3       8 GLP5        0.0000 
     45 CA          2.7927   10.1290   26.3190 C.3       4 GLC5        0.0000 
     46 CA          3.3247    7.6134   28.3375 C.3       4 GLC5        0.0000 
     47 CA          4.5780    9.4270   26.8210 C.3      12 GLL5        0.0000 
     48 CA          3.2340    5.9020   28.8120 C.3       8 GLP5        0.0000 
     49 CA          8.2197    7.4532   24.4297 C.3       4 GLC5        0.0000 
@<TRIPOS>BOND
@<TRIPOS>SUBSTRUCTURE
     1 ALC1       16 GROUP        1 X    ALC  0     ROOT ALC X 1
     2 SEC2       19 GROUP        1 X    SEC  0     **** SEC X 2
     3 ASC3       28 GROUP        1 X    ASC  0     **** ASC X 3
     4 GLC5        1 GROUP        1 X    GLC  0     **** GLC X 6
     5 ALP1       18 GROUP        1 Y    ALP  0     ROOT ALP Y 8
     6 SEP2       21 GROUP        1 Y    SEP  0     **** SEP Y 9
     7 ASP3       30 GROUP        1 Y    ASP  0     **** ASP Y 10
     8 GLP5        3 GROUP        1 Y    GLP  0     **** GLP Y 13
     9 ALL1       17 GROUP        1 Z    ALL  0     ROOT ALL Z 15
    10 SEL2       20 GROUP        1 Z    SEL  0     **** SEL Z 16
    11 ASL3       29 GROUP        1 Z    ASL  0     **** ASL Z 17
    12 GLL5        2 GROUP        1 Z    GLL  0     **** GLL Z 20
@<TRIPOS>SET

