#    Name: 1gij_2PU_1_ligand
#    Modification time : Tue Mar 25 03:14:03 2014

@<TRIPOS>MOLECULE
1gij_2PU_1_ligand
   48    52     1     0     0
SMALL
NO_CHARGES


@<TRIPOS>ATOM
      1 C1          5.3140   10.4270   27.5210 C.ar      1 2PU501      0.0000 
      2 C2          6.6380   11.2020   27.2210 C.3       1 2PU501      0.0000 
      3 C3          4.8190   10.9280   28.7910 C.ar      1 2PU501      0.0000 
      4 C4          4.5780    9.4270   26.8210 C.ar      1 2PU501      0.0000 
      5 N5          6.7720   12.0640   28.4120 N.am      1 2PU501      0.0000 
      6 C6          8.0240   10.5870   27.1770 C.3       1 2PU501      0.0000 
      7 C7          5.7620   11.9460   29.3440 C.2       1 2PU501      0.0000 
      8 C8          3.6050   10.4470   29.3470 C.ar      1 2PU501      0.0000 
      9 C9          3.3500    8.9600   27.3890 C.ar      1 2PU501      0.0000 
     10 N10         4.9930    8.8320   25.5760 N.am      1 2PU501      0.0000 
     11 C11         8.1410   12.4420   28.7360 C.3       1 2PU501      0.0000 
     12 C12         8.9220   11.7330   27.6030 C.3       1 2PU501      0.0000 
     13 O13         5.6200   12.5430   30.4290 O.2       1 2PU501      0.0000 
     14 C14         2.8670    9.4560   28.6210 C.ar      1 2PU501      0.0000 
     15 C15         4.3400    7.9870   24.7690 C.2       1 2PU501      0.0000 
     16 N16         4.9720    7.6360   23.6570 N.am      1 2PU501      0.0000 
     17 O17         3.1860    7.6090   25.0500 O.2       1 2PU501      0.0000 
     18 C18         6.2870    7.9790   23.3820 C.2       1 2PU501      0.0000 
     19 C19         7.0980    7.3640   22.4860 C.2       1 2PU501      0.0000 
     20 N20         6.9680    8.9970   23.9980 N.2       1 2PU501      0.0000 
     21 C21         8.3310    8.0430   22.5730 C.2       1 2PU501      0.0000 
     22 N22         8.2200    9.0350   23.5100 N.pl3     1 2PU501      0.0000 
     23 C23         9.5910    7.7250   21.8020 C.3       1 2PU501      0.0000 
     24 C24        10.8730    8.4700   22.2320 C.3       1 2PU501      0.0000 
     25 N25         9.6260    7.7520   20.3670 N.4       1 2PU501      0.0000 
     26 C26        11.9120    8.0160   21.1470 C.3       1 2PU501      0.0000 
     27 C27        11.0410    7.4120   20.0000 C.3       1 2PU501      0.0000 
     28 H           6.4899   11.8684   26.3929 H         1 2PU501      0.0000 
     29 H           8.2582   10.2929   26.1859 H         1 2PU501      0.0000 
     30 H           8.0909    9.7948   27.8782 H         1 2PU501      0.0000 
     31 H           3.2653   10.7894   30.2291 H         1 2PU501      0.0000 
     32 H           2.8107    8.2448   26.8814 H         1 2PU501      0.0000 
     33 H           6.0046    9.1411   25.2734 H         1 2PU501      0.0000 
     34 H           8.4567   12.0385   29.6602 H         1 2PU501      0.0000 
     35 H           8.2977   13.4832   28.6465 H         1 2PU501      0.0000 
     36 H           9.0603   12.4129   26.7982 H         1 2PU501      0.0000 
     37 H           9.8374   11.3599   27.9928 H         1 2PU501      0.0000 
     38 H           1.9855    9.1108   29.0045 H         1 2PU501      0.0000 
     39 H           4.4637    7.0597   22.9204 H         1 2PU501      0.0000 
     40 H           6.9126    6.6462   21.9200 H         1 2PU501      0.0000 
     41 H           8.9184    9.6405   23.7623 H         1 2PU501      0.0000 
     42 H           9.8696    6.6174   22.0861 H         1 2PU501      0.0000 
     43 H          11.1894    8.1296   23.1727 H         1 2PU501      0.0000 
     44 H          10.7299    9.5066   22.1565 H         1 2PU501      0.0000 
     45 H          12.5318    7.2651   21.5521 H         1 2PU501      0.0000 
     46 H          12.4313    8.8608   20.7882 H         1 2PU501      0.0000 
     47 H          11.3191    7.8781   19.0844 H         1 2PU501      0.0000 
     48 H          11.1874    6.3578   19.9850 H         1 2PU501      0.0000 
@<TRIPOS>BOND
     1    2    1 1    
     2    3    1 ar   
     3    4    1 ar   
     4    5    2 1    
     5    6    2 1    
     6   28    2 1    
     7    7    3 1    
     8    8    3 ar   
     9    9    4 ar   
    10   10    4 1    
    11    7    5 am   
    12   11    5 1    
    13   12    6 1    
    14   29    6 1    
    15   30    6 1    
    16   13    7 2    
    17   14    8 ar   
    18   31    8 1    
    19   14    9 ar   
    20   32    9 1    
    21   15   10 am   
    22   33   10 1    
    23   12   11 1    
    24   34   11 1    
    25   35   11 1    
    26   36   12 1    
    27   37   12 1    
    28   38   14 1    
    29   16   15 am   
    30   17   15 2    
    31   18   16 1    
    32   39   16 1    
    33   19   18 1    
    34   20   18 2    
    35   21   19 2    
    36   40   19 1    
    37   22   20 1    
    38   22   21 1    
    39   23   21 1    
    40   41   22 1    
    41   24   23 1    
    42   25   23 1    
    43   42   23 1    
    44   26   24 1    
    45   43   24 1    
    46   44   24 1    
    47   27   25 1    
    48   27   26 1    
    49   45   26 1    
    50   46   26 1    
    51   47   27 1    
    52   48   27 1    
@<TRIPOS>SUBSTRUCTURE
     1 2PU501      1 GROUP   
@<TRIPOS>SET

