#    Name: 1ir3_ANP_1_INTS_M
#    Modification time : Tue Mar 25 07:18:16 2014

@<TRIPOS>MOLECULE
1ir3_ANP_1_INTS_M
   69     0    15     0     0
SMALL
NO_CHARGES


@<TRIPOS>ATOM
      1 Zn        -24.1775   29.8255   12.0990 Zn        4 ZIC7        0.0000 
      2 Zn        -23.3600   29.2560   12.0980 Zn       14 ZIL7        0.0000 
      3 Zn        -24.9950   30.3950   12.1000 Zn        9 ZIP7        0.0000 
      4 N         -26.6350   24.8510   11.3620 N.am      2 SEC2        0.0000 
      5 N         -26.6740   26.2930   11.3080 N.am     12 SEL2        0.0000 
      6 N         -26.5960   23.4090   11.4160 N.am      7 SEP2        0.0000 
      7 Zn        -25.6060   29.5640   11.8810 Zn        4 ZIC7        0.0000 
      8 Zn        -26.2170   28.7330   11.6620 Zn       14 ZIL7        0.0000 
      9 Zn        -27.3300   29.0710   12.1190 Zn        4 ZIC7        0.0000 
     10 Zn        -28.4430   29.4090   12.5760 Zn        9 ZIP7        0.0000 
     11 NZ        -28.1690   27.0575    8.0920 N.4       3 LYC4        0.0000 
     12 NZ        -26.7780   26.8340    7.9370 N.4      13 LYL4        0.0000 
     13 NZ        -29.5600   27.2810    8.2470 N.4       8 LYP4        0.0000 
     14 N         -28.1690   27.0575    8.0920 N.am      2 SEC2        0.0000 
     15 N         -26.7780   26.8340    7.9370 N.am     12 SEL2        0.0000 
     16 N         -29.5600   27.2810    8.2470 N.am      7 SEP2        0.0000 
     17 NZ        -28.0710   28.2840    8.3890 N.4       3 LYC4        0.0000 
     18 NZ        -26.5820   29.2870    8.5310 N.4      13 LYL4        0.0000 
     19 N         -27.6925   29.4065    9.3535 N.am      2 SEC2        0.0000 
     20 N         -26.5820   29.2870    8.5310 N.am     12 SEL2        0.0000 
     21 N         -28.8030   29.5260   10.1760 N.am      7 SEP2        0.0000 
     22 CA        -24.6580   25.5745    8.2750 C.3       5 GLC5        0.0000 
     23 CA        -23.6690   27.0850    7.2630 C.3      15 GLL5        0.0000 
     24 CA        -25.6470   24.0640    9.2870 C.3      10 GLP5        0.0000 
     25 CA        -21.8960   26.0185    5.4045 C.3       5 GLC5        0.0000 
     26 CA        -22.4870   27.6050    6.4670 C.3      15 GLL5        0.0000 
     27 CA        -21.3050   24.4320    4.3420 C.3      10 GLP5        0.0000 
     28 CA        -22.2960   31.0920    7.2275 C.3       5 GLC5        0.0000 
     29 CA        -21.9570   28.9650    6.9350 C.3      15 GLL5        0.0000 
     30 CA        -22.6350   33.2190    7.5200 C.3      10 GLP5        0.0000 
     31 O         -19.4710   29.4020    7.6935 O.2       1 ALC1        0.0000 
     32 O         -20.9510   28.8580    7.9850 O.2      11 ALL1        0.0000 
     33 O         -17.9910   29.9460    7.4020 O.2       6 ALP1        0.0000 
     34 CA        -21.7030   31.4765    5.7805 C.3       5 GLC5        0.0000 
     35 CA        -21.2960   29.5060    5.6970 C.3      15 GLL5        0.0000 
     36 CA        -22.1100   33.4470    5.8640 C.3      10 GLP5        0.0000 
     37 O         -18.9750   29.4480    6.4515 O.2       1 ALC1        0.0000 
     38 O         -19.9590   28.9500    5.5010 O.2      11 ALL1        0.0000 
     39 CA        -23.7910   28.3580    3.3220 C.3       5 GLC5        0.0000 
     40 CA        -22.2230   28.9640    4.5960 C.3      15 GLL5        0.0000 
     41 CA        -25.3590   27.7520    2.0480 C.3      10 GLP5        0.0000 
     42 CA        -23.6210   34.2985    1.6995 C.3       5 GLC5        0.0000 
     43 CA        -24.3500   32.4420    1.8940 C.3      15 GLL5        0.0000 
     44 CA        -22.8920   36.1550    1.5050 C.3      10 GLP5        0.0000 
     45 O         -25.6670   34.0455    0.4480 O.2       1 ALC1        0.0000 
     46 O         -25.3560   33.3220    1.7330 O.2      11 ALL1        0.0000 
     47 O         -25.9780   34.7690   -0.8370 O.2       6 ALP1        0.0000 
     48 N         -22.9090   33.4550    0.0000 N.am      2 SEC2        0.0000 
     49 N         -23.3880   32.3910    0.9670 N.am     12 SEL2        0.0000 
     50 N         -22.4300   34.5190   -0.9670 N.am      7 SEP2        0.0000 
     51 CA        -22.5150   30.0790    0.1835 C.3       5 GLC5        0.0000 
     52 CA        -22.3640   31.5480    1.1320 C.3      15 GLL5        0.0000 
     53 CA        -22.6660   28.6100   -0.7650 C.3      10 GLP5        0.0000 
     54 CA        -24.1540   31.2195    0.1755 C.3       5 GLC5        0.0000 
     55 CA        -25.9440   30.8910   -0.7810 C.3      10 GLP5        0.0000 
     56 CA        -22.3755   31.5005   -0.9410 C.3       5 GLC5        0.0000 
     57 CA        -22.3870   31.4530   -3.0140 C.3      10 GLP5        0.0000 
     58 CA        -21.9975   33.4405    1.1700 C.3       5 GLC5        0.0000 
     59 CA        -21.6310   35.3330    1.2080 C.3      10 GLP5        0.0000 
     60 CA        -22.8835   29.6860    1.1300 C.3       5 GLC5        0.0000 
     61 CA        -23.1010   30.7620    3.0250 C.3      15 GLL5        0.0000 
     62 CA        -24.6060   27.0895    5.5615 C.3       5 GLC5        0.0000 
     63 CA        -26.1340   26.8340    4.2580 C.3      10 GLP5        0.0000 
     64 CA        -20.3483   30.6123    7.1250 C.3       5 GLC5        0.0000 
     65 CA        -19.0700   31.9890    7.9340 C.3      10 GLP5        0.0000 
     66 CA        -24.5065   29.4577    2.5305 C.3       5 GLC5        0.0000 
     67 CA        -25.1112   31.4473    0.8332 C.3       5 GLC5        0.0000 
     68 CA        -24.2070   31.5650    3.0010 C.3      15 GLL5        0.0000 
     69 CA        -22.8820   32.3053    4.4385 C.3       5 GLC5        0.0000 
@<TRIPOS>BOND
@<TRIPOS>SUBSTRUCTURE
     1 ALC1       31 GROUP        1 X    ALC  0     ROOT ALC X 1
     2 SEC2        4 GROUP        1 X    SEC  0     **** SEC X 2
     3 LYC4       11 GROUP        1 X    LYC  0     **** LYC X 4
     4 ZIC7        1 GROUP        1 X    ZIC  0     **** ZIC X 5
     5 GLC5       22 GROUP        1 X    GLC  0     **** GLC X 6
     6 ALP1       33 GROUP        1 Y    ALP  0     ROOT ALP Y 8
     7 SEP2        6 GROUP        1 Y    SEP  0     **** SEP Y 9
     8 LYP4       13 GROUP        1 Y    LYP  0     **** LYP Y 11
     9 ZIP7        3 GROUP        1 Y    ZIP  0     **** ZIP Y 12
    10 GLP5       24 GROUP        1 Y    GLP  0     **** GLP Y 13
    11 ALL1       32 GROUP        1 Z    ALL  0     ROOT ALL Z 15
    12 SEL2        5 GROUP        1 Z    SEL  0     **** SEL Z 16
    13 LYL4       12 GROUP        1 Z    LYL  0     **** LYL Z 18
    14 ZIL7        2 GROUP        1 Z    ZIL  0     **** ZIL Z 19
    15 GLL5       23 GROUP        1 Z    GLL  0     **** GLL Z 20
@<TRIPOS>SET

