#    Name: 2oye_IM8_1_INTS_M
#    Modification time : Mon Mar 24 18:01:07 2014

@<TRIPOS>MOLECULE
2oye_IM8_1_INTS_M
   76     0     6     0     0
SMALL
NO_CHARGES


@<TRIPOS>ATOM
      1 CA        252.4500  105.1840  -42.5685 C.3       2 GLC5        0.0000 
      2 CA        251.9230  107.1430  -42.5330 C.3       6 GLL5        0.0000 
      3 CA        252.9770  103.2250  -42.6040 C.3       4 GLP5        0.0000 
      4 CA        254.5055  107.8635  -43.9135 C.3       2 GLC5        0.0000 
      5 CA        252.9710  108.3730  -44.9810 C.3       6 GLL5        0.0000 
      6 CA        256.0400  107.3540  -42.8460 C.3       4 GLP5        0.0000 
      7 CA        251.0895  107.2585  -44.7875 C.3       2 GLC5        0.0000 
      8 CA        249.2080  106.1440  -44.5940 C.3       4 GLP5        0.0000 
      9 CA        251.4730  109.4945  -45.3320 C.3       2 GLC5        0.0000 
     10 CA        249.9750  110.6160  -45.6830 C.3       4 GLP5        0.0000 
     11 CA        251.7610  108.1850  -34.6910 C.3       2 GLC5        0.0000 
     12 CA        252.0810  107.9750  -36.5380 C.3       6 GLL5        0.0000 
     13 CA        251.4410  108.3950  -32.8440 C.3       4 GLP5        0.0000 
     14 CA        254.7260  111.0075  -39.3495 C.3       2 GLC5        0.0000 
     15 CA        253.4920  110.1440  -38.3650 C.3       6 GLL5        0.0000 
     16 CA        255.9600  111.8710  -40.3340 C.3       4 GLP5        0.0000 
     17 O         249.0035  114.2845  -39.8555 O.2       1 ALC1        0.0000 
     18 O         249.9710  113.2820  -39.4700 O.2       5 ALL1        0.0000 
     19 O         248.0360  115.2870  -40.2410 O.2       3 ALP1        0.0000 
     20 CA        244.0235  103.5150  -39.9655 C.3       2 GLC5        0.0000 
     21 CA        245.6320  103.6120  -40.5100 C.3       6 GLL5        0.0000 
     22 CA        242.4150  103.4180  -39.4210 C.3       4 GLP5        0.0000 
     23 CA        246.7860  102.4270  -41.2035 C.3       2 GLC5        0.0000 
     24 CA        247.9400  101.2420  -41.8970 C.3       4 GLP5        0.0000 
     25 CA        245.0020  103.9740  -42.5060 C.3       2 GLC5        0.0000 
     26 CA        244.3720  104.3360  -44.5020 C.3       4 GLP5        0.0000 
     27 O         253.4330  112.4300  -40.3055 O.2       1 ALC1        0.0000 
     28 O         252.8350  112.2980  -39.0380 O.2       5 ALL1        0.0000 
     29 O         254.0310  112.5620  -41.5730 O.2       3 ALP1        0.0000 
     30 CA        253.8480  112.9155  -40.2450 C.3       2 GLC5        0.0000 
     31 CA        252.3680  113.7090  -38.9540 C.3       6 GLL5        0.0000 
     32 CA        255.3280  112.1220  -41.5360 C.3       4 GLP5        0.0000 
     33 CA        250.5110  113.9570  -36.5595 C.3       2 GLC5        0.0000 
     34 CA        250.8990  113.7920  -38.5340 C.3       6 GLL5        0.0000 
     35 CA        250.1230  114.1220  -34.5850 C.3       4 GLP5        0.0000 
     36 CA        253.9785  113.8140  -36.1830 C.3       2 GLC5        0.0000 
     37 CA        253.2680  114.5500  -38.0100 C.3       6 GLL5        0.0000 
     38 CA        254.6890  113.0780  -34.3560 C.3       4 GLP5        0.0000 
     39 CA        255.5825  114.6750  -36.4650 C.3       2 GLC5        0.0000 
     40 CA        254.7940  114.4840  -38.3150 C.3       6 GLL5        0.0000 
     41 CA        256.3710  114.8660  -34.6150 C.3       4 GLP5        0.0000 
     42 CA        254.6970  108.3435  -41.1467 C.3       2 GLC5        0.0000 
     43 CA        252.9980  109.0240  -41.2680 C.3       6 GLL5        0.0000 
     44 CA        256.6420  107.9840  -41.5990 C.3       4 GLP5        0.0000 
     45 CA        251.4805  109.6690  -42.2013 C.3       2 GLC5        0.0000 
     46 CA        250.1130  110.6340  -42.5090 C.3       4 GLP5        0.0000 
     47 CA        254.1753  107.5588  -42.6860 C.3       2 GLC5        0.0000 
     48 CA        252.6980  108.3840  -42.5190 C.3       6 GLL5        0.0000 
     49 CA        250.9027  108.7407  -42.2275 C.3       2 GLC5        0.0000 
     50 CA        251.8710  104.9755  -41.0512 C.3       2 GLC5        0.0000 
     51 CA        251.4620  106.5520  -41.3590 C.3       6 GLL5        0.0000 
     52 CA        252.1220  103.0710  -41.3530 C.3       4 GLP5        0.0000 
     53 CA        253.5020  106.7850  -38.9728 C.3       2 GLC5        0.0000 
     54 CA        252.5060  108.3820  -40.1210 C.3       6 GLL5        0.0000 
     55 CA        254.8620  105.7750  -37.8150 C.3       4 GLP5        0.0000 
     56 CA        251.1275  109.2145  -41.3197 C.3       2 GLC5        0.0000 
     57 CA        251.7780  107.2080  -40.1400 C.3       6 GLL5        0.0000 
     58 CA        250.7583  103.8602  -40.0820 C.3       2 GLC5        0.0000 
     59 CA        249.5520  105.3500  -38.8810 C.3       6 GLL5        0.0000 
     60 CA        249.1232  104.6612  -36.8165 C.3       2 GLC5        0.0000 
     61 CA        248.8520  104.6730  -34.8220 C.3       4 GLP5        0.0000 
     62 CA        246.5178  106.5175  -39.0680 C.3       2 GLC5        0.0000 
     63 CA        248.6160  106.1970  -39.5360 C.3       6 GLL5        0.0000 
     64 CA        245.0270  107.1090  -38.3470 C.3       4 GLP5        0.0000 
     65 CA        248.2283  107.1116  -38.1991 C.3       2 GLC5        0.0000 
     66 CA        247.4010  105.6550  -40.0420 C.3       6 GLL5        0.0000 
     67 CA        248.2140  108.5090  -36.7730 C.3       4 GLP5        0.0000 
     68 CA        245.6968  105.5230  -39.2752 C.3       2 GLC5        0.0000 
     69 CA        247.1010  104.2620  -39.8970 C.3       6 GLL5        0.0000 
     70 CA        253.5528  106.9839  -37.6494 C.3       2 GLC5        0.0000 
     71 CA        252.0870  107.9370  -38.0410 C.3       6 GLL5        0.0000 
     72 CA        250.6397  108.9229  -37.4119 C.3       2 GLC5        0.0000 
     73 CA        249.0360  109.6530  -37.3400 C.3       4 GLP5        0.0000 
     74 CA        255.2285  115.0495  -39.5102 C.3       2 GLC5        0.0000 
     75 CA        256.4260  115.5820  -40.8580 C.3       4 GLP5        0.0000 
     76 CA        254.9955  113.1940  -39.2482 C.3       2 GLC5        0.0000 
@<TRIPOS>BOND
@<TRIPOS>SUBSTRUCTURE
     1 ALC1       17 GROUP        1 X    ALC  0     ROOT ALC X 1
     2 GLC5        1 GROUP        1 X    GLC  0     **** GLC X 6
     3 ALP1       19 GROUP        1 Y    ALP  0     ROOT ALP Y 8
     4 GLP5        3 GROUP        1 Y    GLP  0     **** GLP Y 13
     5 ALL1       18 GROUP        1 Z    ALL  0     ROOT ALL Z 15
     6 GLL5        2 GROUP        1 Z    GLL  0     **** GLL Z 20
@<TRIPOS>SET

