#    Name: 2oye_IM8_1_ligand
#    Modification time : Mon Mar 24 18:01:07 2014

@<TRIPOS>MOLECULE
2oye_IM8_1_ligand
   55    57     1     0     0
SMALL
NO_CHARGES


@<TRIPOS>ATOM
      1 C2        252.9980  109.0240  -41.2680 C.ar      1 IM8700      0.0000 
      2 C3        252.6980  108.3840  -42.5190 C.ar      1 IM8700      0.0000 
      3 C4        251.9230  107.1430  -42.5330 C.ar      1 IM8700      0.0000 
      4 C5        251.4620  106.5520  -41.3590 C.ar      1 IM8700      0.0000 
      5 C6        252.9710  108.3730  -44.9810 C.3       1 IM8700      0.0000 
      6 C7        252.7250  108.8840  -38.8180 C.2       1 IM8700      0.0000 
      7 C8        252.0870  107.9370  -38.0410 C.2       1 IM8700      0.0000 
      8 C9        250.8580  105.8570  -38.3290 C.2       1 IM8700      0.0000 
      9 C         251.7780  107.2080  -40.1400 C.ar      1 IM8700      0.0000 
     10 C1        252.5060  108.3820  -40.1210 C.ar      1 IM8700      0.0000 
     11 C10       249.5520  105.3500  -38.8810 C.ar      1 IM8700      0.0000 
     12 C11       248.6160  106.1970  -39.5360 C.ar      1 IM8700      0.0000 
     13 C12       247.4010  105.6550  -40.0420 C.ar      1 IM8700      0.0000 
     14 C13       247.1010  104.2620  -39.8970 C.ar      1 IM8700      0.0000 
     15 C14       248.0240  103.4090  -39.2420 C.ar      1 IM8700      0.0000 
     16 C15       249.2370  103.9490  -38.7410 C.ar      1 IM8700      0.0000 
     17 C16       252.0810  107.9750  -36.5380 C.3       1 IM8700      0.0000 
     18 C17       253.4920  110.1440  -38.3650 C.3       1 IM8700      0.0000 
     19 C18       252.8250  111.3820  -38.0510 C.2       1 IM8700      0.0000 
     20 N         251.5170  106.9370  -38.8140 N.am      1 IM8700      0.0000 
     21 O         253.1540  108.9940  -43.7200 O.3       1 IM8700      0.0000 
     22 O1        251.3470  105.2140  -37.4190 O.2       1 IM8700      0.0000 
     23 O2        252.3000  111.5550  -36.9310 O.2       1 IM8700      0.0000 
     24 O3        249.9710  113.2820  -39.4700 O.3       1 IM8700      0.0000 
     25 CL        245.6320  103.6120  -40.5100 Cl        1 IM8700      0.0000 
     26 N2        252.8350  112.2980  -39.0380 N.am      1 IM8700      0.0000 
     27 C19       252.3680  113.7090  -38.9540 C.3       1 IM8700      0.0000 
     28 C20       250.8990  113.7920  -38.5340 C.3       1 IM8700      0.0000 
     29 C21       253.2680  114.5500  -38.0100 C.3       1 IM8700      0.0000 
     30 C22       254.7940  114.4840  -38.3150 C.3       1 IM8700      0.0000 
     31 H         253.5192  109.8633  -41.2345 H         1 IM8700      0.0000 
     32 H         251.7288  106.7183  -43.4503 H         1 IM8700      0.0000 
     33 H         250.9305  105.7026  -41.3609 H         1 IM8700      0.0000 
     34 H         248.8140  107.1887  -39.6430 H         1 IM8700      0.0000 
     35 H         246.7312  106.2647  -40.5157 H         1 IM8700      0.0000 
     36 H         247.8202  102.4211  -39.1318 H         1 IM8700      0.0000 
     37 H         249.9110  103.3383  -38.2675 H         1 IM8700      0.0000 
     38 H         254.2976  110.3277  -39.1644 H         1 IM8700      0.0000 
     39 H         254.1418  109.8153  -37.4753 H         1 IM8700      0.0000 
     40 H         253.2087  112.0352  -40.0071 H         1 IM8700      0.0000 
     41 H         252.4483  114.1661  -39.9553 H         1 IM8700      0.0000 
     42 H         250.8140  113.2674  -37.5459 H         1 IM8700      0.0000 
     43 H         250.6902  114.8683  -38.2954 H         1 IM8700      0.0000 
     44 H         253.1042  114.2134  -36.9733 H         1 IM8700      0.0000 
     45 H         252.9469  115.6032  -38.0613 H         1 IM8700      0.0000 
     46 H         253.3482  108.9247  -45.7249 H         1 IM8700      0.0000 
     47 H         253.4177  107.4793  -45.0232 H         1 IM8700      0.0000 
     48 H         252.0032  108.2269  -45.1861 H         1 IM8700      0.0000 
     49 H         253.0063  107.9281  -36.1616 H         1 IM8700      0.0000 
     50 H         251.6650  108.8149  -36.1894 H         1 IM8700      0.0000 
     51 H         251.5673  107.2102  -36.1492 H         1 IM8700      0.0000 
     52 H         255.3245  115.0441  -37.6787 H         1 IM8700      0.0000 
     53 H         255.1462  113.5505  -38.2475 H         1 IM8700      0.0000 
     54 H         255.0029  114.8102  -39.2369 H         1 IM8700      0.0000 
     55 H         249.3412  114.0381  -39.6482 H         1 IM8700      0.0000 
@<TRIPOS>BOND
     1    2    1 ar   
     2   10    1 ar   
     3   31    1 1    
     4    3    2 ar   
     5   21    2 1    
     6    4    3 ar   
     7   32    3 1    
     8    9    4 ar   
     9   33    4 1    
    10   21    5 1    
    11   46    5 1    
    12   47    5 1    
    13   48    5 1    
    14    7    6 2    
    15   10    6 1    
    16   18    6 1    
    17   17    7 1    
    18   20    7 1    
    19   11    8 1    
    20   20    8 am   
    21   22    8 2    
    22   10    9 ar   
    23   20    9 1    
    24   12   11 ar   
    25   16   11 ar   
    26   13   12 ar   
    27   34   12 1    
    28   14   13 ar   
    29   35   13 1    
    30   15   14 ar   
    31   25   14 1    
    32   16   15 ar   
    33   36   15 1    
    34   37   16 1    
    35   49   17 1    
    36   50   17 1    
    37   51   17 1    
    38   19   18 1    
    39   38   18 1    
    40   39   18 1    
    41   23   19 2    
    42   26   19 am   
    43   28   24 1    
    44   55   24 1    
    45   27   26 1    
    46   40   26 1    
    47   28   27 1    
    48   29   27 1    
    49   41   27 1    
    50   42   28 1    
    51   43   28 1    
    52   30   29 1    
    53   44   29 1    
    54   45   29 1    
    55   52   30 1    
    56   53   30 1    
    57   54   30 1    
@<TRIPOS>SUBSTRUCTURE
     1 IM8700      1 GROUP   
@<TRIPOS>SET

