#    Name: 3vqh_IQB_1_INTS_M
#    Modification time : Tue Mar 25 01:14:53 2014

@<TRIPOS>MOLECULE
3vqh_IQB_1_INTS_M
   79     0    12     0     0
SMALL
NO_CHARGES


@<TRIPOS>ATOM
      1 CA         -8.1315   11.7540   -1.6100 C.3       4 GLC5        0.0000 
      2 CA         -7.2650   10.0170   -1.6590 C.3      12 GLL5        0.0000 
      3 CA         -8.9980   13.4910   -1.5610 C.3       8 GLP5        0.0000 
      4 CA         -3.1380    8.8275   -0.3485 C.3       4 GLC5        0.0000 
      5 CA         -4.8830    9.8960   -1.2680 C.3      12 GLL5        0.0000 
      6 CA         -1.3930    7.7590    0.5710 C.3       8 GLP5        0.0000 
      7 CA         -1.4970   10.4645   -3.7125 C.3       4 GLC5        0.0000 
      8 CA         -3.3680    9.7470   -3.1630 C.3      12 GLL5        0.0000 
      9 CA          0.3740   11.1820   -4.2620 C.3       8 GLP5        0.0000 
     10 CA         -1.9390    8.2580   -3.2780 C.3       4 GLC5        0.0000 
     11 CA         -0.5100    6.7690   -3.3930 C.3       8 GLP5        0.0000 
     12 N          -1.7340    9.3770   -4.8485 N.am      2 SEC2        0.0000 
     13 N          -3.1480    9.6910   -4.4750 N.am     10 SEL2        0.0000 
     14 N          -0.3200    9.0630   -5.2220 N.am      6 SEP2        0.0000 
     15 CA         -2.5225    8.1970   -5.1075 C.3       4 GLC5        0.0000 
     16 CA         -4.1530    9.7200   -5.3400 C.3      12 GLL5        0.0000 
     17 CA         -0.8920    6.6740   -4.8750 C.3       8 GLP5        0.0000 
     18 O          -9.7680    7.9045   -5.7960 O.2       1 ALC1        0.0000 
     19 O          -8.9110    8.4930   -4.6080 O.2       9 ALL1        0.0000 
     20 O         -10.6250    7.3160   -6.9840 O.2       5 ALP1        0.0000 
     21 CA         -9.1370    6.5195   -5.4575 C.3       4 GLC5        0.0000 
     22 CA         -9.1830    7.5200   -3.5110 C.3      12 GLL5        0.0000 
     23 CA         -9.0910    5.5190   -7.4040 C.3       8 GLP5        0.0000 
     24 CA         -7.7570    6.4340   -3.8780 C.3       4 GLC5        0.0000 
     25 CA         -6.3310    5.3480   -4.2450 C.3       8 GLP5        0.0000 
     26 CA        -10.4190    5.4190   -2.5195 C.3       4 GLC5        0.0000 
     27 CA        -10.6680    7.5000   -3.0950 C.3      12 GLL5        0.0000 
     28 CA        -10.1700    3.3380   -1.9440 C.3       8 GLP5        0.0000 
     29 OD1       -11.0945    7.4585   -5.6205 O.co2     3 ASC3        0.0000 
     30 OD1       -11.5640    7.6010   -4.2570 O.co2    11 ASL3        0.0000 
     31 OD1       -10.6250    7.3160   -6.9840 O.co2     7 ASP3        0.0000 
     32 CA        -15.9940   13.3500   -0.0165 C.3       4 GLC5        0.0000 
     33 CA        -15.0760   13.6160    1.7250 C.3      12 GLL5        0.0000 
     34 CA        -16.9120   13.0840   -1.7580 C.3       8 GLP5        0.0000 
     35 CA        -15.4755   13.8075    3.2955 C.3       4 GLC5        0.0000 
     36 CA        -15.8750   13.9990    4.8660 C.3       8 GLP5        0.0000 
     37 CA        -13.8435   14.8065    2.6960 C.3       4 GLC5        0.0000 
     38 CA        -12.6110   15.9970    3.6670 C.3       8 GLP5        0.0000 
     39 CA        -12.2010   13.0845    1.1890 C.3       4 GLC5        0.0000 
     40 CA        -13.2910   13.4490   -0.5310 C.3      12 GLL5        0.0000 
     41 CA        -11.1110   12.7200    2.9090 C.3       8 GLP5        0.0000 
     42 CA         -6.6990   11.8873   -3.1633 C.3       4 GLC5        0.0000 
     43 CA         -7.0620    9.9490   -3.0380 C.3      12 GLL5        0.0000 
     44 CA         -6.9920   13.8670   -3.0420 C.3       8 GLP5        0.0000 
     45 CA         -5.3550    8.2668   -3.6133 C.3       4 GLC5        0.0000 
     46 CA         -4.3040    6.6260   -3.9420 C.3       8 GLP5        0.0000 
     47 CA         -6.6655    8.1787   -0.5680 C.3       4 GLC5        0.0000 
     48 CA         -6.6050    6.3560    0.0820 C.3       8 GLP5        0.0000 
     49 CA         -5.5060   11.1560    0.4228 C.3       4 GLC5        0.0000 
     50 CA         -6.1870    9.9860   -0.7770 C.3      12 GLL5        0.0000 
     51 CA         -5.4770   12.3710    1.8680 C.3       8 GLP5        0.0000 
     52 CA         -5.0473    8.0467   -1.3365 C.3       4 GLC5        0.0000 
     53 CA         -4.6660    9.8390   -2.6520 C.3      12 GLL5        0.0000 
     54 CA         -5.3200    6.2260   -0.7130 C.3       8 GLP5        0.0000 
     55 CA         -4.1876    8.2166   -3.2518 C.3       4 GLC5        0.0000 
     56 CA         -4.7698   11.5760   -5.9140 C.3       4 GLC5        0.0000 
     57 CA         -4.7240   13.3890   -6.7070 C.3       8 GLP5        0.0000 
     58 CA         -4.0533   11.4125   -3.9840 C.3       4 GLC5        0.0000 
     59 CA         -3.2910   13.0620   -2.8470 C.3       8 GLP5        0.0000 
     60 CA         -4.5598    8.1945   -4.5315 C.3       4 GLC5        0.0000 
     61 CA         -4.1008   11.4493   -2.9466 C.3       4 GLC5        0.0000 
     62 CA         -5.7500    9.8660   -3.5310 C.3      12 GLL5        0.0000 
     63 CA        -11.9569   11.3305   -4.9306 C.3       4 GLC5        0.0000 
     64 CA        -11.9320    9.0140   -4.4740 C.3      12 GLL5        0.0000 
     65 CA        -11.5990   12.5880   -6.4010 C.3       8 GLP5        0.0000 
     66 CA        -13.6765   12.6015   -3.5572 C.3       4 GLC5        0.0000 
     67 CA        -12.3610   10.8670   -2.9990 C.3      12 GLL5        0.0000 
     68 CA        -14.6780   14.0260   -4.6590 C.3       8 GLP5        0.0000 
     69 CA        -15.1797   12.1127   -1.6385 C.3       4 GLC5        0.0000 
     70 CA        -12.9890   11.4870   -1.9120 C.3      12 GLL5        0.0000 
     71 CA        -15.6367   12.5888   -0.8255 C.3       4 GLC5        0.0000 
     72 CA        -14.2100   12.7570    0.2590 C.3      12 GLL5        0.0000 
     73 CA        -12.8770   12.9533    1.9505 C.3       4 GLC5        0.0000 
     74 CA        -13.8350   13.5777   -2.8655 C.3       4 GLC5        0.0000 
     75 CA        -14.9520   13.1067   -1.4150 C.3       4 GLC5        0.0000 
     76 CA        -12.6930   12.8100   -1.6130 C.3      12 GLL5        0.0000 
     77 CA        -12.7065   14.9928   -1.8520 C.3       4 GLC5        0.0000 
     78 CA        -12.4210   16.8560   -2.6320 C.3       8 GLP5        0.0000 
     79 CA        -11.0320   13.1449   -1.3539 C.3       4 GLC5        0.0000 
@<TRIPOS>BOND
@<TRIPOS>SUBSTRUCTURE
     1 ALC1       18 GROUP        1 X    ALC  0     ROOT ALC X 1
     2 SEC2       12 GROUP        1 X    SEC  0     **** SEC X 2
     3 ASC3       29 GROUP        1 X    ASC  0     **** ASC X 3
     4 GLC5        1 GROUP        1 X    GLC  0     **** GLC X 6
     5 ALP1       20 GROUP        1 Y    ALP  0     ROOT ALP Y 8
     6 SEP2       14 GROUP        1 Y    SEP  0     **** SEP Y 9
     7 ASP3       31 GROUP        1 Y    ASP  0     **** ASP Y 10
     8 GLP5        3 GROUP        1 Y    GLP  0     **** GLP Y 13
     9 ALL1       19 GROUP        1 Z    ALL  0     ROOT ALL Z 15
    10 SEL2       13 GROUP        1 Z    SEL  0     **** SEL Z 16
    11 ASL3       30 GROUP        1 Z    ASL  0     **** ASL Z 17
    12 GLL5        2 GROUP        1 Z    GLL  0     **** GLL Z 20
@<TRIPOS>SET

