#    Name: 3vqh_IQB_1_ligand
#    Modification time : Tue Mar 25 01:14:53 2014

@<TRIPOS>MOLECULE
3vqh_IQB_1_ligand
   46    48     1     0     0
SMALL
NO_CHARGES


@<TRIPOS>ATOM
      1 C1         -7.0620    9.9490   -3.0380 C.ar      1 IQB401      0.0000 
      2 C2         -7.2650   10.0170   -1.6590 C.ar      1 IQB401      0.0000 
      3 C3         -6.1870    9.9860   -0.7770 C.ar      1 IQB401      0.0000 
      4 C4         -4.8830    9.8960   -1.2680 C.ar      1 IQB401      0.0000 
      5 C5         -4.6660    9.8390   -2.6520 C.ar      1 IQB401      0.0000 
      6 C6         -3.3680    9.7470   -3.1630 C.ar      1 IQB401      0.0000 
      7 N7         -3.1480    9.6910   -4.4750 N.ar      1 IQB401      0.0000 
      8 C8         -4.1530    9.7200   -5.3400 C.ar      1 IQB401      0.0000 
      9 C9         -5.4780    9.8060   -4.9020 C.ar      1 IQB401      0.0000 
     10 C10        -5.7500    9.8660   -3.5310 C.ar      1 IQB401      0.0000 
     11 S          -8.4890    9.9930   -4.1080 S.o2      1 IQB401      0.0000 
     12 O1         -8.2180   10.8510   -5.2860 O.2       1 IQB401      0.0000 
     13 O2         -9.6110   10.6030   -3.3390 O.2       1 IQB401      0.0000 
     14 N1'        -8.9110    8.4930   -4.6080 N.pl3     1 IQB401      0.0000 
     15 C2'        -9.1830    7.5200   -3.5110 C.3       1 IQB401      0.0000 
     16 C3'       -10.6680    7.5000   -3.0950 C.3       1 IQB401      0.0000 
     17 N4'       -11.5640    7.6010   -4.2570 N.4       1 IQB401      0.0000 
     18 C5'       -11.9320    9.0140   -4.4740 C.3       1 IQB401      0.0000 
     19 C6'       -12.6050    9.5440   -3.3690 C.2       1 IQB401      0.0000 
     20 C7'       -12.3610   10.8670   -2.9990 C.2       1 IQB401      0.0000 
     21 C1'       -12.9890   11.4870   -1.9120 C.ar      1 IQB401      0.0000 
     22 C2B       -13.9060   10.7960   -1.1260 C.ar      1 IQB401      0.0000 
     23 C3B       -14.5130   11.4300   -0.0450 C.ar      1 IQB401      0.0000 
     24 C4'       -14.2100   12.7570    0.2590 C.ar      1 IQB401      0.0000 
     25 BR4'      -15.0760   13.6160    1.7250 Br        1 IQB401      0.0000 
     26 C5B       -13.2910   13.4490   -0.5310 C.ar      1 IQB401      0.0000 
     27 C6B       -12.6930   12.8100   -1.6130 C.ar      1 IQB401      0.0000 
     28 H          -8.2261   10.0912   -1.2889 H         1 IQB401      0.0000 
     29 H          -6.3503   10.0294    0.2366 H         1 IQB401      0.0000 
     30 H          -4.0889    9.8716   -0.6239 H         1 IQB401      0.0000 
     31 H          -2.5773    9.7237   -2.4804 H         1 IQB401      0.0000 
     32 H          -3.9850    9.6796   -6.3708 H         1 IQB401      0.0000 
     33 H          -6.2440    9.8250   -5.5794 H         1 IQB401      0.0000 
     34 H          -8.9584    8.3283   -5.5249 H         1 IQB401      0.0000 
     35 H          -8.5828    7.7697   -2.6255 H         1 IQB401      0.0000 
     36 H          -8.9020    6.5058   -3.8257 H         1 IQB401      0.0000 
     37 H         -10.8353    8.3348   -2.4012 H         1 IQB401      0.0000 
     38 H         -10.8511    6.5686   -2.5426 H         1 IQB401      0.0000 
     39 H         -12.5517    9.0760   -5.3957 H         1 IQB401      0.0000 
     40 H         -11.0047    9.5861   -4.6981 H         1 IQB401      0.0000 
     41 H         -13.2637    8.9715   -2.8425 H         1 IQB401      0.0000 
     42 H         -11.6744   11.4257   -3.5609 H         1 IQB401      0.0000 
     43 H         -14.1355    9.8180   -1.3428 H         1 IQB401      0.0000 
     44 H         -15.1917   10.9154    0.5357 H         1 IQB401      0.0000 
     45 H         -13.0586   14.4236   -0.3138 H         1 IQB401      0.0000 
     46 H         -12.0188   13.3292   -2.2017 H         1 IQB401      0.0000 
@<TRIPOS>BOND
     1    2    1 ar   
     2   10    1 ar   
     3   11    1 1    
     4    3    2 ar   
     5   28    2 1    
     6    4    3 ar   
     7   29    3 1    
     8    5    4 ar   
     9   30    4 1    
    10    6    5 ar   
    11   10    5 ar   
    12    7    6 ar   
    13   31    6 1    
    14    8    7 ar   
    15    9    8 ar   
    16   32    8 1    
    17   10    9 ar   
    18   33    9 1    
    19   12   11 2    
    20   13   11 2    
    21   14   11 1    
    22   15   14 1    
    23   34   14 1    
    24   16   15 1    
    25   35   15 1    
    26   36   15 1    
    27   17   16 1    
    28   37   16 1    
    29   38   16 1    
    30   18   17 1    
    31   19   18 1    
    32   39   18 1    
    33   40   18 1    
    34   20   19 2    
    35   41   19 1    
    36   21   20 1    
    37   42   20 1    
    38   22   21 ar   
    39   27   21 ar   
    40   23   22 ar   
    41   43   22 1    
    42   24   23 ar   
    43   44   23 1    
    44   25   24 1    
    45   26   24 ar   
    46   27   26 ar   
    47   45   26 1    
    48   46   27 1    
@<TRIPOS>SUBSTRUCTURE
     1 IQB401      1 GROUP   
@<TRIPOS>SET

