#    Name: 3s9z_I92_1_INTS_M
#    Modification time : Mon Apr  7 22:08:37 2014

@<TRIPOS>MOLECULE
3s9z_I92_1_INTS_M
   50     0     9     0     0
SMALL
NO_CHARGES


@<TRIPOS>ATOM
      1 N          38.9320   80.2505   66.6885 N.am      1 SEC2        0.0000 
      2 N          37.8690   80.5380   65.6980 N.am      7 SEL2        0.0000 
      3 N          39.9950   79.9630   67.6790 N.am      4 SEP2        0.0000 
      4 Zn         39.2215   81.2280   62.9575 Zn        2 ZIC7        0.0000 
      5 Zn         39.2930   80.8200   64.0190 Zn        8 ZIL7        0.0000 
      6 Zn         39.1500   81.6360   61.8960 Zn        5 ZIP7        0.0000 
      7 N          40.4165   80.2760   64.6555 N.am      1 SEC2        0.0000 
      8 N          39.2930   80.8200   64.0190 N.am      7 SEL2        0.0000 
      9 N          41.5400   79.7320   65.2920 N.am      4 SEP2        0.0000 
     10 Zn         38.0865   81.5985   62.1960 Zn        2 ZIC7        0.0000 
     11 Zn         37.0230   81.5610   62.4960 Zn        8 ZIL7        0.0000 
     12 N          36.4415   82.0010   61.1855 N.am      1 SEC2        0.0000 
     13 N          37.0230   81.5610   62.4960 N.am      7 SEL2        0.0000 
     14 N          35.8600   82.4410   59.8750 N.am      4 SEP2        0.0000 
     15 CA         36.5300   78.3635   65.1705 C.3       3 GLC5        0.0000 
     16 CA         35.9820   79.7170   63.6220 C.3       9 GLL5        0.0000 
     17 CA         37.0780   77.0100   66.7190 C.3       6 GLP5        0.0000 
     18 CA         34.8960   81.2685   63.3010 C.3       3 GLC5        0.0000 
     19 CA         33.8100   82.8200   62.9800 C.3       6 GLP5        0.0000 
     20 N          35.5170   81.1390   60.6550 N.am      1 SEC2        0.0000 
     21 N          35.1740   79.8370   61.4350 N.am      7 SEL2        0.0000 
     22 N          34.9880   80.2665   60.1570 N.am      1 SEC2        0.0000 
     23 N          34.8020   80.6960   58.8790 N.am      4 SEP2        0.0000 
     24 CA         33.5410   78.3945   64.8160 C.3       3 GLC5        0.0000 
     25 CA         34.5270   77.8510   62.9020 C.3       9 GLL5        0.0000 
     26 CA         32.5550   78.9380   66.7300 C.3       6 GLP5        0.0000 
     27 CA         36.1505   74.6850   64.7395 C.3       3 GLC5        0.0000 
     28 CA         34.3950   75.6830   64.0120 C.3       9 GLL5        0.0000 
     29 CA         37.9060   73.6870   65.4670 C.3       6 GLP5        0.0000 
     30 CA         31.9710   73.6875   63.8500 C.3       3 GLC5        0.0000 
     31 CA         33.1310   75.4240   63.4200 C.3       9 GLL5        0.0000 
     32 CA         30.8110   71.9510   64.2800 C.3       6 GLP5        0.0000 
     33 CA         31.4720   79.8760   60.4310 C.3       3 GLC5        0.0000 
     34 CA         32.4770   78.8830   61.1470 C.3       9 GLL5        0.0000 
     35 CA         30.4670   80.8690   59.7150 C.3       6 GLP5        0.0000 
     36 CA         31.4025   79.0135   62.6740 C.3       3 GLC5        0.0000 
     37 CA         30.3280   79.1440   64.2010 C.3       6 GLP5        0.0000 
     38 CA         35.3675   76.0787   61.8918 C.3       3 GLC5        0.0000 
     39 CA         35.9250   74.7910   60.4520 C.3       6 GLP5        0.0000 
     40 CA         35.9110   76.6463   65.3028 C.3       3 GLC5        0.0000 
     41 CA         35.0930   76.8820   63.7610 C.3       9 GLL5        0.0000 
     42 CA         33.7335   75.0977   65.7300 C.3       3 GLC5        0.0000 
     43 CA         33.7040   74.6420   67.7440 C.3       6 GLP5        0.0000 
     44 CA         34.8440   75.1722   62.0840 C.3       3 GLC5        0.0000 
     45 CA         32.7828   76.8206   64.9616 C.3       3 GLC5        0.0000 
     46 CA         31.6280   77.7880   66.2700 C.3       6 GLP5        0.0000 
     47 CA         31.6208   78.0640   63.3185 C.3       3 GLC5        0.0000 
     48 CA         32.5600   76.3810   62.5530 C.3       9 GLL5        0.0000 
     49 CA         34.4193   75.8875   61.4440 C.3       3 GLC5        0.0000 
     50 CA         33.2670   77.5870   62.3190 C.3       9 GLL5        0.0000 
@<TRIPOS>BOND
@<TRIPOS>SUBSTRUCTURE
     1 SEC2        1 GROUP        1 X    SEC  0     ROOT SEC X 2
     2 ZIC7        4 GROUP        1 X    ZIC  0     **** ZIC X 5
     3 GLC5       15 GROUP        1 X    GLC  0     **** GLC X 6
     4 SEP2        3 GROUP        1 Y    SEP  0     ROOT SEP Y 9
     5 ZIP7        6 GROUP        1 Y    ZIP  0     **** ZIP Y 12
     6 GLP5       17 GROUP        1 Y    GLP  0     **** GLP Y 13
     7 SEL2        2 GROUP        1 Z    SEL  0     ROOT SEL Z 16
     8 ZIL7        5 GROUP        1 Z    ZIL  0     **** ZIL Z 19
     9 GLL5       16 GROUP        1 Z    GLL  0     **** GLL Z 20
@<TRIPOS>SET

