#    Name: 3s9z_I92_1_ligand
#    Modification time : Mon Apr  7 22:08:37 2014

@<TRIPOS>MOLECULE
3s9z_I92_1_ligand
   21    21     1     0     0
SMALL
NO_CHARGES


@<TRIPOS>ATOM
      1 O01        37.8690   80.5380   65.6980 O.co2     1 I92803      0.0000 
      2 C02        38.1730   80.8980   64.4060 C.2       1 I92803      0.0000 
      3 O03        39.2930   80.8200   64.0190 O.co2     1 I92803      0.0000 
      4 C04        37.0300   80.8120   63.4140 C.2       1 I92803      0.0000 
      5 O05        37.0230   81.5610   62.4960 O.2       1 I92803      0.0000 
      6 C06        35.9820   79.7170   63.6220 C.3       1 I92803      0.0000 
      7 C07        35.2920   79.1610   62.6430 C.2       1 I92803      0.0000 
      8 O08        35.1740   79.8370   61.4350 O.2       1 I92803      0.0000 
      9 C09        34.5270   77.8510   62.9020 C.ar      1 I92803      0.0000 
     10 C10        35.0930   76.8820   63.7610 C.ar      1 I92803      0.0000 
     11 C11        34.3950   75.6830   64.0120 C.ar      1 I92803      0.0000 
     12 C12        33.1310   75.4240   63.4200 C.ar      1 I92803      0.0000 
     13 C13        32.5600   76.3810   62.5530 C.ar      1 I92803      0.0000 
     14 C14        33.2670   77.5870   62.3190 C.ar      1 I92803      0.0000 
     15 BR15       32.4770   78.8830   61.1470 Br        1 I92803      0.0000 
     16 H          35.2810   80.1513   64.4566 H         1 I92803      0.0000 
     17 H          36.5369   78.9146   64.2738 H         1 I92803      0.0000 
     18 H          35.9985   77.0499   64.1948 H         1 I92803      0.0000 
     19 H          34.8080   74.9765   64.6384 H         1 I92803      0.0000 
     20 H          32.6434   74.5552   63.6209 H         1 I92803      0.0000 
     21 H          31.6694   76.2127   62.1091 H         1 I92803      0.0000 
@<TRIPOS>BOND
     1    2    1 ar   
     2    3    2 ar   
     3    4    2 1    
     4    5    4 2    
     5    6    4 1    
     6    7    6 1    
     7   16    6 1    
     8   17    6 1    
     9    8    7 2    
    10    9    7 1    
    11   10    9 ar   
    12   14    9 ar   
    13   11   10 ar   
    14   18   10 1    
    15   12   11 ar   
    16   19   11 1    
    17   13   12 ar   
    18   20   12 1    
    19   14   13 ar   
    20   21   13 1    
    21   15   14 1    
@<TRIPOS>SUBSTRUCTURE
     1 I92803      1 GROUP   
@<TRIPOS>SET

