#    Name: 1wvg_CXY_2_INTS_M
#    Modification time : Tue Mar 25 09:21:17 2014

@<TRIPOS>MOLECULE
1wvg_CXY_2_INTS_M
   77     0    12     0     0
SMALL
NO_CHARGES


@<TRIPOS>ATOM
      1 NZ         62.4125   18.7205   52.4675 N.4       3 LYC4        0.0000 
      2 NZ         63.4380   19.2570   53.2660 N.4      11 LYL4        0.0000 
      3 NZ         61.3870   18.1840   51.6690 N.4       7 LYP4        0.0000 
      4 NZ         63.2965   18.0905   54.1700 N.4       3 LYC4        0.0000 
      5 NZ         62.4470   16.8110   56.1770 N.4       7 LYP4        0.0000 
      6 N          62.4125   18.7205   52.4675 N.am      2 SEC2        0.0000 
      7 N          63.4380   19.2570   53.2660 N.am     10 SEL2        0.0000 
      8 N          61.3870   18.1840   51.6690 N.am      6 SEP2        0.0000 
      9 N          64.6265   18.6595   52.7690 N.am      2 SEC2        0.0000 
     10 N          65.8150   18.0620   52.2720 N.am      6 SEP2        0.0000 
     11 N          63.2965   18.0905   54.1700 N.am      2 SEC2        0.0000 
     12 N          63.1550   16.9240   55.0740 N.am      6 SEP2        0.0000 
     13 N          68.1650   22.8050   54.4790 N.am      2 SEC2        0.0000 
     14 N          67.0180   21.9810   53.9210 N.am     10 SEL2        0.0000 
     15 N          69.3120   23.6290   55.0370 N.am      6 SEP2        0.0000 
     16 N          63.9755   23.6195   55.2995 N.am      2 SEC2        0.0000 
     17 N          64.9720   23.3370   54.3570 N.am     10 SEL2        0.0000 
     18 N          62.9790   23.9020   56.2420 N.am      6 SEP2        0.0000 
     19 CA         66.8410   18.5665   58.5820 C.3       4 GLC5        0.0000 
     20 CA         65.7450   19.5770   57.3120 C.3      12 GLL5        0.0000 
     21 CA         67.9370   17.5560   59.8520 C.3       8 GLP5        0.0000 
     22 N          63.3105   21.3640   60.8790 N.am      2 SEC2        0.0000 
     23 N          63.7680   21.4820   59.6170 N.am     10 SEL2        0.0000 
     24 N          62.8530   21.2460   62.1410 N.am      6 SEP2        0.0000 
     25 O          62.6940   22.3470   59.3650 O.2       1 ALC1        0.0000 
     26 O          63.7680   21.4820   59.6170 O.2       9 ALL1        0.0000 
     27 O          61.6200   23.2120   59.1130 O.2       5 ALP1        0.0000 
     28 CA         65.1985   20.2035   60.9875 C.3       4 GLC5        0.0000 
     29 CA         66.0810   20.9520   59.1260 C.3      12 GLL5        0.0000 
     30 CA         64.3160   19.4550   62.8490 C.3       8 GLP5        0.0000 
     31 CA         67.0090   19.2540   59.4890 C.3       4 GLC5        0.0000 
     32 N          67.6505   23.5375   62.4440 N.am      2 SEC2        0.0000 
     33 N          67.9870   23.5250   60.9330 N.am     10 SEL2        0.0000 
     34 N          67.3140   23.5500   63.9550 N.am      6 SEP2        0.0000 
     35 O          69.0520   26.4290   59.2250 O.2       1 ALC1        0.0000 
     36 O          68.9490   25.4880   60.2690 O.2       9 ALL1        0.0000 
     37 O          69.1550   27.3700   58.1810 O.2       5 ALP1        0.0000 
     38 N          66.4105   21.3175   62.7660 N.am      2 SEC2        0.0000 
     39 N          66.9770   21.5790   61.6530 N.am     10 SEL2        0.0000 
     40 N          65.8440   21.0560   63.8790 N.am      6 SEP2        0.0000 
     41 CA         62.2590   20.0080   51.0900 C.3       4 GLC5        0.0000 
     42 CA         64.1800   20.8000   50.4620 C.3      12 GLL5        0.0000 
     43 CA         60.3380   19.2160   51.7180 C.3       8 GLP5        0.0000 
     44 CA         65.6445   23.0720   49.6735 C.3       4 GLC5        0.0000 
     45 CA         63.9540   21.8010   49.3560 C.3      12 GLL5        0.0000 
     46 CA         67.3350   24.3430   49.9910 C.3       8 GLP5        0.0000 
     47 CA         61.5265   20.2810   50.1635 C.3       4 GLC5        0.0000 
     48 CA         62.7150   21.3460   48.6090 C.3      12 GLL5        0.0000 
     49 CA         61.8140   19.0995   50.4425 C.3       4 GLC5        0.0000 
     50 CA         63.2900   18.9830   49.1670 C.3      12 GLL5        0.0000 
     51 CA         65.1970   17.8130   49.2140 C.3       4 GLC5        0.0000 
     52 CA         67.1040   16.6430   49.2610 C.3       8 GLP5        0.0000 
     53 N          64.9600   23.7245   49.4785 N.am      2 SEC2        0.0000 
     54 N          63.7140   23.1270   49.8740 N.am     10 SEL2        0.0000 
     55 N          66.2060   24.3220   49.0830 N.am      6 SEP2        0.0000 
     56 N          64.4630   23.7375   48.4385 N.am      2 SEC2        0.0000 
     57 N          65.2120   24.3480   47.0030 N.am      6 SEP2        0.0000 
     58 N          63.8495   23.2840   47.2455 N.am      2 SEC2        0.0000 
     59 N          62.4870   22.2200   47.4880 N.am     10 SEL2        0.0000 
     60 O          61.7215   23.2740   47.9135 O.2       1 ALC1        0.0000 
     61 O          62.4870   22.2200   47.4880 O.2       9 ALL1        0.0000 
     62 O          60.9560   24.3280   48.3390 O.2       5 ALP1        0.0000 
     63 N          60.5445   18.7635   47.1190 N.am      2 SEC2        0.0000 
     64 N          61.7480   19.5080   47.3620 N.am     10 SEL2        0.0000 
     65 N          59.3410   18.0190   46.8760 N.am      6 SEP2        0.0000 
     66 N          60.7715   20.4055   46.7895 N.am      2 SEC2        0.0000 
     67 N          59.7950   21.3030   46.2170 N.am      6 SEP2        0.0000 
     68 CA         65.6513   17.8850   55.7837 C.3       4 GLC5        0.0000 
     69 CA         65.9480   19.9630   55.8670 C.3      12 GLL5        0.0000 
     70 CA         65.4560   16.0000   54.9780 C.3       8 GLP5        0.0000 
     71 CA         67.2142   18.4550   56.2103 C.3       4 GLC5        0.0000 
     72 CA         68.5820   17.1400   55.8310 C.3       8 GLP5        0.0000 
     73 CA         69.1045   22.7615   58.6458 C.3       4 GLC5        0.0000 
     74 CA         67.1590   23.0680   58.4350 C.3      12 GLL5        0.0000 
     75 CA         70.7010   21.9120   58.7460 C.3       8 GLP5        0.0000 
     76 CA         60.7807   21.0700   48.3522 C.3       4 GLC5        0.0000 
     77 CA         58.7420   21.4960   48.3790 C.3       8 GLP5        0.0000 
@<TRIPOS>BOND
@<TRIPOS>SUBSTRUCTURE
     1 ALC1       25 GROUP        1 X    ALC  0     ROOT ALC X 1
     2 SEC2        6 GROUP        1 X    SEC  0     **** SEC X 2
     3 LYC4        1 GROUP        1 X    LYC  0     **** LYC X 4
     4 GLC5       19 GROUP        1 X    GLC  0     **** GLC X 6
     5 ALP1       27 GROUP        1 Y    ALP  0     ROOT ALP Y 8
     6 SEP2        8 GROUP        1 Y    SEP  0     **** SEP Y 9
     7 LYP4        3 GROUP        1 Y    LYP  0     **** LYP Y 11
     8 GLP5       21 GROUP        1 Y    GLP  0     **** GLP Y 13
     9 ALL1       26 GROUP        1 Z    ALL  0     ROOT ALL Z 15
    10 SEL2        7 GROUP        1 Z    SEL  0     **** SEL Z 16
    11 LYL4        2 GROUP        1 Z    LYL  0     **** LYL Z 18
    12 GLL5       20 GROUP        1 Z    GLL  0     **** GLL Z 20
@<TRIPOS>SET

