#    Name: 1wvg_CXY_2_ligand
#    Modification time : Tue Mar 25 09:21:17 2014

@<TRIPOS>MOLECULE
1wvg_CXY_2_ligand
   54    56     1     0     0
SMALL
NO_CHARGES


@<TRIPOS>ATOM
      1 O1B        63.4380   19.2570   53.2660 O.co2     1 CXY401      0.0000 
      2 PB         63.3590   20.7230   52.8890 P.3       1 CXY401      0.0000 
      3 O2B        62.3520   21.5100   53.6860 O.co2     1 CXY401      0.0000 
      4 O1'        63.0270   20.8560   51.2840 O.3       1 CXY401      0.0000 
      5 O3A        64.8440   21.0690   53.1400 O.3       1 CXY401      0.0000 
      6 PA         65.5770   21.9900   54.2900 P.3       1 CXY401      0.0000 
      7 O1A        67.0180   21.9810   53.9210 O.co2     1 CXY401      0.0000 
      8 O2A        64.9720   23.3370   54.3570 O.co2     1 CXY401      0.0000 
      9 O5D        65.2290   21.1780   55.6150 O.3       1 CXY401      0.0000 
     10 C5D        65.9480   19.9630   55.8670 C.3       1 CXY401      0.0000 
     11 C4D        65.7450   19.5770   57.3120 C.3       1 CXY401      0.0000 
     12 O4D        66.7410   20.2770   58.0980 O.3       1 CXY401      0.0000 
     13 C3D        64.3800   19.8590   57.9390 C.3       1 CXY401      0.0000 
     14 O3D        63.9230   18.8790   58.9390 O.3       1 CXY401      0.0000 
     15 C2D        64.7040   21.2270   58.5660 C.3       1 CXY401      0.0000 
     16 O2D        63.7680   21.4820   59.6170 O.3       1 CXY401      0.0000 
     17 C1D        66.0810   20.9520   59.1260 C.3       1 CXY401      0.0000 
     18 N1         66.8450   22.1640   59.4370 N.am      1 CXY401      0.0000 
     19 C6         67.1590   23.0680   58.4350 C.2       1 CXY401      0.0000 
     20 C5         67.8570   24.1540   58.6560 C.2       1 CXY401      0.0000 
     21 C4         68.3200   24.4820   59.9600 C.2       1 CXY401      0.0000 
     22 N3         67.9870   23.5250   60.9330 N.2       1 CXY401      0.0000 
     23 C2         67.2540   22.3660   60.7410 C.2       1 CXY401      0.0000 
     24 N4         68.9490   25.4880   60.2690 N.pl3     1 CXY401      0.0000 
     25 O2         66.9770   21.5790   61.6530 O.2       1 CXY401      0.0000 
     26 C1'        64.1800   20.8000   50.4620 C.3       1 CXY401      0.0000 
     27 C2'        63.9540   21.8010   49.3560 C.3       1 CXY401      0.0000 
     28 C3'        62.7150   21.3460   48.6090 C.3       1 CXY401      0.0000 
     29 C4'        62.9240   19.9420   48.0420 C.3       1 CXY401      0.0000 
     30 C5'        63.2900   18.9830   49.1670 C.3       1 CXY401      0.0000 
     31 O2'        63.7140   23.1270   49.8740 O.3       1 CXY401      0.0000 
     32 O3'        62.4870   22.2200   47.4880 O.3       1 CXY401      0.0000 
     33 O4'        61.7480   19.5080   47.3620 O.3       1 CXY401      0.0000 
     34 O5'        64.4160   19.4710   49.9030 O.3       1 CXY401      0.0000 
     35 H          67.0185   20.0878   55.6902 H         1 CXY401      0.0000 
     36 H          65.5868   19.1468   55.2377 H         1 CXY401      0.0000 
     37 H          65.9439   18.4969   57.4133 H         1 CXY401      0.0000 
     38 H          63.6884   20.0361   57.1545 H         1 CXY401      0.0000 
     39 H          64.7528   21.9333   57.8209 H         1 CXY401      0.0000 
     40 H          65.9801   20.3278   59.9879 H         1 CXY401      0.0000 
     41 H          66.8049   22.8426   57.4602 H         1 CXY401      0.0000 
     42 H          68.1043   24.8245   57.8913 H         1 CXY401      0.0000 
     43 H          65.0552   21.1336   51.0148 H         1 CXY401      0.0000 
     44 H          64.7783   21.7758   48.6820 H         1 CXY401      0.0000 
     45 H          61.8819   21.3302   49.2663 H         1 CXY401      0.0000 
     46 H          63.7715   19.9911   47.3596 H         1 CXY401      0.0000 
     47 H          63.4970   18.0001   48.7176 H         1 CXY401      0.0000 
     48 H          62.4059   18.8673   49.8119 H         1 CXY401      0.0000 
     49 H          63.6131   19.4274   59.7157 H         1 CXY401      0.0000 
     50 H          63.4288   22.4064   59.4426 H         1 CXY401      0.0000 
     51 H          68.9509   26.0551   59.4453 H         1 CXY401      0.0000 
     52 H          63.1465   22.9888   50.6857 H         1 CXY401      0.0000 
     53 H          61.9208   22.9611   47.8488 H         1 CXY401      0.0000 
     54 H          62.0185   19.4281   46.4026 H         1 CXY401      0.0000 
@<TRIPOS>BOND
     1    2    1 ar   
     2    3    2 ar   
     3    4    2 1    
     4    5    2 1    
     5   26    4 1    
     6    6    5 1    
     7    7    6 ar   
     8    8    6 ar   
     9    9    6 1    
    10   10    9 1    
    11   11   10 1    
    12   35   10 1    
    13   36   10 1    
    14   12   11 1    
    15   13   11 1    
    16   37   11 1    
    17   17   12 1    
    18   14   13 1    
    19   15   13 1    
    20   38   13 1    
    21   49   14 1    
    22   16   15 1    
    23   17   15 1    
    24   39   15 1    
    25   50   16 1    
    26   18   17 1    
    27   40   17 1    
    28   19   18 1    
    29   23   18 am   
    30   20   19 2    
    31   41   19 1    
    32   21   20 1    
    33   42   20 1    
    34   22   21 2    
    35   24   21 1    
    36   23   22 1    
    37   25   23 2    
    38   51   24 1    
    39   27   26 1    
    40   34   26 1    
    41   43   26 1    
    42   28   27 1    
    43   31   27 1    
    44   44   27 1    
    45   29   28 1    
    46   32   28 1    
    47   45   28 1    
    48   30   29 1    
    49   33   29 1    
    50   46   29 1    
    51   34   30 1    
    52   47   30 1    
    53   48   30 1    
    54   52   31 1    
    55   53   32 1    
    56   54   33 1    
@<TRIPOS>SUBSTRUCTURE
     1 CXY401      1 GROUP   
@<TRIPOS>SET

