#    Name: 1s3v_TQD_1_INTS_M
#    Modification time : Tue Mar 25 01:56:20 2014

@<TRIPOS>MOLECULE
1s3v_TQD_1_INTS_M
   72     0     9     0     0
SMALL
NO_CHARGES


@<TRIPOS>ATOM
      1 OD1         0.3035   30.7645   -1.1300 O.co2     2 ASC3        0.0000 
      2 OD1        -0.0220   32.0840    0.4630 O.co2     8 ASL3        0.0000 
      3 OD1         1.0730   30.7060   -2.6770 O.co2     5 ASP3        0.0000 
      4 OD1        -0.4360   30.0595   -0.7295 O.co2     2 ASC3        0.0000 
      5 OD1        -0.4060   29.2960   -1.8760 O.co2     5 ASP3        0.0000 
      6 CA          0.7310   33.6925    3.3185 C.3       3 GLC5        0.0000 
      7 CA         -1.0240   32.5690    2.5090 C.3       9 GLL5        0.0000 
      8 CA          2.4860   34.8160    4.1280 C.3       6 GLP5        0.0000 
      9 CA         -1.0580   34.2980    1.4835 C.3       3 GLC5        0.0000 
     10 CA         -1.0920   36.0270    0.4580 C.3       6 GLP5        0.0000 
     11 CA         -0.4725   30.9210    4.3980 C.3       3 GLC5        0.0000 
     12 CA         -2.2630   30.7710    3.8370 C.3       9 GLL5        0.0000 
     13 CA          1.3180   31.0710    4.9590 C.3       6 GLP5        0.0000 
     14 CA         -0.2920   28.4310    3.5030 C.3       3 GLC5        0.0000 
     15 CA         -2.3810   28.4980    2.7070 C.3       9 GLL5        0.0000 
     16 CA          1.7970   28.3640    4.2990 C.3       6 GLP5        0.0000 
     17 CA          0.1040   29.2085    2.3435 C.3       3 GLC5        0.0000 
     18 CA         -1.7830   29.0250    1.3530 C.3       9 GLL5        0.0000 
     19 CA          1.9910   29.3920    3.3340 C.3       6 GLP5        0.0000 
     20 CA         -3.9465   28.3015    6.8650 C.3       3 GLC5        0.0000 
     21 CA         -3.6230   28.9830    4.9610 C.3       9 GLL5        0.0000 
     22 CA         -4.2700   27.6200    8.7690 C.3       6 GLP5        0.0000 
     23 CA         -6.5785   25.2160    1.4700 C.3       3 GLC5        0.0000 
     24 CA         -7.0110   23.8840    3.0290 C.3       9 GLL5        0.0000 
     25 CA         -6.1460   26.5480   -0.0890 C.3       6 GLP5        0.0000 
     26 CA         -5.3425   23.9395    1.7270 C.3       3 GLC5        0.0000 
     27 CA         -3.6740   23.9950    0.4250 C.3       6 GLP5        0.0000 
     28 CA         -6.6915   22.8620    4.9295 C.3       3 GLC5        0.0000 
     29 CA         -6.3720   21.8400    6.8300 C.3       6 GLP5        0.0000 
     30 CA         -2.7830   23.5205    2.3275 C.3       3 GLC5        0.0000 
     31 CA         -2.5570   22.0920    3.4830 C.3       9 GLL5        0.0000 
     32 CA         -3.0090   24.9490    1.1720 C.3       6 GLP5        0.0000 
     33 CA         -3.1955   24.9470    7.1760 C.3       3 GLC5        0.0000 
     34 CA         -2.7120   24.7340    5.1800 C.3       9 GLL5        0.0000 
     35 CA         -3.6790   25.1600    9.1720 C.3       6 GLP5        0.0000 
     36 CA          0.4650   26.9280    5.7955 C.3       3 GLC5        0.0000 
     37 CA         -0.4570   25.1330    6.0060 C.3       9 GLL5        0.0000 
     38 CA          1.3870   28.7230    5.5850 C.3       6 GLP5        0.0000 
     39 CA          0.0930   25.7800    7.7060 C.3       3 GLC5        0.0000 
     40 CA          0.6430   26.4270    9.4060 C.3       6 GLP5        0.0000 
     41 O           0.3035   30.7645   -1.1300 O.2       1 ALC1        0.0000 
     42 O          -0.4660   30.8230    0.4170 O.2       7 ALL1        0.0000 
     43 O           1.0730   30.7060   -2.6770 O.2       4 ALP1        0.0000 
     44 O          -0.4360   30.0595   -0.7295 O.2       1 ALC1        0.0000 
     45 O          -0.4060   29.2960   -1.8760 O.2       4 ALP1        0.0000 
     46 O           0.9580   31.5400   -1.6095 O.2       1 ALC1        0.0000 
     47 O           0.8430   32.3740   -0.5420 O.2       7 ALL1        0.0000 
     48 O           1.8310   33.5310   -1.2685 O.2       1 ALC1        0.0000 
     49 O           2.8190   34.6880   -1.9950 O.2       4 ALP1        0.0000 
     50 O          -0.7300   34.7960    3.2825 O.2       1 ALC1        0.0000 
     51 O          -1.2830   33.4620    3.4970 O.2       7 ALL1        0.0000 
     52 O          -0.1770   36.1300    3.0680 O.2       4 ALP1        0.0000 
     53 CA         -6.4460   28.4840    2.9195 C.3       3 GLC5        0.0000 
     54 CA         -6.0510   28.2900    4.7350 C.3       9 GLL5        0.0000 
     55 CA         -6.8410   28.6780    1.1040 C.3       6 GLP5        0.0000 
     56 CA         -7.4730   28.5795    5.9155 C.3       3 GLC5        0.0000 
     57 CA         -8.8950   28.8690    7.0960 C.3       6 GLP5        0.0000 
     58 CA         -5.1605   27.9550    6.7520 C.3       3 GLC5        0.0000 
     59 CA         -1.8365   26.8773    1.5925 C.3       3 GLC5        0.0000 
     60 CA         -1.5910   24.9930    1.1550 C.3       6 GLP5        0.0000 
     61 CA          0.2103   30.9575    2.8212 C.3       3 GLC5        0.0000 
     62 CA         -1.3110   30.4230    1.4480 C.3       9 GLL5        0.0000 
     63 CA          1.7270   30.7420    3.6590 C.3       6 GLP5        0.0000 
     64 CA         -3.8498   25.5260    2.8455 C.3       3 GLC5        0.0000 
     65 CA         -4.2430   26.5590    4.7800 C.3       9 GLL5        0.0000 
     66 CA         -3.9485   26.9720    6.8940 C.3       3 GLC5        0.0000 
     67 CA         -5.3363   24.6775    5.8840 C.3       3 GLC5        0.0000 
     68 CA         -5.9820   23.2520    7.2490 C.3       6 GLP5        0.0000 
     69 CA         -3.6333   24.5070    2.7945 C.3       3 GLC5        0.0000 
     70 CA         -4.8550   24.2840    4.1780 C.3       9 GLL5        0.0000 
     71 CA         -2.9352   25.1803    3.1955 C.3       3 GLC5        0.0000 
     72 CA         -4.7334   23.8257    6.0237 C.3       3 GLC5        0.0000 
@<TRIPOS>BOND
@<TRIPOS>SUBSTRUCTURE
     1 ALC1       41 GROUP        1 X    ALC  0     ROOT ALC X 1
     2 ASC3        1 GROUP        1 X    ASC  0     **** ASC X 3
     3 GLC5        6 GROUP        1 X    GLC  0     **** GLC X 6
     4 ALP1       43 GROUP        1 Y    ALP  0     ROOT ALP Y 8
     5 ASP3        3 GROUP        1 Y    ASP  0     **** ASP Y 10
     6 GLP5        8 GROUP        1 Y    GLP  0     **** GLP Y 13
     7 ALL1       42 GROUP        1 Z    ALL  0     ROOT ALL Z 15
     8 ASL3        2 GROUP        1 Z    ASL  0     **** ASL Z 17
     9 GLL5        7 GROUP        1 Z    GLL  0     **** GLL Z 20
@<TRIPOS>SET

