#    Name: 1s3v_TQD_1_ligand
#    Modification time : Tue Mar 25 01:56:20 2014

@<TRIPOS>MOLECULE
1s3v_TQD_1_ligand
   66    68     1     0     0
SMALL
NO_CHARGES


@<TRIPOS>ATOM
      1 C2D        -0.0220   32.0840    0.4630 C.cat     1 TQD187      0.0000 
      2 C4D        -1.0240   32.5690    2.5090 C.3       1 TQD187      0.0000 
      3 C4A        -1.5800   31.2770    2.5290 C.3       1 TQD187      0.0000 
      4 C5D        -2.2630   30.7710    3.8370 C.3       1 TQD187      0.0000 
      5 C6D        -3.1500   29.5290    3.5680 C.3       1 TQD187      0.0000 
      6 C7'        -2.3810   28.4980    2.7070 C.3       1 TQD187      0.0000 
      7 C8         -1.7830   29.0250    1.3530 C.3       1 TQD187      0.0000 
      8 C8A        -1.3110   30.4230    1.4480 C.3       1 TQD187      0.0000 
      9 C8'        -3.6230   28.9830    4.9610 C.3       1 TQD187      0.0000 
     10 C1'        -4.2430   26.5590    4.7800 C.3       1 TQD187      0.0000 
     11 C2'        -5.1380   25.6470    4.2580 C.3       1 TQD187      0.0000 
     12 C3'        -4.8550   24.2840    4.1780 C.3       1 TQD187      0.0000 
     13 C3B        -7.0110   23.8840    3.0290 C.3       1 TQD187      0.0000 
     14 C4'        -3.6600   23.8460    4.6560 C.3       1 TQD187      0.0000 
     15 C4B        -2.5570   22.0920    3.4830 C.3       1 TQD187      0.0000 
     16 C5'        -2.7120   24.7340    5.1800 C.3       1 TQD187      0.0000 
     17 C5B        -0.4570   25.1330    6.0060 C.3       1 TQD187      0.0000 
     18 C6'        -3.0110   26.0890    5.2580 C.3       1 TQD187      0.0000 
     19 N1'        -0.4660   30.8230    0.4170 N.pl3     1 TQD187      0.0000 
     20 N2'         0.8430   32.3740   -0.5420 N.pl3     1 TQD187      0.0000 
     21 N3'        -0.2370   32.9710    1.4960 N.pl3     1 TQD187      0.0000 
     22 N4'        -1.2830   33.4620    3.4970 N.pl3     1 TQD187      0.0000 
     23 N9'        -4.6260   27.9200    4.8320 N.4       1 TQD187      0.0000 
     24 O3'        -5.8220   23.4160    3.6560 O.3       1 TQD187      0.0000 
     25 O4'        -3.1430   22.5770    4.6930 O.3       1 TQD187      0.0000 
     26 O5'        -1.5180   24.2160    5.6340 O.3       1 TQD187      0.0000 
     27 C9'        -6.0510   28.2900    4.7350 C.3       1 TQD187      0.0000 
     28 H           0.1277   32.0924    3.2300 H         1 TQD187      0.0000 
     29 H          -2.7961   31.7068    2.0099 H         1 TQD187      0.0000 
     30 H          -2.8786   31.5684    4.2409 H         1 TQD187      0.0000 
     31 H          -1.4924   30.5103    4.5555 H         1 TQD187      0.0000 
     32 H          -4.0239   29.8672    3.0293 H         1 TQD187      0.0000 
     33 H          -3.0553   27.6514    2.4754 H         1 TQD187      0.0000 
     34 H          -1.5502   28.0797    3.3068 H         1 TQD187      0.0000 
     35 H          -2.5664   28.9265    0.5908 H         1 TQD187      0.0000 
     36 H          -0.9618   28.3519    1.0758 H         1 TQD187      0.0000 
     37 H          -2.4481   30.8711    0.7261 H         1 TQD187      0.0000 
     38 H          -4.0200   29.8371    5.5256 H         1 TQD187      0.0000 
     39 H          -2.7292   28.6237    5.4883 H         1 TQD187      0.0000 
     40 H          -3.6778   26.7565    3.4711 H         1 TQD187      0.0000 
     41 H          -5.4678   26.0127    3.1958 H         1 TQD187      0.0000 
     42 H          -6.1641   25.7736    4.8075 H         1 TQD187      0.0000 
     43 H          -4.2938   24.4742    2.8715 H         1 TQD187      0.0000 
     44 H          -4.1825   23.6751    5.9843 H         1 TQD187      0.0000 
     45 H          -2.1546   24.9126    3.8668 H         1 TQD187      0.0000 
     46 H          -2.8811   26.4423    6.3519 H         1 TQD187      0.0000 
     47 H          -2.1644   26.6927    4.7508 H         1 TQD187      0.0000 
     48 H          -0.2155   30.1724   -0.3189 H         1 TQD187      0.0000 
     49 H           1.0485   31.6275   -1.1748 H         1 TQD187      0.0000 
     50 H           1.1983   33.3086   -0.5608 H         1 TQD187      0.0000 
     51 H           0.1939   33.8974    1.4773 H         1 TQD187      0.0000 
     52 H          -1.4707   33.0765    4.4004 H         1 TQD187      0.0000 
     53 H          -1.2633   34.4267    3.2344 H         1 TQD187      0.0000 
     54 H          -4.7451   27.8552    6.2669 H         1 TQD187      0.0000 
     55 H          -6.8111   24.4481    2.2279 H         1 TQD187      0.0000 
     56 H          -7.5892   23.1293    2.7191 H         1 TQD187      0.0000 
     57 H          -7.5634   24.4409    3.6492 H         1 TQD187      0.0000 
     58 H          -1.7914   22.6628    3.1863 H         1 TQD187      0.0000 
     59 H          -2.2057   21.1616    3.5874 H         1 TQD187      0.0000 
     60 H          -3.2171   22.0736    2.7320 H         1 TQD187      0.0000 
     61 H           0.3607   24.6484    6.3166 H         1 TQD187      0.0000 
     62 H          -0.1808   25.7122    5.2390 H         1 TQD187      0.0000 
     63 H          -0.7361   25.7425    6.7480 H         1 TQD187      0.0000 
     64 H          -6.3595   28.7942    5.5416 H         1 TQD187      0.0000 
     65 H          -6.2309   28.8698    3.9403 H         1 TQD187      0.0000 
     66 H          -6.6387   27.4854    4.6498 H         1 TQD187      0.0000 
@<TRIPOS>BOND
     1   19    1 ar   
     2   20    1 ar   
     3   21    1 ar   
     4    3    2 1    
     5   21    2 1    
     6   22    2 1    
     7   28    2 1    
     8    4    3 1    
     9    8    3 1    
    10   29    3 1    
    11    5    4 1    
    12   30    4 1    
    13   31    4 1    
    14    6    5 1    
    15    9    5 1    
    16   32    5 1    
    17    7    6 1    
    18   33    6 1    
    19   34    6 1    
    20    8    7 1    
    21   35    7 1    
    22   36    7 1    
    23   19    8 1    
    24   37    8 1    
    25   23    9 1    
    26   38    9 1    
    27   39    9 1    
    28   11   10 1    
    29   18   10 1    
    30   23   10 1    
    31   40   10 1    
    32   12   11 1    
    33   41   11 1    
    34   42   11 1    
    35   14   12 1    
    36   24   12 1    
    37   43   12 1    
    38   24   13 1    
    39   55   13 1    
    40   56   13 1    
    41   57   13 1    
    42   16   14 1    
    43   25   14 1    
    44   44   14 1    
    45   25   15 1    
    46   58   15 1    
    47   59   15 1    
    48   60   15 1    
    49   18   16 1    
    50   26   16 1    
    51   45   16 1    
    52   26   17 1    
    53   61   17 1    
    54   62   17 1    
    55   63   17 1    
    56   46   18 1    
    57   47   18 1    
    58   48   19 1    
    59   49   20 1    
    60   50   20 1    
    61   51   21 1    
    62   52   22 1    
    63   53   22 1    
    64   27   23 1    
    65   54   23 1    
    66   64   27 1    
    67   65   27 1    
    68   66   27 1    
@<TRIPOS>SUBSTRUCTURE
     1 TQD187      1 GROUP   
@<TRIPOS>SET

