#    Name: 2OK8_3_CAVITY_N1_6.mol2
#    Modification time : Tue Mar 11 03:01:22 2014

@<TRIPOS>MOLECULE
2OK8_3_CAVITY_N1_6.mol2
   90     0     6     0     0
SMALL
NO_CHARGES


@<TRIPOS>ATOM
      1 N        -100.8456   24.3045  -28.8525 N.2       2 ALA2        0.0000 
      2 N        -102.3621   23.0542  -29.6507 N.2       2 ALA2        0.0000 
      3 CZ       -101.2753   23.9080  -30.2339 C.ar      4 PHE5        0.0000 
      4 N        -106.0520   20.0964  -29.2824 N.2       2 ALA2        0.0000 
      5 N        -104.9653   20.9502  -29.8656 N.2       2 ALA2        0.0000 
      6 N        -103.8786   21.8039  -30.4488 N.2       2 ALA2        0.0000 
      7 CZ       -102.7918   22.6577  -31.0320 C.ar      4 PHE5        0.0000 
      8 CZ       -105.3950   20.5536  -31.2470 C.ar      4 PHE5        0.0000 
      9 CZ       -104.3083   21.4074  -31.8301 C.ar      4 PHE5        0.0000 
     10 CZ       -105.8248   20.1571  -32.6283 C.ar      4 PHE5        0.0000 
     11 OG       -104.7381   21.0108  -33.2115 O.2       1 SER1        0.0000 
     12 CZ       -105.1678   20.6143  -34.5928 C.ar      4 PHE5        0.0000 
     13 OG       -104.0811   21.4681  -35.1760 O.2       1 SER1        0.0000 
     14 CA       -101.5680   19.8648  -28.9821 C.3       5 GLY6        0.0000 
     15 OG       -101.9978   19.4682  -30.3634 O.2       1 SER1        0.0000 
     16 OG       -100.9111   20.3220  -30.9466 O.2       1 SER1        0.0000 
     17 CA       -106.6435   23.6217  -25.2238 C.3       5 GLY6        0.0000 
     18 OG       -108.1600   22.3714  -26.0220 O.2       1 SER1        0.0000 
     19 CA       -107.0733   23.2252  -26.6051 C.3       5 GLY6        0.0000 
     20 CA       -105.9865   24.0789  -27.1883 C.3       5 GLY6        0.0000 
     21 OG       -108.5898   21.9749  -27.4033 O.2       1 SER1        0.0000 
     22 OG       -107.5030   22.8287  -27.9865 O.2       1 SER1        0.0000 
     23 DU       -106.4163   23.6824  -28.5697 H         6 CUB7        0.0000 
     24 DU       -105.3296   24.5362  -29.1529 H         6 CUB7        0.0000 
     25 OG       -107.9328   22.4321  -29.3678 O.2       1 SER1        0.0000 
     26 OG       -106.8460   23.2859  -29.9510 O.2       1 SER1        0.0000 
     27 DU       -105.7593   24.1396  -30.5342 H         6 CUB7        0.0000 
     28 CZ       -104.6726   24.9934  -31.1174 C.ar      4 PHE5        0.0000 
     29 CA       -103.5858   25.8471  -31.7006 C.3       5 GLY6        0.0000 
     30 CZ       -107.2758   22.8893  -31.3323 C.ar      4 PHE5        0.0000 
     31 N        -106.1891   23.7431  -31.9155 N.2       2 ALA2        0.0000 
     32 CZ       -105.1023   24.5968  -32.4987 C.ar      4 PHE5        0.0000 
     33 N        -105.5321   24.2003  -33.8800 N.2       2 ALA2        0.0000 
     34 CZ       -104.4454   25.0540  -34.4632 C.ar      4 PHE5        0.0000 
     35 CZ       -104.8751   24.6575  -35.8446 C.ar      4 PHE5        0.0000 
     36 OG       -107.6494   20.8071  -27.3606 O.2       1 SER1        0.0000 
     37 CA       -106.5626   21.6608  -27.9438 C.3       5 GLY6        0.0000 
     38 N        -105.4759   22.5146  -28.5270 N.2       2 ALA2        0.0000 
     39 N        -104.3892   23.3683  -29.1102 N.2       2 ALA2        0.0000 
     40 CZ       -103.3024   24.2221  -29.6934 C.ar      4 PHE5        0.0000 
     41 CZ       -102.2157   25.0758  -30.2766 C.ar      4 PHE5        0.0000 
     42 OG       -106.9924   21.2643  -29.3251 O.2       1 SER1        0.0000 
     43 N        -105.9057   22.1180  -29.9083 N.2       2 ALA2        0.0000 
     44 DU       -104.8189   22.9718  -30.4915 H         6 CUB7        0.0000 
     45 CZ       -103.7322   23.8255  -31.0747 C.ar      4 PHE5        0.0000 
     46 CZ       -106.3354   21.7215  -31.2896 C.ar      4 PHE5        0.0000 
     47 N        -105.2487   22.5752  -31.8728 N.2       2 ALA2        0.0000 
     48 CZ       -104.1620   23.4290  -32.4560 C.ar      4 PHE5        0.0000 
     49 N        -105.6784   22.1787  -33.2542 N.2       2 ALA2        0.0000 
     50 CZ       -104.5917   23.0324  -33.8373 C.ar      4 PHE5        0.0000 
     51 N        -105.0215   22.6359  -35.2187 N.2       2 ALA2        0.0000 
     52 CA       -107.2665   28.5576  -34.5913 C.3       5 GLY6        0.0000 
     53 CA       -106.6095   29.0148  -36.5558 C.3       5 GLY6        0.0000 
     54 CA       -105.9525   29.4720  -38.5203 C.3       5 GLY6        0.0000 
     55 N        -104.0249   19.7823  -29.8229 N.2       2 ALA2        0.0000 
     56 N        -102.9382   20.6361  -30.4061 N.2       2 ALA2        0.0000 
     57 CZ       -101.8514   21.4898  -30.9893 C.ar      4 PHE5        0.0000 
     58 O        -104.4547   19.3858  -31.2043 O.2       2 ALA2        0.0000 
     59 OG       -103.3679   20.2395  -31.7875 O.2       1 SER1        0.0000 
     60 OG       -104.2274   19.4465  -34.5501 O.2       1 SER1        0.0000 
     61 N        -104.6572   19.0499  -35.9314 N.2       2 ALA2        0.0000 
     62 N        -101.4217   21.8864  -29.6080 N.2       2 ALA2        0.0000 
     63 O        -109.1004   23.5393  -26.0646 O.2       2 ALA2        0.0000 
     64 CA       -108.0136   24.3930  -26.6478 C.3       5 GLY6        0.0000 
     65 DU       -106.9269   25.2468  -27.2310 H         6 CUB7        0.0000 
     66 CA       -109.5301   23.1427  -27.4460 C.3       5 GLY6        0.0000 
     67 CA       -108.4434   23.9965  -28.0292 C.3       5 GLY6        0.0000 
     68 CA       -107.3567   24.8503  -28.6124 C.3       5 GLY6        0.0000 
     69 CA       -107.7864   24.4537  -29.9937 C.3       5 GLY6        0.0000 
     70 DU       -106.6997   25.3075  -30.5769 H         6 CUB7        0.0000 
     71 N        -107.1294   24.9109  -31.9582 N.2       2 ALA2        0.0000 
     72 N        -106.0427   25.7647  -32.5414 N.2       2 ALA2        0.0000 
     73 CA       -104.9560   26.6184  -33.1246 C.3       5 GLY6        0.0000 
     74 N        -106.4725   25.3681  -33.9227 N.2       2 ALA2        0.0000 
     75 CA       -105.3857   26.2219  -34.5059 C.3       5 GLY6        0.0000 
     76 CA       -104.2990   27.0756  -35.0891 C.3       5 GLY6        0.0000 
     77 CA       -103.2123   27.9294  -35.6723 C.3       5 GLY6        0.0000 
     78 CA       -105.8155   25.8253  -35.8872 C.3       5 GLY6        0.0000 
     79 CZ       -104.7288   26.6791  -36.4704 C.ar      4 PHE5        0.0000 
     80 NZ       -103.6420   27.5328  -37.0536 N.2       3 LYS4        0.0000 
     81 CA       -105.1585   26.2826  -37.8518 C.3       5 GLY6        0.0000 
     82 CA       -108.9540   25.5609  -26.6905 C.3       5 GLY6        0.0000 
     83 CA       -108.2970   26.0181  -28.6550 C.3       5 GLY6        0.0000 
     84 O        -108.0698   26.0788  -32.0009 O.2       2 ALA2        0.0000 
     85 CA       -106.3261   27.3897  -34.5486 C.3       5 GLY6        0.0000 
     86 CA       -105.2394   28.2435  -35.1318 C.3       5 GLY6        0.0000 
     87 CA       -106.7559   26.9932  -35.9299 C.3       5 GLY6        0.0000 
     88 CA       -105.6691   27.8469  -36.5131 C.3       5 GLY6        0.0000 
     89 NZ       -104.5824   28.7007  -37.0963 N.2       3 LYS4        0.0000 
     90 NZ       -105.0122   28.3042  -38.4776 N.2       3 LYS4        0.0000 
@<TRIPOS>BOND
@<TRIPOS>SUBSTRUCTURE
     1 SER1       11 GROUP   
     2 ALA2        1 GROUP   
     3 LYS4       80 GROUP   
     4 PHE5        3 GROUP   
     5 GLY6       14 GROUP   
     6 CUB7       23 GROUP   
@<TRIPOS>SET

