#    Name: 2ok8_FAD_3_INTS_M
#    Modification time : Tue Mar 25 22:50:58 2014

@<TRIPOS>MOLECULE
2ok8_FAD_3_INTS_M
   81     0    12     0     0
SMALL
NO_CHARGES


@<TRIPOS>ATOM
      1 NZ       -110.5160   26.4630  -25.5565 N.4       3 LYC4        0.0000 
      2 NZ       -109.3510   26.2080  -24.9830 N.4      11 LYL4        0.0000 
      3 NZ       -112.5300   26.9040  -27.1340 N.4       7 LYP4        0.0000 
      4 N        -110.5160   26.4630  -25.5565 N.am      2 SEC2        0.0000 
      5 N        -109.3510   26.2080  -24.9830 N.am     10 SEL2        0.0000 
      6 N        -111.6810   26.7180  -26.1300 N.am      6 SEP2        0.0000 
      7 N        -110.1315   24.1165  -22.7260 N.am      2 SEC2        0.0000 
      8 N        -109.0730   25.2760  -22.7020 N.am     10 SEL2        0.0000 
      9 N        -111.1900   22.9570  -22.7500 N.am      6 SEP2        0.0000 
     10 CA       -107.1250   22.8410  -21.7450 C.3       4 GLC5        0.0000 
     11 CA       -105.1250   23.7010  -21.5600 C.3      12 GLL5        0.0000 
     12 CA       -109.1250   21.9810  -21.9300 C.3       8 GLP5        0.0000 
     13 CA       -103.4980   23.8555  -16.7405 C.3       4 GLC5        0.0000 
     14 CA       -103.4290   25.9710  -16.6050 C.3      12 GLL5        0.0000 
     15 CA       -103.5670   21.7400  -16.8760 C.3       8 GLP5        0.0000 
     16 CA       -104.2100   23.7035  -17.6900 C.3       4 GLC5        0.0000 
     17 CA       -104.8530   25.6670  -18.5040 C.3      12 GLL5        0.0000 
     18 N        -105.2410   17.4945  -30.9080 N.am      2 SEC2        0.0000 
     19 N        -105.0970   18.7140  -31.6830 N.am     10 SEL2        0.0000 
     20 N        -105.3850   16.2750  -30.1330 N.am      6 SEP2        0.0000 
     21 O        -105.6655   17.8630  -34.0830 O.2       1 ALC1        0.0000 
     22 O        -105.1270   19.1170  -33.8990 O.2       9 ALL1        0.0000 
     23 O        -106.2040   16.6090  -34.2670 O.2       5 ALP1        0.0000 
     24 N        -106.0500   20.1370  -37.1135 N.am      2 SEC2        0.0000 
     25 N        -105.1260   19.6070  -36.0970 N.am     10 SEL2        0.0000 
     26 N        -106.9740   20.6670  -38.1300 N.am      6 SEP2        0.0000 
     27 N        -106.0600   21.4820  -36.9200 N.am      2 SEC2        0.0000 
     28 N        -105.1460   22.2970  -35.7100 N.am     10 SEL2        0.0000 
     29 CA       -106.8180   22.4360  -35.9060 C.3       4 GLC5        0.0000 
     30 CA       -105.1380   23.6620  -35.4690 C.3      12 GLL5        0.0000 
     31 CA       -108.4980   21.2100  -36.3430 C.3       8 GLP5        0.0000 
     32 CA       -107.0380   27.4475  -37.2780 C.3       4 GLC5        0.0000 
     33 CA       -105.1530   26.9210  -37.4190 C.3      12 GLL5        0.0000 
     34 CA       -108.9230   27.9740  -37.1370 C.3       8 GLP5        0.0000 
     35 CA       -103.6110   26.4785  -38.7280 C.3       4 GLC5        0.0000 
     36 CA       -102.0690   26.0360  -40.0370 C.3       8 GLP5        0.0000 
     37 CA       -103.4675   23.9855  -32.3690 C.3       4 GLC5        0.0000 
     38 CA       -105.2810   23.6720  -31.6810 C.3      12 GLL5        0.0000 
     39 CA       -101.6540   24.2990  -33.0570 C.3       8 GLP5        0.0000 
     40 CA       -108.8545   23.7270  -31.0250 C.3       4 GLC5        0.0000 
     41 CA       -106.6810   23.2720  -31.2100 C.3      12 GLL5        0.0000 
     42 CA       -111.0280   24.1820  -30.8400 C.3       8 GLP5        0.0000 
     43 O        -107.8615   23.7020  -33.0345 O.2       1 ALC1        0.0000 
     44 O        -107.6170   24.2310  -31.6730 O.2       9 ALL1        0.0000 
     45 O        -108.1060   23.1730  -34.3960 O.2       5 ALP1        0.0000 
     46 N        -108.6860   21.4770  -29.7310 N.am      2 SEC2        0.0000 
     47 N        -107.4780   21.8550  -29.3010 N.am     10 SEL2        0.0000 
     48 N        -109.8940   21.0990  -30.1610 N.am      6 SEP2        0.0000 
     49 CA       -109.1415   24.9150  -28.8355 C.3       4 GLC5        0.0000 
     50 CA       -107.1560   24.2020  -28.9230 C.3      12 GLL5        0.0000 
     51 CA       -111.1270   25.6280  -28.7480 C.3       8 GLP5        0.0000 
     52 CA       -105.8330   22.2180  -26.9010 C.3       4 GLC5        0.0000 
     53 CA       -106.8940   23.9880  -27.4300 C.3      12 GLL5        0.0000 
     54 CA       -104.7720   20.4480  -26.3720 C.3       8 GLP5        0.0000 
     55 N        -110.9650   25.1995  -26.1675 N.am      2 SEC2        0.0000 
     56 N        -110.2490   23.6810  -26.2050 N.am     10 SEL2        0.0000 
     57 N        -111.3275   22.8710  -25.7790 N.am      2 SEC2        0.0000 
     58 N        -112.4060   22.0610  -25.3530 N.am      6 SEP2        0.0000 
     59 N        -110.0225   20.7020  -25.3500 N.am      2 SEC2        0.0000 
     60 N        -109.0800   21.7420  -25.2930 N.am     10 SEL2        0.0000 
     61 N        -110.9650   19.6620  -25.4070 N.am      6 SEP2        0.0000 
     62 N        -108.5785   20.4970  -25.2575 N.am      2 SEC2        0.0000 
     63 N        -108.0770   19.2520  -25.2220 N.am      6 SEP2        0.0000 
     64 CA       -105.0490   22.0422  -23.0510 C.3       4 GLC5        0.0000 
     65 CA       -105.0610   24.0600  -23.0380 C.3      12 GLL5        0.0000 
     66 CA       -105.0050   20.2040  -23.8030 C.3       8 GLP5        0.0000 
     67 CA       -105.3440   23.2330  -19.4935 C.3       4 GLC5        0.0000 
     68 CA       -105.8990   22.1710  -17.7700 C.3       8 GLP5        0.0000 
     69 CA       -107.0955   24.9210  -36.0062 C.3       4 GLC5        0.0000 
     70 CA       -109.0520   25.7250  -36.0100 C.3       8 GLP5        0.0000 
     71 CA       -106.0888   25.0737  -38.2744 C.3       4 GLC5        0.0000 
     72 CA       -105.1400   24.5720  -36.5360 C.3      12 GLL5        0.0000 
     73 CA       -107.0290   24.0580  -39.6370 C.3       8 GLP5        0.0000 
     74 CA       -103.5568   26.8853  -34.4050 C.3       4 GLC5        0.0000 
     75 CA       -105.1480   25.9440  -36.2730 C.3      12 GLL5        0.0000 
     76 CA       -101.9530   26.7480  -33.6940 C.3       8 GLP5        0.0000 
     77 CA       -107.1022   25.7775  -35.3820 C.3       4 GLC5        0.0000 
     78 CA       -105.1530   25.4870  -33.8970 C.3      12 GLL5        0.0000 
     79 CA       -103.5512   25.7748  -33.8575 C.3       4 GLC5        0.0000 
     80 CA       -107.6065   21.7182  -31.1998 C.3       4 GLC5        0.0000 
     81 CA       -108.5250   20.3070  -31.9490 C.3       8 GLP5        0.0000 
@<TRIPOS>BOND
@<TRIPOS>SUBSTRUCTURE
     1 ALC1       21 GROUP        1 X    ALC  0     ROOT ALC X 1
     2 SEC2        4 GROUP        1 X    SEC  0     **** SEC X 2
     3 LYC4        1 GROUP        1 X    LYC  0     **** LYC X 4
     4 GLC5       10 GROUP        1 X    GLC  0     **** GLC X 6
     5 ALP1       23 GROUP        1 Y    ALP  0     ROOT ALP Y 8
     6 SEP2        6 GROUP        1 Y    SEP  0     **** SEP Y 9
     7 LYP4        3 GROUP        1 Y    LYP  0     **** LYP Y 11
     8 GLP5       12 GROUP        1 Y    GLP  0     **** GLP Y 13
     9 ALL1       22 GROUP        1 Z    ALL  0     ROOT ALL Z 15
    10 SEL2        5 GROUP        1 Z    SEL  0     **** SEL Z 16
    11 LYL4        2 GROUP        1 Z    LYL  0     **** LYL Z 18
    12 GLL5       11 GROUP        1 Z    GLL  0     **** GLL Z 20
@<TRIPOS>SET

