#    Name: 2ok8_FAD_3_ligand
#    Modification time : Tue Mar 25 22:50:58 2014

@<TRIPOS>MOLECULE
2ok8_FAD_3_ligand
   84    89     1     0     0
SMALL
NO_CHARGES


@<TRIPOS>ATOM
      1 PA       -108.4570   25.4250  -24.0660 P.3       1 FAD415      0.0000 
      2 O1A      -109.3510   26.2080  -24.9830 O.co2     1 FAD415      0.0000 
      3 O2A      -109.0730   25.2760  -22.7020 O.co2     1 FAD415      0.0000 
      4 O5B      -107.0160   26.1210  -24.1260 O.3       1 FAD415      0.0000 
      5 C5B      -106.2350   26.3120  -22.9890 C.3       1 FAD415      0.0000 
      6 C4B      -104.9050   25.5770  -23.0570 C.3       1 FAD415      0.0000 
      7 O4B      -104.2420   25.9040  -21.8530 O.3       1 FAD415      0.0000 
      8 C3B      -105.0610   24.0600  -23.0380 C.3       1 FAD415      0.0000 
      9 O3B      -103.9250   23.4680  -23.6170 O.3       1 FAD415      0.0000 
     10 C2B      -105.1250   23.7010  -21.5600 C.3       1 FAD415      0.0000 
     11 O2B      -104.4830   22.4870  -21.2200 O.3       1 FAD415      0.0000 
     12 C1B      -104.4530   24.8890  -20.8740 C.3       1 FAD415      0.0000 
     13 N9A      -105.3040   25.3790  -19.7670 N.pl3     1 FAD415      0.0000 
     14 C8A      -106.6590   25.6160  -19.7970 C.2       1 FAD415      0.0000 
     15 N7A      -107.0470   26.0510  -18.5830 N.2       1 FAD415      0.0000 
     16 C5A      -105.9590   26.0910  -17.7740 C.ar      1 FAD415      0.0000 
     17 C6A      -105.7860   26.4590  -16.4400 C.ar      1 FAD415      0.0000 
     18 N6A      -106.8510   26.7670  -15.7020 N.pl3     1 FAD415      0.0000 
     19 N1A      -104.5230   26.3930  -15.8640 N.ar      1 FAD415      0.0000 
     20 C2A      -103.4290   25.9710  -16.6050 C.ar      1 FAD415      0.0000 
     21 N3A      -103.6140   25.6100  -17.9310 N.ar      1 FAD415      0.0000 
     22 C4A      -104.8530   25.6670  -18.5040 C.ar      1 FAD415      0.0000 
     23 N1       -105.1070   20.9150  -32.3040 N.2       1 FAD415      0.0000 
     24 C2       -105.1060   19.5530  -32.5870 C.2       1 FAD415      0.0000 
     25 O2       -105.0970   18.7140  -31.6830 O.2       1 FAD415      0.0000 
     26 N3       -105.1270   19.1170  -33.8990 N.am      1 FAD415      0.0000 
     27 C4       -105.1230   20.0220  -34.9380 C.2       1 FAD415      0.0000 
     28 O4       -105.1260   19.6070  -36.0970 O.2       1 FAD415      0.0000 
     29 C4X      -105.1380   21.3870  -34.6700 C.2       1 FAD415      0.0000 
     30 N5       -105.1460   22.2970  -35.7100 N.2       1 FAD415      0.0000 
     31 C5X      -105.1380   23.6620  -35.4690 C.ar      1 FAD415      0.0000 
     32 C6       -105.1400   24.5720  -36.5360 C.ar      1 FAD415      0.0000 
     33 C7       -105.1480   25.9440  -36.2730 C.ar      1 FAD415      0.0000 
     34 C7M      -105.1530   26.9210  -37.4190 C.3       1 FAD415      0.0000 
     35 C8       -105.1560   26.4020  -34.9490 C.ar      1 FAD415      0.0000 
     36 C8M      -105.1690   27.8720  -34.6210 C.3       1 FAD415      0.0000 
     37 C9       -105.1530   25.4870  -33.8970 C.ar      1 FAD415      0.0000 
     38 C9A      -105.1460   24.1160  -34.1450 C.ar      1 FAD415      0.0000 
     39 N10      -105.1380   23.2010  -33.0950 N.pl3     1 FAD415      0.0000 
     40 C10      -105.1310   21.8340  -33.3500 C.2       1 FAD415      0.0000 
     41 C1'      -105.2810   23.6720  -31.6810 C.3       1 FAD415      0.0000 
     42 C2'      -106.6810   23.2720  -31.2100 C.3       1 FAD415      0.0000 
     43 O2'      -107.6170   24.2310  -31.6730 O.3       1 FAD415      0.0000 
     44 C3'      -106.6950   22.9870  -29.6910 C.3       1 FAD415      0.0000 
     45 O3'      -107.4780   21.8550  -29.3010 O.3       1 FAD415      0.0000 
     46 C4'      -107.1560   24.2020  -28.9230 C.3       1 FAD415      0.0000 
     47 O4'      -106.5010   25.3430  -29.4400 O.3       1 FAD415      0.0000 
     48 C5'      -106.8940   23.9880  -27.4300 C.3       1 FAD415      0.0000 
     49 O5'      -107.8470   23.0390  -27.0110 O.3       1 FAD415      0.0000 
     50 P        -108.8970   23.1560  -25.7900 P.3       1 FAD415      0.0000 
     51 O1P      -110.2490   23.6810  -26.2050 O.co2     1 FAD415      0.0000 
     52 O2P      -109.0800   21.7420  -25.2930 O.co2     1 FAD415      0.0000 
     53 O3P      -108.1170   23.9610  -24.6400 O.3       1 FAD415      0.0000 
     54 H        -106.7505   25.9675  -22.0632 H         1 FAD415      0.0000 
     55 H        -106.0039   27.3880  -22.8147 H         1 FAD415      0.0000 
     56 H        -104.3617   25.8790  -23.8997 H         1 FAD415      0.0000 
     57 H        -105.9695   23.8043  -23.4940 H         1 FAD415      0.0000 
     58 H        -106.1671   23.7282  -21.2654 H         1 FAD415      0.0000 
     59 H        -103.5092   24.5370  -20.4763 H         1 FAD415      0.0000 
     60 H        -107.2219   25.4869  -20.5671 H         1 FAD415      0.0000 
     61 H        -107.7299   26.7731  -16.1789 H         1 FAD415      0.0000 
     62 H        -106.6758   26.9644  -14.7375 H         1 FAD415      0.0000 
     63 H        -102.5001   25.9268  -16.1797 H         1 FAD415      0.0000 
     64 H        -105.1459   18.1014  -34.1002 H         1 FAD415      0.0000 
     65 H        -105.1356   24.2309  -37.4999 H         1 FAD415      0.0000 
     66 H        -105.1560   25.8298  -32.9230 H         1 FAD415      0.0000 
     67 H        -105.1864   24.7437  -31.6312 H         1 FAD415      0.0000 
     68 H        -104.5489   23.1955  -31.0511 H         1 FAD415      0.0000 
     69 H        -106.8809   22.2859  -31.7122 H         1 FAD415      0.0000 
     70 H        -105.6328   22.8214  -29.3944 H         1 FAD415      0.0000 
     71 H        -108.2382   24.2755  -29.0588 H         1 FAD415      0.0000 
     72 H        -107.0093   24.9429  -26.9350 H         1 FAD415      0.0000 
     73 H        -105.8771   23.6355  -27.3211 H         1 FAD415      0.0000 
     74 H        -104.3481   26.8131  -38.0025 H         1 FAD415      0.0000 
     75 H        -105.9563   26.8043  -38.0031 H         1 FAD415      0.0000 
     76 H        -105.1583   27.8685  -37.0993 H         1 FAD415      0.0000 
     77 H        -105.1722   28.0323  -33.6339 H         1 FAD415      0.0000 
     78 H        -104.3682   28.3423  -34.9917 H         1 FAD415      0.0000 
     79 H        -105.9763   28.3288  -34.9947 H         1 FAD415      0.0000 
     80 H        -103.5637   22.8576  -22.9121 H         1 FAD415      0.0000 
     81 H        -103.7515   22.7488  -20.5904 H         1 FAD415      0.0000 
     82 H        -107.8301   23.9532  -32.6097 H         1 FAD415      0.0000 
     83 H        -107.7471   22.0399  -28.3558 H         1 FAD415      0.0000 
     84 H        -106.7642   25.3778  -30.4041 H         1 FAD415      0.0000 
@<TRIPOS>BOND
     1    2    1 ar   
     2    3    1 ar   
     3    4    1 1    
     4   53    1 1    
     5    5    4 1    
     6    6    5 1    
     7   54    5 1    
     8   55    5 1    
     9    7    6 1    
    10    8    6 1    
    11   56    6 1    
    12   12    7 1    
    13    9    8 1    
    14   10    8 1    
    15   57    8 1    
    16   80    9 1    
    17   11   10 1    
    18   12   10 1    
    19   58   10 1    
    20   81   11 1    
    21   13   12 1    
    22   59   12 1    
    23   14   13 1    
    24   22   13 1    
    25   15   14 2    
    26   60   14 1    
    27   16   15 1    
    28   17   16 ar   
    29   22   16 ar   
    30   18   17 1    
    31   19   17 ar   
    32   61   18 1    
    33   62   18 1    
    34   20   19 ar   
    35   21   20 ar   
    36   63   20 1    
    37   22   21 ar   
    38   24   23 1    
    39   40   23 2    
    40   25   24 2    
    41   26   24 am   
    42   27   26 am   
    43   64   26 1    
    44   28   27 2    
    45   29   27 1    
    46   30   29 2    
    47   40   29 1    
    48   31   30 1    
    49   32   31 ar   
    50   38   31 ar   
    51   33   32 ar   
    52   65   32 1    
    53   34   33 1    
    54   35   33 ar   
    55   74   34 1    
    56   75   34 1    
    57   76   34 1    
    58   36   35 1    
    59   37   35 ar   
    60   77   36 1    
    61   78   36 1    
    62   79   36 1    
    63   38   37 ar   
    64   66   37 1    
    65   39   38 1    
    66   40   39 1    
    67   41   39 1    
    68   42   41 1    
    69   67   41 1    
    70   68   41 1    
    71   43   42 1    
    72   44   42 1    
    73   69   42 1    
    74   82   43 1    
    75   45   44 1    
    76   46   44 1    
    77   70   44 1    
    78   83   45 1    
    79   47   46 1    
    80   48   46 1    
    81   71   46 1    
    82   84   47 1    
    83   49   48 1    
    84   72   48 1    
    85   73   48 1    
    86   50   49 1    
    87   51   50 ar   
    88   52   50 ar   
    89   53   50 1    
@<TRIPOS>SUBSTRUCTURE
     1 FAD415      1 GROUP   
@<TRIPOS>SET

