#    Name: 3t0q_ADP_1_INTS_M
#    Modification time : Mon Mar 24 18:58:44 2014

@<TRIPOS>MOLECULE
3t0q_ADP_1_INTS_M
   50     0    12     0     0
SMALL
NO_CHARGES


@<TRIPOS>ATOM
      1 NZ         -6.3335   -9.4595  -27.0355 N.4       2 LYC4        0.0000 
      2 NZ         -5.9970  -10.8730  -27.1000 N.4      10 LYL4        0.0000 
      3 NZ         -6.6700   -8.0460  -26.9710 N.4       6 LYP4        0.0000 
      4 N          -4.9815  -11.8435  -27.6480 N.am      1 SEC2        0.0000 
      5 N          -5.9970  -10.8730  -27.1000 N.am      9 SEL2        0.0000 
      6 N          -3.9660  -12.8140  -28.1960 N.am      5 SEP2        0.0000 
      7 N          -4.7570  -11.1575  -26.3670 N.am      1 SEC2        0.0000 
      8 N          -3.5170  -11.4420  -25.6340 N.am      5 SEP2        0.0000 
      9 N          -6.3335   -9.4595  -27.0355 N.am      1 SEC2        0.0000 
     10 N          -6.6700   -8.0460  -26.9710 N.am      5 SEP2        0.0000 
     11 Zn         -7.9075  -11.3730  -24.2590 Zn        3 ZIC7        0.0000 
     12 Zn         -6.9200  -11.6340  -24.8700 Zn       11 ZIL7        0.0000 
     13 Zn         -8.8950  -11.1120  -23.6480 Zn        7 ZIP7        0.0000 
     14 N          -5.8470  -11.7595  -23.9240 N.am      1 SEC2        0.0000 
     15 N          -6.9200  -11.6340  -24.8700 N.am      9 SEL2        0.0000 
     16 N          -4.7740  -11.8850  -22.9780 N.am      5 SEP2        0.0000 
     17 NZ         -7.5760   -9.6420  -26.8985 N.4       2 LYC4        0.0000 
     18 NZ         -8.4820  -11.2380  -26.8260 N.4      10 LYL4        0.0000 
     19 N          -8.4150  -11.3010  -28.2385 N.am      1 SEC2        0.0000 
     20 N          -8.4820  -11.2380  -26.8260 N.am      9 SEL2        0.0000 
     21 N          -8.3480  -11.3640  -29.6510 N.am      5 SEP2        0.0000 
     22 N          -5.0010  -14.5815  -23.7545 N.am      1 SEC2        0.0000 
     23 N          -5.7790  -14.5730  -24.8840 N.am      9 SEL2        0.0000 
     24 N          -4.2230  -14.5900  -22.6250 N.am      5 SEP2        0.0000 
     25 N          -5.3630  -12.9660  -27.5130 N.am      1 SEC2        0.0000 
     26 N          -6.7600  -13.1180  -26.8300 N.am      9 SEL2        0.0000 
     27 CA         -7.5785  -14.3005  -29.2110 C.3       4 GLC5        0.0000 
     28 CA         -7.1900  -15.9660  -28.1780 C.3      12 GLL5        0.0000 
     29 CA         -7.9670  -12.6350  -30.2440 C.3       8 GLP5        0.0000 
     30 CA         -7.3425  -18.5670  -29.9495 C.3       4 GLC5        0.0000 
     31 CA         -7.1700  -17.4920  -28.3460 C.3      12 GLL5        0.0000 
     32 CA         -7.5150  -19.6420  -31.5530 C.3       8 GLP5        0.0000 
     33 CA         -5.3660  -19.8140  -29.2285 C.3       4 GLC5        0.0000 
     34 CA         -5.3120  -18.7860  -27.6590 C.3      12 GLL5        0.0000 
     35 CA         -5.4200  -20.8420  -30.7980 C.3       8 GLP5        0.0000 
     36 CA         -0.4315  -20.8950  -29.1865 C.3       4 GLC5        0.0000 
     37 CA         -1.4330  -20.9970  -27.4680 C.3      12 GLL5        0.0000 
     38 CA          0.5700  -20.7930  -30.9050 C.3       8 GLP5        0.0000 
     39 CA         -2.8340  -17.7425  -29.1250 C.3       4 GLC5        0.0000 
     40 CA         -2.8500  -19.1370  -27.4760 C.3      12 GLL5        0.0000 
     41 CA         -2.8180  -16.3480  -30.7740 C.3       8 GLP5        0.0000 
     42 CA         -4.5393  -18.8292  -25.3667 C.3       4 GLC5        0.0000 
     43 CA         -3.3330  -18.9870  -23.6830 C.3       8 GLP5        0.0000 
     44 CA         -0.7055  -17.3618  -28.9233 C.3       4 GLC5        0.0000 
     45 CA         -1.6870  -18.2560  -27.3520 C.3      12 GLL5        0.0000 
     46 CA         -0.3840  -16.1410  -30.5240 C.3       8 GLP5        0.0000 
     47 CA         -0.1115  -18.9518  -28.9622 C.3       4 GLC5        0.0000 
     48 CA          0.8040  -19.3210  -30.6020 C.3       8 GLP5        0.0000 
     49 CA         -2.8037  -17.5802  -25.6750 C.3       4 GLC5        0.0000 
     50 CA         -3.3390  -16.4640  -23.9360 C.3       8 GLP5        0.0000 
@<TRIPOS>BOND
@<TRIPOS>SUBSTRUCTURE
     1 SEC2        4 GROUP        1 X    SEC  0     ROOT SEC X 2
     2 LYC4        1 GROUP        1 X    LYC  0     **** LYC X 4
     3 ZIC7       11 GROUP        1 X    ZIC  0     **** ZIC X 5
     4 GLC5       27 GROUP        1 X    GLC  0     **** GLC X 6
     5 SEP2        6 GROUP        1 Y    SEP  0     ROOT SEP Y 9
     6 LYP4        3 GROUP        1 Y    LYP  0     **** LYP Y 11
     7 ZIP7       13 GROUP        1 Y    ZIP  0     **** ZIP Y 12
     8 GLP5       29 GROUP        1 Y    GLP  0     **** GLP Y 13
     9 SEL2        5 GROUP        1 Z    SEL  0     ROOT SEL Z 16
    10 LYL4        2 GROUP        1 Z    LYL  0     **** LYL Z 18
    11 ZIL7       12 GROUP        1 Z    ZIL  0     **** ZIL Z 19
    12 GLL5       28 GROUP        1 Z    GLL  0     **** GLL Z 20
@<TRIPOS>SET

