#    Name: 3t0q_ADP_1_ligand
#    Modification time : Mon Mar 24 18:58:45 2014

@<TRIPOS>MOLECULE
3t0q_ADP_1_ligand
   39    41     1     0     0
SMALL
NO_CHARGES


@<TRIPOS>ATOM
      1 PB         -7.0930  -11.6010  -26.3610 P.3       1 ADP999      0.0000 
      2 O1B        -5.9970  -10.8730  -27.1000 O.co2     1 ADP999      0.0000 
      3 O2B        -6.9200  -11.6340  -24.8700 O.co2     1 ADP999      0.0000 
      4 O3B        -8.4820  -11.2380  -26.8260 O.co2     1 ADP999      0.0000 
      5 PA         -6.8250  -14.4820  -25.9650 P.3       1 ADP999      0.0000 
      6 O1A        -5.7790  -14.5730  -24.8840 O.co2     1 ADP999      0.0000 
      7 O2A        -8.2840  -14.6890  -25.6630 O.co2     1 ADP999      0.0000 
      8 O3A        -6.7600  -13.1180  -26.8300 O.3       1 ADP999      0.0000 
      9 O5'        -6.3560  -15.5650  -27.0720 O.3       1 ADP999      0.0000 
     10 C5'        -7.1900  -15.9660  -28.1780 C.3       1 ADP999      0.0000 
     11 C4'        -7.1700  -17.4920  -28.3460 C.3       1 ADP999      0.0000 
     12 O4'        -5.8810  -17.9990  -28.7200 O.3       1 ADP999      0.0000 
     13 C3'        -7.5190  -18.1910  -27.0360 C.3       1 ADP999      0.0000 
     14 O3'        -8.2560  -19.3660  -27.3760 O.3       1 ADP999      0.0000 
     15 C2'        -6.1790  -18.5570  -26.4420 C.3       1 ADP999      0.0000 
     16 O2'        -6.2530  -19.7360  -25.6620 O.3       1 ADP999      0.0000 
     17 C1'        -5.3120  -18.7860  -27.6590 C.3       1 ADP999      0.0000 
     18 N9         -3.9080  -18.3380  -27.5010 N.pl3     1 ADP999      0.0000 
     19 C8         -3.4920  -17.0540  -27.4220 C.2       1 ADP999      0.0000 
     20 N7         -2.1450  -16.9910  -27.3200 N.2       1 ADP999      0.0000 
     21 C5         -1.6870  -18.2560  -27.3520 C.ar      1 ADP999      0.0000 
     22 C6         -0.3670  -18.9090  -27.2930 C.ar      1 ADP999      0.0000 
     23 N6          0.7530  -18.1650  -27.1910 N.pl3     1 ADP999      0.0000 
     24 N1         -0.3140  -20.2640  -27.3550 N.ar      1 ADP999      0.0000 
     25 C2         -1.4330  -20.9970  -27.4680 C.ar      1 ADP999      0.0000 
     26 N3         -2.6660  -20.4780  -27.5240 N.ar      1 ADP999      0.0000 
     27 C4         -2.8500  -19.1370  -27.4760 C.ar      1 ADP999      0.0000 
     28 H          -6.8470  -15.5218  -29.1210 H         1 ADP999      0.0000 
     29 H          -8.2330  -15.6606  -28.0256 H         1 ADP999      0.0000 
     30 H          -7.9178  -17.7759  -29.0717 H         1 ADP999      0.0000 
     31 H          -8.0250  -17.5279  -26.4194 H         1 ADP999      0.0000 
     32 H          -5.7994  -17.7156  -25.9179 H         1 ADP999      0.0000 
     33 H          -5.3435  -19.8245  -27.9253 H         1 ADP999      0.0000 
     34 H          -4.0858  -16.2746  -27.4366 H         1 ADP999      0.0000 
     35 H           1.6173  -18.6679  -27.1958 H         1 ADP999      0.0000 
     36 H           0.6196  -17.1765  -27.1196 H         1 ADP999      0.0000 
     37 H          -1.3316  -22.0634  -27.5163 H         1 ADP999      0.0000 
     38 H          -7.7992  -20.1086  -26.8863 H         1 ADP999      0.0000 
     39 H          -5.3370  -20.1346  -25.7081 H         1 ADP999      0.0000 
@<TRIPOS>BOND
     1    2    1 ar   
     2    3    1 ar   
     3    4    1 ar   
     4    8    1 1    
     5    6    5 ar   
     6    7    5 ar   
     7    8    5 1    
     8    9    5 1    
     9   10    9 1    
    10   11   10 1    
    11   28   10 1    
    12   29   10 1    
    13   12   11 1    
    14   13   11 1    
    15   30   11 1    
    16   17   12 1    
    17   14   13 1    
    18   15   13 1    
    19   31   13 1    
    20   38   14 1    
    21   16   15 1    
    22   17   15 1    
    23   32   15 1    
    24   39   16 1    
    25   18   17 1    
    26   33   17 1    
    27   19   18 1    
    28   27   18 1    
    29   20   19 2    
    30   34   19 1    
    31   21   20 1    
    32   22   21 ar   
    33   27   21 ar   
    34   23   22 1    
    35   24   22 ar   
    36   35   23 1    
    37   36   23 1    
    38   25   24 ar   
    39   26   25 ar   
    40   37   25 1    
    41   27   26 ar   
@<TRIPOS>SUBSTRUCTURE
     1 ADP999      1 GROUP   
@<TRIPOS>SET

