#    Name: 2j08_IRF_1_INTS_M
#    Modification time : Tue Mar 25 19:03:09 2014

@<TRIPOS>MOLECULE
2j08_IRF_1_INTS_M
   45     0     9     0     0
SMALL
NO_CHARGES


@<TRIPOS>ATOM
      1 O          48.0500    9.3125   28.3865 O.2       1 ALC1        0.0000 
      2 O          47.2780    9.9780   29.3010 O.2       7 ALL1        0.0000 
      3 O          48.8220    8.6470   27.4720 O.2       4 ALP1        0.0000 
      4 N          48.8580    7.8980   30.4695 N.am      2 SEC2        0.0000 
      5 N          47.2980    8.1830   30.6790 N.am      8 SEL2        0.0000 
      6 N          50.4180    7.6130   30.2600 N.am      5 SEP2        0.0000 
      7 CA         44.9255    7.4515   33.7505 C.3       3 GLC5        0.0000 
      8 CA         43.8270    9.2030   34.1300 C.3       9 GLL5        0.0000 
      9 CA         46.0240    5.7000   33.3710 C.3       6 GLP5        0.0000 
     10 CA         41.9925    7.5480   37.3890 C.3       3 GLC5        0.0000 
     11 CA         42.3330    8.9470   36.1290 C.3       9 GLL5        0.0000 
     12 CA         41.6520    6.1490   38.6490 C.3       6 GLP5        0.0000 
     13 CA         42.7195   13.6485   30.1990 C.3       3 GLC5        0.0000 
     14 CA         44.0080   13.3490   31.5780 C.3       9 GLL5        0.0000 
     15 CA         41.4310   13.9480   28.8200 C.3       6 GLP5        0.0000 
     16 CA         45.3215   14.8930   28.9775 C.3       3 GLC5        0.0000 
     17 CA         45.5010   15.1820   31.0390 C.3       9 GLL5        0.0000 
     18 CA         45.1420   14.6040   26.9160 C.3       6 GLP5        0.0000 
     19 N          47.8895   15.7245   30.3225 N.am      2 SEC2        0.0000 
     20 N          46.8590   15.6240   31.0400 N.am      8 SEL2        0.0000 
     21 N          48.9200   15.8250   29.6050 N.am      5 SEP2        0.0000 
     22 N          43.1740   15.1395   29.1425 N.am      2 SEC2        0.0000 
     23 N          43.6460   16.1940   30.1710 N.am      8 SEL2        0.0000 
     24 N          42.7020   14.0850   28.1140 N.am      5 SEP2        0.0000 
     25 CA         45.9895   19.3110   29.9650 C.3       3 GLC5        0.0000 
     26 CA         45.5540   17.5370   30.5310 C.3       9 GLL5        0.0000 
     27 CA         46.4250   21.0850   29.3990 C.3       6 GLP5        0.0000 
     28 CA         40.2810   11.0575   34.2990 C.3       3 GLC5        0.0000 
     29 CA         40.9610   12.0130   35.9520 C.3       9 GLL5        0.0000 
     30 CA         39.6010   10.1020   32.6460 C.3       6 GLP5        0.0000 
     31 N          46.7995   17.7455   28.9635 N.am      2 SEC2        0.0000 
     32 N          45.1540   17.5620   29.1310 N.am      8 SEL2        0.0000 
     33 N          48.4450   17.9290   28.7960 N.am      5 SEP2        0.0000 
     34 N          44.5165   17.9360   27.9040 N.am      2 SEC2        0.0000 
     35 N          43.8790   18.3100   26.6770 N.am      5 SEP2        0.0000 
     36 CA         42.7849    8.0266   33.3092 C.3       3 GLC5        0.0000 
     37 CA         44.2920    9.9060   33.0440 C.3       9 GLL5        0.0000 
     38 CA         42.1050    6.4020   32.3520 C.3       6 GLP5        0.0000 
     39 CA         41.1165   10.2720   33.7207 C.3       3 GLC5        0.0000 
     40 CA         42.8700    9.7480   34.9460 C.3       9 GLL5        0.0000 
     41 CA         41.4865   10.8400   32.9225 C.3       3 GLC5        0.0000 
     42 CA         42.8850   11.8680   33.5850 C.3       9 GLL5        0.0000 
     43 CA         45.8126   10.4501   33.6160 C.3       3 GLC5        0.0000 
     44 CA         43.8590   11.2880   32.8130 C.3       9 GLL5        0.0000 
     45 CA         47.6660   10.4790   34.0320 C.3       6 GLP5        0.0000 
@<TRIPOS>BOND
@<TRIPOS>SUBSTRUCTURE
     1 ALC1        1 GROUP        1 X    ALC  0     ROOT ALC X 1
     2 SEC2        4 GROUP        1 X    SEC  0     **** SEC X 2
     3 GLC5        7 GROUP        1 X    GLC  0     **** GLC X 6
     4 ALP1        3 GROUP        1 Y    ALP  0     ROOT ALP Y 8
     5 SEP2        6 GROUP        1 Y    SEP  0     **** SEP Y 9
     6 GLP5        9 GROUP        1 Y    GLP  0     **** GLP Y 13
     7 ALL1        2 GROUP        1 Z    ALL  0     ROOT ALL Z 15
     8 SEL2        5 GROUP        1 Z    SEL  0     **** SEL Z 16
     9 GLL5        8 GROUP        1 Z    GLL  0     **** GLL Z 20
@<TRIPOS>SET

