#    Name: 2j08_IRF_1_ligand
#    Modification time : Tue Mar 25 19:03:09 2014

@<TRIPOS>MOLECULE
2j08_IRF_1_ligand
   44    46     1     0     0
SMALL
NO_CHARGES


@<TRIPOS>ATOM
      1 N1         45.7630   11.8210   29.7240 N.2       1 IRF1422     0.0000 
      2 C2         46.7480   11.1920   28.9810 C.2       1 IRF1422     0.0000 
      3 O2         47.1410   11.7770   27.9410 O.2       1 IRF1422     0.0000 
      4 N3         47.2780    9.9780   29.3010 N.am      1 IRF1422     0.0000 
      5 C4         46.8460    9.3280   30.3860 C.2       1 IRF1422     0.0000 
      6 O4         47.2980    8.1830   30.6790 O.2       1 IRF1422     0.0000 
      7 C4A        45.7950    9.9810   31.2230 C.2       1 IRF1422     0.0000 
      8 N5         45.2560    9.3600   32.2580 N.2       1 IRF1422     0.0000 
      9 C5A        44.2920    9.9060   33.0440 C.ar      1 IRF1422     0.0000 
     10 C6         43.8270    9.2030   34.1300 C.ar      1 IRF1422     0.0000 
     11 C7         42.8700    9.7480   34.9460 C.ar      1 IRF1422     0.0000 
     12 C7M        42.3330    8.9470   36.1290 C.3       1 IRF1422     0.0000 
     13 C8         42.3940   11.1360   34.6450 C.ar      1 IRF1422     0.0000 
     14 C9         42.8850   11.8680   33.5850 C.ar      1 IRF1422     0.0000 
     15 C9A        43.8590   11.2880   32.8130 C.ar      1 IRF1422     0.0000 
     16 N10        44.2940   11.9230   31.6260 N.pl3     1 IRF1422     0.0000 
     17 C10        45.3280   11.3260   30.8870 C.2       1 IRF1422     0.0000 
     18 C1'        44.0080   13.3490   31.5780 C.3       1 IRF1422     0.0000 
     19 C2'        45.1620   14.1240   32.1030 C.3       1 IRF1422     0.0000 
     20 O2'        44.7960   14.5800   33.4320 O.3       1 IRF1422     0.0000 
     21 C3'        45.5010   15.1820   31.0390 C.3       1 IRF1422     0.0000 
     22 O3'        46.8590   15.6240   31.0400 O.3       1 IRF1422     0.0000 
     23 C4'        44.6910   16.4380   31.1310 C.3       1 IRF1422     0.0000 
     24 O4'        43.6460   16.1940   30.1710 O.3       1 IRF1422     0.0000 
     25 C5'        45.5540   17.5370   30.5310 C.3       1 IRF1422     0.0000 
     26 I8         40.9610   12.0130   35.9520 I         1 IRF1422     0.0000 
     27 O5'        45.1540   17.5620   29.1310 O.3       1 IRF1422     0.0000 
     28 H          48.0176    9.5676   28.6938 H         1 IRF1422     0.0000 
     29 H          44.2021    8.2587   34.3307 H         1 IRF1422     0.0000 
     30 H          42.5364   12.8013   33.3860 H         1 IRF1422     0.0000 
     31 H          43.1155   13.5810   32.1765 H         1 IRF1422     0.0000 
     32 H          43.8022   13.6638   30.5450 H         1 IRF1422     0.0000 
     33 H          46.0051   13.4243   32.1558 H         1 IRF1422     0.0000 
     34 H          45.2776   14.7401   30.0423 H         1 IRF1422     0.0000 
     35 H          44.3826   16.6380   32.0542 H         1 IRF1422     0.0000 
     36 H          46.5828   17.2679   30.6405 H         1 IRF1422     0.0000 
     37 H          45.3283   18.4603   31.0203 H         1 IRF1422     0.0000 
     38 H          43.0575    8.7089   36.7758 H         1 IRF1422     0.0000 
     39 H          41.6406    9.4571   36.6392 H         1 IRF1422     0.0000 
     40 H          41.9089    8.0903   35.8355 H         1 IRF1422     0.0000 
     41 H          45.6315   14.4930   33.9746 H         1 IRF1422     0.0000 
     42 H          46.9083   16.3067   31.7690 H         1 IRF1422     0.0000 
     43 H          42.7963   16.2391   30.6964 H         1 IRF1422     0.0000 
     44 H          44.4321   16.8740   29.0559 H         1 IRF1422     0.0000 
@<TRIPOS>BOND
     1    2    1 1    
     2   17    1 2    
     3    3    2 2    
     4    4    2 am   
     5    5    4 am   
     6   28    4 1    
     7    6    5 2    
     8    7    5 1    
     9    8    7 2    
    10   17    7 1    
    11    9    8 1    
    12   10    9 ar   
    13   15    9 ar   
    14   11   10 ar   
    15   29   10 1    
    16   12   11 1    
    17   13   11 ar   
    18   38   12 1    
    19   39   12 1    
    20   40   12 1    
    21   14   13 ar   
    22   26   13 1    
    23   15   14 ar   
    24   30   14 1    
    25   16   15 1    
    26   17   16 1    
    27   18   16 1    
    28   19   18 1    
    29   31   18 1    
    30   32   18 1    
    31   20   19 1    
    32   21   19 1    
    33   33   19 1    
    34   41   20 1    
    35   22   21 1    
    36   23   21 1    
    37   34   21 1    
    38   42   22 1    
    39   24   23 1    
    40   25   23 1    
    41   35   23 1    
    42   43   24 1    
    43   27   25 1    
    44   36   25 1    
    45   37   25 1    
    46   44   27 1    
@<TRIPOS>SUBSTRUCTURE
     1 IRF1422     1 GROUP   
@<TRIPOS>SET

