#    Name: 2wi6_ZZ6_1_INTS_M
#    Modification time : Tue Mar 25 04:23:12 2014

@<TRIPOS>MOLECULE
2wi6_ZZ6_1_INTS_M
   62     0     6     0     0
SMALL
NO_CHARGES


@<TRIPOS>ATOM
      1 CA         32.4515   13.1120   26.4650 C.3       2 GLC5        0.0000 
      2 CA         32.8790   13.3650   24.5910 C.3       6 GLL5        0.0000 
      3 CA         32.0240   12.8590   28.3390 C.3       4 GLP5        0.0000 
      4 CA         34.5380   14.3070   25.3490 C.3       2 GLC5        0.0000 
      5 CA         36.1970   15.2490   26.1070 C.3       4 GLP5        0.0000 
      6 CA         33.6900   13.8195   22.8365 C.3       2 GLC5        0.0000 
      7 CA         34.5010   14.2740   21.0820 C.3       4 GLP5        0.0000 
      8 CA         32.2910   14.9280   25.4705 C.3       2 GLC5        0.0000 
      9 CA         31.7030   16.4910   26.3500 C.3       4 GLP5        0.0000 
     10 CA         30.9535   13.8495   25.4490 C.3       2 GLC5        0.0000 
     11 CA         29.0280   14.3340   26.3070 C.3       4 GLP5        0.0000 
     12 CA         37.3880   12.6635   24.4710 C.3       2 GLC5        0.0000 
     13 CA         37.6780   11.2480   22.8790 C.3       6 GLL5        0.0000 
     14 CA         37.0980   14.0790   26.0630 C.3       4 GLP5        0.0000 
     15 CA         39.1705   11.6780   22.0825 C.3       2 GLC5        0.0000 
     16 CA         40.6630   12.1080   21.2860 C.3       4 GLP5        0.0000 
     17 CA         31.4065    9.6840   22.8655 C.3       2 GLC5        0.0000 
     18 CA         32.0090   10.3420   24.9040 C.3       6 GLL5        0.0000 
     19 CA         30.8040    9.0260   20.8270 C.3       4 GLP5        0.0000 
     20 CA         30.2355    9.8640   22.7470 C.3       2 GLC5        0.0000 
     21 CA         29.6670   10.7020   24.6670 C.3       6 GLL5        0.0000 
     22 CA         28.4420    9.0080   25.2585 C.3       2 GLC5        0.0000 
     23 CA         27.2170    7.3140   25.8500 C.3       4 GLP5        0.0000 
     24 CA         28.7085   12.1335   25.7065 C.3       2 GLC5        0.0000 
     25 CA         27.7500   13.5650   26.7460 C.3       4 GLP5        0.0000 
     26 O          27.2730   11.3385   24.0380 O.2       1 ALC1        0.0000 
     27 O          28.6650   11.2740   23.9580 O.2       5 ALL1        0.0000 
     28 O          25.8810   11.4030   24.1180 O.2       3 ALP1        0.0000 
     29 O          28.7310   11.9115   22.4115 O.2       1 ALC1        0.0000 
     30 O          28.7970   12.5490   20.8650 O.2       3 ALP1        0.0000 
     31 CA         29.0990    7.4105   28.7815 C.3       2 GLC5        0.0000 
     32 CA         30.1900    8.4560   27.8650 C.3       6 GLL5        0.0000 
     33 CA         28.0080    6.3650   29.6980 C.3       4 GLP5        0.0000 
     34 CA         33.0195   10.3315   28.0115 C.3       2 GLC5        0.0000 
     35 CA         32.6570    8.8270   27.0260 C.3       6 GLL5        0.0000 
     36 CA         33.3820   11.8360   28.9970 C.3       4 GLP5        0.0000 
     37 O          30.4220    8.1615   30.7530 O.2       1 ALC1        0.0000 
     38 O          31.3630    7.0240   30.0910 O.2       5 ALL1        0.0000 
     39 O          29.4810    9.2990   31.4150 O.2       3 ALP1        0.0000 
     40 CA         30.5090    4.5310   30.5240 C.3       2 GLC5        0.0000 
     41 CA         31.6350    6.0830   31.1600 C.3       6 GLL5        0.0000 
     42 CA         29.3830    2.9790   29.8880 C.3       4 GLP5        0.0000 
     43 CA         29.8215    6.2240   30.4290 C.3       2 GLC5        0.0000 
     44 CA         29.4435    6.3375   32.2925 C.3       2 GLC5        0.0000 
     45 CA         31.6120    6.7470   32.5190 C.3       6 GLL5        0.0000 
     46 CA         27.2750    5.9280   32.0660 C.3       4 GLP5        0.0000 
     47 CA         33.1075    8.4050   32.7850 C.3       2 GLC5        0.0000 
     48 CA         34.6030   10.0630   33.0510 C.3       4 GLP5        0.0000 
     49 CA         30.2195    7.6640   33.6240 C.3       2 GLC5        0.0000 
     50 CA         28.8270    8.5810   34.7290 C.3       4 GLP5        0.0000 
     51 CA         35.1112   12.0990   22.1435 C.3       2 GLC5        0.0000 
     52 CA         35.2100   12.1180   23.7590 C.3       6 GLL5        0.0000 
     53 CA         35.6610   12.1670   20.2960 C.3       4 GLP5        0.0000 
     54 CA         35.8696   12.2075   25.2480 C.3       2 GLC5        0.0000 
     55 CA         36.0030   11.0090   23.4770 C.3       6 GLL5        0.0000 
     56 CA         36.4570   12.8950   26.7620 C.3       4 GLP5        0.0000 
     57 CA         35.9189   11.2949   21.8558 C.3       2 GLC5        0.0000 
     58 CA         28.7425    8.1195   26.5123 C.3       2 GLC5        0.0000 
     59 CA         30.3460    9.3940   26.4840 C.3       6 GLL5        0.0000 
     60 CA         31.5703   11.2615   27.1684 C.3       2 GLC5        0.0000 
     61 CA         31.7255    9.6128   29.0742 C.3       2 GLC5        0.0000 
     62 CA         32.4020   10.9000   30.1990 C.3       4 GLP5        0.0000 
@<TRIPOS>BOND
@<TRIPOS>SUBSTRUCTURE
     1 ALC1       26 GROUP        1 X    ALC  0     ROOT ALC X 1
     2 GLC5        1 GROUP        1 X    GLC  0     **** GLC X 6
     3 ALP1       28 GROUP        1 Y    ALP  0     ROOT ALP Y 8
     4 GLP5        3 GROUP        1 Y    GLP  0     **** GLP Y 13
     5 ALL1       27 GROUP        1 Z    ALL  0     ROOT ALL Z 15
     6 GLL5        2 GROUP        1 Z    GLL  0     **** GLL Z 20
@<TRIPOS>SET

