#    Name: 2wi6_ZZ6_1_ligand
#    Modification time : Tue Mar 25 04:23:12 2014

@<TRIPOS>MOLECULE
2wi6_ZZ6_1_ligand
   35    37     1     0     0
SMALL
NO_CHARGES


@<TRIPOS>ATOM
      1 CL2        32.8790   13.3650   24.5910 Cl        1 ZZ61224     0.0000 
      2 C21        33.9130   11.9440   24.2230 C.ar      1 ZZ61224     0.0000 
      3 C20        35.2100   12.1180   23.7590 C.ar      1 ZZ61224     0.0000 
      4 C19        36.0030   11.0090   23.4770 C.ar      1 ZZ61224     0.0000 
      5 CL1        37.6780   11.2480   22.8790 Cl        1 ZZ61224     0.0000 
      6 C18        35.5130    9.7170   23.6530 C.ar      1 ZZ61224     0.0000 
      7 C17        34.2200    9.4910   24.1150 C.ar      1 ZZ61224     0.0000 
      8 C11        33.3930   10.5670   24.4090 C.ar      1 ZZ61224     0.0000 
      9 C2         32.0090   10.3420   24.9040 C.ar      1 ZZ61224     0.0000 
     10 N1         30.9500   10.8790   24.2530 N.ar      1 ZZ61224     0.0000 
     11 C4         29.6670   10.7020   24.6670 C.ar      1 ZZ61224     0.0000 
     12 N10        28.6650   11.2740   23.9580 N.pl3     1 ZZ61224     0.0000 
     13 N3         29.3560    9.9710   25.7670 N.ar      1 ZZ61224     0.0000 
     14 C5         30.3460    9.3940   26.4840 C.ar      1 ZZ61224     0.0000 
     15 S9         30.1900    8.4560   27.8650 S.3       1 ZZ61224     0.0000 
     16 C6         31.7650    9.5260   26.1190 C.ar      1 ZZ61224     0.0000 
     17 C7         32.6570    8.8270   27.0260 C.2       1 ZZ61224     0.0000 
     18 C8         31.9080    8.1950   28.0340 C.2       1 ZZ61224     0.0000 
     19 C12        32.2960    7.3580   29.2040 C.2       1 ZZ61224     0.0000 
     20 O13        33.4550    6.9970   29.3230 O.2       1 ZZ61224     0.0000 
     21 N14        31.3630    7.0240   30.0910 N.am      1 ZZ61224     0.0000 
     22 C15        31.6350    6.0830   31.1600 C.3       1 ZZ61224     0.0000 
     23 C16        31.6120    6.7470   32.5190 C.3       1 ZZ61224     0.0000 
     24 H          35.5864   13.0653   23.6231 H         1 ZZ61224     0.0000 
     25 H          36.1242    8.9082   23.4353 H         1 ZZ61224     0.0000 
     26 H          33.8792    8.5295   24.2379 H         1 ZZ61224     0.0000 
     27 H          28.9431   11.8505   23.1897 H         1 ZZ61224     0.0000 
     28 H          27.7358   11.0692   24.2656 H         1 ZZ61224     0.0000 
     29 H          33.5959    8.8139   26.9315 H         1 ZZ61224     0.0000 
     30 H          30.4004    7.4184   30.0614 H         1 ZZ61224     0.0000 
     31 H          32.6237    5.6105   31.0230 H         1 ZZ61224     0.0000 
     32 H          30.8909    5.2670   31.1615 H         1 ZZ61224     0.0000 
     33 H          31.7999    6.0954   33.2539 H         1 ZZ61224     0.0000 
     34 H          32.2959    7.4732   32.5892 H         1 ZZ61224     0.0000 
     35 H          30.7233    7.1615   32.7148 H         1 ZZ61224     0.0000 
@<TRIPOS>BOND
     1    2    1 1    
     2    3    2 ar   
     3    8    2 ar   
     4    4    3 ar   
     5   24    3 1    
     6    5    4 1    
     7    6    4 ar   
     8    7    6 ar   
     9   25    6 1    
    10    8    7 ar   
    11   26    7 1    
    12    9    8 1    
    13   10    9 ar   
    14   16    9 ar   
    15   11   10 ar   
    16   12   11 1    
    17   13   11 ar   
    18   27   12 1    
    19   28   12 1    
    20   14   13 ar   
    21   15   14 1    
    22   16   14 ar   
    23   18   15 1    
    24   17   16 1    
    25   18   17 2    
    26   29   17 1    
    27   19   18 1    
    28   20   19 2    
    29   21   19 am   
    30   22   21 1    
    31   30   21 1    
    32   23   22 1    
    33   31   22 1    
    34   32   22 1    
    35   33   23 1    
    36   34   23 1    
    37   35   23 1    
@<TRIPOS>SUBSTRUCTURE
     1 ZZ61224     1 GROUP   
@<TRIPOS>SET

