#    Name: 2g8y_NAD_2_INTS_M
#    Modification time : Tue Mar 25 13:46:45 2014

@<TRIPOS>MOLECULE
2g8y_NAD_2_INTS_M
   91     0    12     0     0
SMALL
NO_CHARGES


@<TRIPOS>ATOM
      1 N          82.8075   53.6560    7.8135 N.am      2 SEC2        0.0000 
      2 N          83.8700   53.4970    8.7630 N.am     10 SEL2        0.0000 
      3 N          81.7450   53.8150    6.8640 N.am      6 SEP2        0.0000 
      4 N          82.0975   52.6335    7.9665 N.am      2 SEC2        0.0000 
      5 N          82.4500   51.4520    9.0690 N.am     10 SEL2        0.0000 
      6 CA         81.5655   51.3405   10.7245 C.3       4 GLC5        0.0000 
      7 CA         82.2720   50.0620    9.1980 C.3      12 GLL5        0.0000 
      8 CA         80.8590   52.6190   12.2510 C.3       8 GLP5        0.0000 
      9 CA         79.6785   51.1370   10.0980 C.3       4 GLC5        0.0000 
     10 CA         80.7840   49.7540    9.0780 C.3      12 GLL5        0.0000 
     11 CA         78.5730   52.5200   11.1180 C.3       8 GLP5        0.0000 
     12 CA         80.1225   48.3590   11.2315 C.3       4 GLC5        0.0000 
     13 CA         80.5890   48.2320    9.0370 C.3      12 GLL5        0.0000 
     14 CA         79.6560   48.4860   13.4260 C.3       8 GLP5        0.0000 
     15 N          78.9685   48.1580   10.9895 N.am      2 SEC2        0.0000 
     16 N          79.3070   47.9360    9.5740 N.am     10 SEL2        0.0000 
     17 N          78.6300   48.3800   12.4050 N.am      6 SEP2        0.0000 
     18 O          78.3760   46.8405    9.6155 O.2       1 ALC1        0.0000 
     19 O          79.3070   47.9360    9.5740 O.2       9 ALL1        0.0000 
     20 O          77.4450   45.7450    9.6570 O.2       5 ALP1        0.0000 
     21 N          79.0750   45.7890    6.9505 N.am      2 SEC2        0.0000 
     22 N          80.1450   46.7030    7.1130 N.am     10 SEL2        0.0000 
     23 N          78.0050   44.8750    6.7880 N.am      6 SEP2        0.0000 
     24 O          81.0790   45.7830    7.1825 O.2       1 ALC1        0.0000 
     25 O          80.1450   46.7030    7.1130 O.2       9 ALL1        0.0000 
     26 O          82.0130   44.8630    7.2520 O.2       5 ALP1        0.0000 
     27 O          81.6405   46.3930    7.9025 O.2       1 ALC1        0.0000 
     28 O          83.1360   46.0830    8.6920 O.2       5 ALP1        0.0000 
     29 CA         80.3290   51.1220    6.6885 C.3       4 GLC5        0.0000 
     30 CA         79.9660   49.1650    7.0010 C.3      12 GLL5        0.0000 
     31 CA         80.6920   53.0790    6.3760 C.3       8 GLP5        0.0000 
     32 CA         80.4135   48.3620    1.8995 C.3       4 GLC5        0.0000 
     33 CA         79.9990   49.8960    3.4390 C.3      12 GLL5        0.0000 
     34 CA         80.8280   46.8280    0.3600 C.3       8 GLP5        0.0000 
     35 CA         78.7960   48.3250    1.3440 C.3       4 GLC5        0.0000 
     36 CA         79.2470   50.0950    2.2730 C.3      12 GLL5        0.0000 
     37 CA         78.3450   46.5550    0.4150 C.3       8 GLP5        0.0000 
     38 CA         78.1845   51.5250    3.9480 C.3       4 GLC5        0.0000 
     39 CA         77.2460   49.6590    3.5580 C.3      12 GLL5        0.0000 
     40 CA         79.1230   53.3910    4.3380 C.3       8 GLP5        0.0000 
     41 CA         76.6450   47.9410    4.8575 C.3       4 GLC5        0.0000 
     42 CA         76.0440   46.2230    6.1570 C.3       8 GLP5        0.0000 
     43 NZ         83.1210   55.3440   11.9695 N.4       3 LYC4        0.0000 
     44 NZ         84.0330   53.9820   12.3800 N.4      11 LYL4        0.0000 
     45 NZ         82.2090   56.7060   11.5590 N.4       7 LYP4        0.0000 
     46 N          83.1210   55.3440   11.9695 N.am      2 SEC2        0.0000 
     47 N          84.0330   53.9820   12.3800 N.am     10 SEL2        0.0000 
     48 N          82.2090   56.7060   11.5590 N.am      6 SEP2        0.0000 
     49 N          83.2685   53.7940   13.5380 N.am      2 SEC2        0.0000 
     50 N          82.5040   53.6060   14.6960 N.am      6 SEP2        0.0000 
     51 CA         86.8035   48.1895   12.2475 C.3       4 GLC5        0.0000 
     52 CA         86.2100   49.6780   13.6880 C.3      12 GLL5        0.0000 
     53 CA         87.3970   46.7010   10.8070 C.3       8 GLP5        0.0000 
     54 CA         87.8790   49.2155   14.5640 C.3       4 GLC5        0.0000 
     55 CA         89.5480   48.7530   15.4400 C.3       8 GLP5        0.0000 
     56 O          83.8135   47.0600   14.1715 O.2       1 ALC1        0.0000 
     57 O          85.0080   47.6650   14.0640 O.2       9 ALL1        0.0000 
     58 O          82.6190   46.4550   14.2790 O.2       5 ALP1        0.0000 
     59 CA         83.3865   50.6765   16.9270 C.3       4 GLC5        0.0000 
     60 CA         84.5820   49.6180   15.4970 C.3      12 GLL5        0.0000 
     61 CA         82.1910   51.7350   18.3570 C.3       8 GLP5        0.0000 
     62 CA         82.9305   50.7545   14.5185 C.3       4 GLC5        0.0000 
     63 CA         81.2790   51.8910   13.5400 C.3       8 GLP5        0.0000 
     64 N          84.0320   47.2680   17.0020 N.am      2 SEC2        0.0000 
     65 N          84.0120   48.6570   16.3380 N.am     10 SEL2        0.0000 
     66 N          84.0520   45.8790   17.6660 N.am      6 SEP2        0.0000 
     67 O          82.8305   48.3845   15.8445 O.2       1 ALC1        0.0000 
     68 O          84.0120   48.6570   16.3380 O.2       9 ALL1        0.0000 
     69 O          81.6490   48.1120   15.3510 O.2       5 ALP1        0.0000 
     70 O          83.3155   47.5560   15.3085 O.2       1 ALC1        0.0000 
     71 CA         87.7720   49.2730   15.7195 C.3       4 GLC5        0.0000 
     72 CA         85.9960   49.7930   15.9990 C.3      12 GLL5        0.0000 
     73 CA         86.1775   47.6120   16.4995 C.3       4 GLC5        0.0000 
     74 CA         86.3590   45.4310   17.0000 C.3       8 GLP5        0.0000 
     75 CA         84.5370   49.0735   18.8160 C.3       4 GLC5        0.0000 
     76 CA         86.3670   50.2500   18.3820 C.3      12 GLL5        0.0000 
     77 CA         82.7070   47.8970   19.2500 C.3       8 GLP5        0.0000 
     78 CA         84.1150   51.9135   17.6055 C.3       4 GLC5        0.0000 
     79 CA         86.0390   52.0920   16.8540 C.3      12 GLL5        0.0000 
     80 CA         81.1100   51.4935    7.7570 C.3       4 GLC5        0.0000 
     81 CA         79.3010   51.5926    4.0410 C.3       4 GLC5        0.0000 
     82 CA         84.6790   51.0630   19.2960 C.3       4 GLC5        0.0000 
     83 CA         82.9230   51.4170   19.6830 C.3       8 GLP5        0.0000 
     84 CA         86.3195   54.7560   18.6193 C.3       4 GLC5        0.0000 
     85 CA         86.4030   52.5420   19.1840 C.3      12 GLL5        0.0000 
     86 CA         86.3610   56.7370   18.7020 C.3       8 GLP5        0.0000 
     87 CA         84.6570   52.7595   19.4703 C.3       4 GLC5        0.0000 
     88 CA         86.1530   53.0080   17.8890 C.3      12 GLL5        0.0000 
     89 CA         83.0360   52.7440   20.4040 C.3       8 GLP5        0.0000 
     90 CA         85.1495   53.8645   16.4258 C.3       4 GLC5        0.0000 
     91 CA         84.2030   55.1790   15.4800 C.3       8 GLP5        0.0000 
@<TRIPOS>BOND
@<TRIPOS>SUBSTRUCTURE
     1 ALC1       18 GROUP        1 X    ALC  0     ROOT ALC X 1
     2 SEC2        1 GROUP        1 X    SEC  0     **** SEC X 2
     3 LYC4       43 GROUP        1 X    LYC  0     **** LYC X 4
     4 GLC5        6 GROUP        1 X    GLC  0     **** GLC X 6
     5 ALP1       20 GROUP        1 Y    ALP  0     ROOT ALP Y 8
     6 SEP2        3 GROUP        1 Y    SEP  0     **** SEP Y 9
     7 LYP4       45 GROUP        1 Y    LYP  0     **** LYP Y 11
     8 GLP5        8 GROUP        1 Y    GLP  0     **** GLP Y 13
     9 ALL1       19 GROUP        1 Z    ALL  0     ROOT ALL Z 15
    10 SEL2        2 GROUP        1 Z    SEL  0     **** SEL Z 16
    11 LYL4       44 GROUP        1 Z    LYL  0     **** LYL Z 18
    12 GLL5        7 GROUP        1 Z    GLL  0     **** GLL Z 20
@<TRIPOS>SET

