#    Name: 2g8y_NAD_2_ligand
#    Modification time : Tue Mar 25 13:46:45 2014

@<TRIPOS>MOLECULE
2g8y_NAD_2_ligand
   70    74     1     0     0
SMALL
NO_CHARGES


@<TRIPOS>ATOM
      1 PA         83.9290   52.0830    9.2170 P.3       1 NAD1002     0.0000 
      2 O1A        83.8700   53.4970    8.7630 O.co2     1 NAD1002     0.0000 
      3 O2A        84.9080   51.1910    8.5670 O.co2     1 NAD1002     0.0000 
      4 O5B        82.4500   51.4520    9.0690 O.3       1 NAD1002     0.0000 
      5 C5B        82.2720   50.0620    9.1980 C.3       1 NAD1002     0.0000 
      6 C4B        80.7840   49.7540    9.0780 C.3       1 NAD1002     0.0000 
      7 O4B        80.2690   50.2670    7.8550 O.3       1 NAD1002     0.0000 
      8 C3B        80.5890   48.2320    9.0370 C.3       1 NAD1002     0.0000 
      9 O3B        79.3070   47.9360    9.5740 O.3       1 NAD1002     0.0000 
     10 C2B        80.6910   47.9360    7.5440 C.3       1 NAD1002     0.0000 
     11 O2B        80.1450   46.7030    7.1130 O.3       1 NAD1002     0.0000 
     12 C1B        79.9660   49.1650    7.0010 C.3       1 NAD1002     0.0000 
     13 N9A        80.3030   49.4710    5.5910 N.pl3     1 NAD1002     0.0000 
     14 C8A        81.5350   49.6850    5.0080 C.2       1 NAD1002     0.0000 
     15 N7A        81.3300   49.9430    3.6980 N.2       1 NAD1002     0.0000 
     16 C5A        79.9990   49.8960    3.4390 C.ar      1 NAD1002     0.0000 
     17 C6A        79.2470   50.0950    2.2730 C.ar      1 NAD1002     0.0000 
     18 N6A        79.8400   50.5000    1.1380 N.pl3     1 NAD1002     0.0000 
     19 N1A        77.8710   49.9740    2.3550 N.ar      1 NAD1002     0.0000 
     20 C2A        77.2460   49.6590    3.5580 C.ar      1 NAD1002     0.0000 
     21 N3A        77.9740   49.4770    4.7150 N.ar      1 NAD1002     0.0000 
     22 C4A        79.3350   49.5930    4.6320 C.ar      1 NAD1002     0.0000 
     23 O3         84.1420   51.9510   10.8270 O.3       1 NAD1002     0.0000 
     24 PN         84.9340   52.9420   11.8470 P.3       1 NAD1002     0.0000 
     25 O1N        84.0330   53.9820   12.3800 O.co2     1 NAD1002     0.0000 
     26 O2N        86.1730   53.4320   11.2120 O.co2     1 NAD1002     0.0000 
     27 O5D        85.3160   51.8190   12.9360 O.3       1 NAD1002     0.0000 
     28 C5D        86.1780   50.7520   12.5900 C.3       1 NAD1002     0.0000 
     29 C4D        86.2100   49.6780   13.6880 C.3       1 NAD1002     0.0000 
     30 O4D        86.7580   50.2270   14.8720 O.3       1 NAD1002     0.0000 
     31 C3D        84.8570   49.0840   14.0900 C.3       1 NAD1002     0.0000 
     32 O3D        85.0080   47.6650   14.0640 O.3       1 NAD1002     0.0000 
     33 C2D        84.5820   49.6180   15.4970 C.3       1 NAD1002     0.0000 
     34 O2D        84.0120   48.6570   16.3380 O.3       1 NAD1002     0.0000 
     35 C1D        85.9960   49.7930   15.9990 C.3       1 NAD1002     0.0000 
     36 N1N        86.1280   50.7380   17.1130 N.pl3     1 NAD1002     0.0000 
     37 C2N        86.3670   50.2500   18.3820 C.ar      1 NAD1002     0.0000 
     38 C3N        86.5030   51.1680   19.4360 C.ar      1 NAD1002     0.0000 
     39 C7N        86.7050   50.6940   20.8470 C.2       1 NAD1002     0.0000 
     40 O7N        86.8430   49.3310   21.1220 O.2       1 NAD1002     0.0000 
     41 N7N        86.7600   51.5750   21.8060 N.am      1 NAD1002     0.0000 
     42 C4N        86.4030   52.5420   19.1840 C.ar      1 NAD1002     0.0000 
     43 C5N        86.1530   53.0080   17.8890 C.ar      1 NAD1002     0.0000 
     44 C6N        86.0390   52.0920   16.8540 C.ar      1 NAD1002     0.0000 
     45 H          82.6107   49.6870   10.1681 H         1 NAD1002     0.0000 
     46 H          82.7906   49.5013    8.4150 H         1 NAD1002     0.0000 
     47 H          80.2712   50.1339    9.9250 H         1 NAD1002     0.0000 
     48 H          81.3940   47.7897    9.5373 H         1 NAD1002     0.0000 
     49 H          81.7380   48.0738    7.2801 H         1 NAD1002     0.0000 
     50 H          78.8867   48.9469    7.0675 H         1 NAD1002     0.0000 
     51 H          82.3735   49.6527    5.4639 H         1 NAD1002     0.0000 
     52 H          79.2467   50.5847    0.3375 H         1 NAD1002     0.0000 
     53 H          80.8219   50.6807    1.1948 H         1 NAD1002     0.0000 
     54 H          76.2125   49.5604    3.5790 H         1 NAD1002     0.0000 
     55 H          87.2171   51.0921   12.4367 H         1 NAD1002     0.0000 
     56 H          85.8655   50.2535   11.6558 H         1 NAD1002     0.0000 
     57 H          86.8424   48.8545   13.3455 H         1 NAD1002     0.0000 
     58 H          84.1286   49.4458   13.4234 H         1 NAD1002     0.0000 
     59 H          84.1245   50.5321   15.4522 H         1 NAD1002     0.0000 
     60 H          86.3540   48.8041   16.3063 H         1 NAD1002     0.0000 
     61 H          86.4445   49.2523   18.5607 H         1 NAD1002     0.0000 
     62 H          86.6815   52.5326   21.5288 H         1 NAD1002     0.0000 
     63 H          86.8756   51.2122   22.7307 H         1 NAD1002     0.0000 
     64 H          86.5141   53.2118   19.9561 H         1 NAD1002     0.0000 
     65 H          86.0567   54.0091   17.7139 H         1 NAD1002     0.0000 
     66 H          85.8875   52.4249   15.8896 H         1 NAD1002     0.0000 
     67 H          79.1152   46.9984    9.2840 H         1 NAD1002     0.0000 
     68 H          80.6316   46.0063    7.6401 H         1 NAD1002     0.0000 
     69 H          84.0809   47.3043   14.1657 H         1 NAD1002     0.0000 
     70 H          83.1273   48.4429   15.9239 H         1 NAD1002     0.0000 
@<TRIPOS>BOND
     1    2    1 ar   
     2    3    1 ar   
     3    4    1 1    
     4   23    1 1    
     5    5    4 1    
     6    6    5 1    
     7   45    5 1    
     8   46    5 1    
     9    7    6 1    
    10    8    6 1    
    11   47    6 1    
    12   12    7 1    
    13    9    8 1    
    14   10    8 1    
    15   48    8 1    
    16   67    9 1    
    17   11   10 1    
    18   12   10 1    
    19   49   10 1    
    20   68   11 1    
    21   13   12 1    
    22   50   12 1    
    23   14   13 1    
    24   22   13 1    
    25   15   14 2    
    26   51   14 1    
    27   16   15 1    
    28   17   16 ar   
    29   22   16 ar   
    30   18   17 1    
    31   19   17 ar   
    32   52   18 1    
    33   53   18 1    
    34   20   19 ar   
    35   21   20 ar   
    36   54   20 1    
    37   22   21 ar   
    38   24   23 1    
    39   25   24 ar   
    40   26   24 ar   
    41   27   24 1    
    42   28   27 1    
    43   29   28 1    
    44   55   28 1    
    45   56   28 1    
    46   30   29 1    
    47   31   29 1    
    48   57   29 1    
    49   35   30 1    
    50   32   31 1    
    51   33   31 1    
    52   58   31 1    
    53   69   32 1    
    54   34   33 1    
    55   35   33 1    
    56   59   33 1    
    57   70   34 1    
    58   36   35 1    
    59   60   35 1    
    60   37   36 ar   
    61   44   36 ar   
    62   38   37 ar   
    63   61   37 1    
    64   39   38 1    
    65   42   38 ar   
    66   40   39 2    
    67   41   39 am   
    68   62   41 1    
    69   63   41 1    
    70   43   42 ar   
    71   64   42 1    
    72   44   43 ar   
    73   65   43 1    
    74   66   44 1    
@<TRIPOS>SUBSTRUCTURE
     1 NAD1002     1 GROUP   
@<TRIPOS>SET

