#    Name: 3zsy_OM3_2_INTS_M
#    Modification time : Tue Mar 25 03:57:35 2014

@<TRIPOS>MOLECULE
3zsy_OM3_2_INTS_M
   69     0     9     0     0
SMALL
NO_CHARGES


@<TRIPOS>ATOM
      1 CA        -34.9240   35.8730  -17.7580 C.3       3 GLC5        0.0000 
      2 CA        -36.5180   34.5330  -17.8850 C.3       9 GLL5        0.0000 
      3 CA        -33.3300   37.2130  -17.6310 C.3       6 GLP5        0.0000 
      4 CA        -35.5215   36.2140  -16.6175 C.3       3 GLC5        0.0000 
      5 CA        -36.7540   34.4960  -16.5250 C.3       9 GLL5        0.0000 
      6 CA        -34.2890   37.9320  -16.7100 C.3       6 GLP5        0.0000 
      7 CA        -34.6525   33.4875   -9.5315 C.3       3 GLC5        0.0000 
      8 CA        -33.6220   32.7800  -11.1180 C.3       9 GLL5        0.0000 
      9 CA        -35.6830   34.1950   -7.9450 C.3       6 GLP5        0.0000 
     10 CA        -31.1410   33.2785  -13.5120 C.3       3 GLC5        0.0000 
     11 CA        -32.7570   34.3860  -12.7120 C.3       9 GLL5        0.0000 
     12 CA        -29.5250   32.1710  -14.3120 C.3       6 GLP5        0.0000 
     13 CA        -30.3815   34.1335  -13.1655 C.3       3 GLC5        0.0000 
     14 CA        -31.8410   34.7390  -11.7420 C.3       9 GLL5        0.0000 
     15 CA        -28.9220   33.5280  -14.5890 C.3       6 GLP5        0.0000 
     16 CA        -30.5850   30.5200  -13.5090 C.3       3 GLC5        0.0000 
     17 CA        -31.6450   28.8690  -12.7060 C.3       9 GLL5        0.0000 
     18 CA        -31.3465   25.9020  -14.1045 C.3       3 GLC5        0.0000 
     19 CA        -31.6560   27.7500  -13.7200 C.3       9 GLL5        0.0000 
     20 CA        -31.0370   24.0540  -14.4890 C.3       6 GLP5        0.0000 
     21 CA        -32.8275   29.0225   -9.9830 C.3       3 GLC5        0.0000 
     22 CA        -33.0500   28.9420  -12.1590 C.3       9 GLL5        0.0000 
     23 CA        -32.6050   29.1030   -7.8070 C.3       6 GLP5        0.0000 
     24 CA        -34.4165   29.6425  -10.5745 C.3       3 GLC5        0.0000 
     25 CA        -35.7830   30.3430   -8.9900 C.3       6 GLP5        0.0000 
     26 CA        -31.8905   26.5340  -15.8735 C.3       3 GLC5        0.0000 
     27 CA        -32.6040   28.0850  -14.8580 C.3       9 GLL5        0.0000 
     28 CA        -31.1770   24.9830  -16.8890 C.3       6 GLP5        0.0000 
     29 CA        -28.7410   34.3780  -10.4065 C.3       3 GLC5        0.0000 
     30 CA        -30.2490   35.6310  -10.5730 C.3       9 GLL5        0.0000 
     31 CA        -27.2330   33.1250  -10.2400 C.3       6 GLP5        0.0000 
     32 CA        -28.8175   36.7685  -10.4250 C.3       3 GLC5        0.0000 
     33 CA        -27.3860   37.9060  -10.2770 C.3       6 GLP5        0.0000 
     34 CA        -35.1800   27.1565  -13.1240 C.3       3 GLC5        0.0000 
     35 CA        -33.9950   28.4330  -14.3790 C.3       9 GLL5        0.0000 
     36 CA        -36.3650   25.8800  -11.8690 C.3       6 GLP5        0.0000 
     37 CA        -36.0680   34.2665  -10.0725 C.3       3 GLC5        0.0000 
     38 CA        -36.4530   34.3380  -12.2000 C.3       9 GLL5        0.0000 
     39 O         -34.1115   30.4715  -16.8120 O.2       1 ALC1        0.0000 
     40 O         -35.0030   30.1970  -15.8460 O.2       7 ALL1        0.0000 
     41 O         -33.2200   30.7460  -17.7780 O.2       4 ALP1        0.0000 
     42 N         -30.4380   34.9795  -14.0000 N.am      2 SEC2        0.0000 
     43 N         -31.6100   35.5110  -14.4600 N.am      8 SEL2        0.0000 
     44 N         -29.2660   34.4480  -13.5400 N.am      5 SEP2        0.0000 
     45 N         -31.4015   36.4995  -15.4515 N.am      2 SEC2        0.0000 
     46 N         -31.1930   37.4880  -16.4430 N.am      5 SEP2        0.0000 
     47 N         -33.5385   35.4415  -16.0435 N.am      2 SEC2        0.0000 
     48 N         -33.7680   35.1020  -14.7380 N.am      8 SEL2        0.0000 
     49 N         -33.3090   35.7810  -17.3490 N.am      5 SEP2        0.0000 
     50 CA        -34.6490   31.6565  -19.1560 C.3       3 GLC5        0.0000 
     51 CA        -36.1800   33.3760  -18.5360 C.3       9 GLL5        0.0000 
     52 CA        -33.1660   30.5210  -20.1420 C.3       6 GLP5        0.0000 
     53 CA        -34.4520   33.7227  -18.0057 C.3       3 GLC5        0.0000 
     54 CA        -32.5550   33.4910  -17.8010 C.3       6 GLP5        0.0000 
     55 CA        -34.3773   32.8383  -17.4625 C.3       3 GLC5        0.0000 
     56 CA        -36.0840   32.2080  -17.8040 C.3       9 GLL5        0.0000 
     57 CA        -34.4678   31.6543   -9.8165 C.3       3 GLC5        0.0000 
     58 CA        -33.3790   33.9900   -8.6690 C.3       3 GLC5        0.0000 
     59 CA        -32.6830   33.1510  -10.1680 C.3       9 GLL5        0.0000 
     60 CA        -34.5140   34.3310   -6.9950 C.3       6 GLP5        0.0000 
     61 CA        -30.4735   33.1570   -9.2850 C.3       3 GLC5        0.0000 
     62 CA        -28.7030   32.6650   -8.2270 C.3       6 GLP5        0.0000 
     63 CA        -29.5598   28.7392  -13.0620 C.3       3 GLC5        0.0000 
     64 CA        -27.4690   29.1690  -12.9110 C.3       6 GLP5        0.0000 
     65 CA        -30.8957   28.5348  -14.8810 C.3       3 GLC5        0.0000 
     66 CA        -30.1410   28.7600  -16.5490 C.3       6 GLP5        0.0000 
     67 CA        -32.2076   26.8734  -11.5800 C.3       3 GLC5        0.0000 
     68 CA        -32.0650   25.1210  -10.4740 C.3       6 GLP5        0.0000 
     69 CA        -31.7203   28.5095  -15.5837 C.3       3 GLC5        0.0000 
@<TRIPOS>BOND
@<TRIPOS>SUBSTRUCTURE
     1 ALC1       39 GROUP        1 X    ALC  0     ROOT ALC X 1
     2 SEC2       42 GROUP        1 X    SEC  0     **** SEC X 2
     3 GLC5        1 GROUP        1 X    GLC  0     **** GLC X 6
     4 ALP1       41 GROUP        1 Y    ALP  0     ROOT ALP Y 8
     5 SEP2       44 GROUP        1 Y    SEP  0     **** SEP Y 9
     6 GLP5        3 GROUP        1 Y    GLP  0     **** GLP Y 13
     7 ALL1       40 GROUP        1 Z    ALL  0     ROOT ALL Z 15
     8 SEL2       43 GROUP        1 Z    SEL  0     **** SEL Z 16
     9 GLL5        2 GROUP        1 Z    GLL  0     **** GLL Z 20
@<TRIPOS>SET

