#    Name: 3zsy_OM3_2_ligand
#    Modification time : Tue Mar 25 03:57:35 2014

@<TRIPOS>MOLECULE
3zsy_OM3_2_ligand
   62    65     1     0     0
SMALL
NO_CHARGES


@<TRIPOS>ATOM
      1 C1        -36.1800   33.3760  -18.5360 C.ar      1 OM31214     0.0000 
      2 C2        -36.5180   34.5330  -17.8850 C.ar      1 OM31214     0.0000 
      3 C3        -36.0840   32.2080  -17.8040 C.ar      1 OM31214     0.0000 
      4 C4        -36.7540   34.4960  -16.5250 C.ar      1 OM31214     0.0000 
      5 C5        -33.6220   32.7800  -11.1180 C.ar      1 OM31214     0.0000 
      6 C6        -32.6830   33.1510  -10.1680 C.ar      1 OM31214     0.0000 
      7 C7        -36.3150   32.1630  -16.4440 C.ar      1 OM31214     0.0000 
      8 C8        -32.7570   34.3860  -12.7120 C.ar      1 OM31214     0.0000 
      9 C9        -36.6620   33.3330  -15.7950 C.ar      1 OM31214     0.0000 
     10 C10       -33.6650   33.3790  -12.3690 C.ar      1 OM31214     0.0000 
     11 C11       -31.8050   34.1470  -10.5180 C.ar      1 OM31214     0.0000 
     12 C12       -31.8410   34.7390  -11.7420 C.ar      1 OM31214     0.0000 
     13 C13       -36.1900   30.8650  -15.7150 C.2       1 OM31214     0.0000 
     14 C14       -32.7230   35.0590  -14.0510 C.2       1 OM31214     0.0000 
     15 C15       -31.6450   28.8690  -12.7060 C.3       1 OM31214     0.0000 
     16 C16       -31.6560   27.7500  -13.7200 C.3       1 OM31214     0.0000 
     17 C17       -33.0500   28.9420  -12.1590 C.3       1 OM31214     0.0000 
     18 C18       -32.6040   28.0850  -14.8580 C.3       1 OM31214     0.0000 
     19 C19       -33.9570   29.4440  -13.2620 C.3       1 OM31214     0.0000 
     20 C20       -30.2490   35.6310  -10.5730 C.3       1 OM31214     0.0000 
     21 C21       -33.9950   28.4330  -14.3790 C.3       1 OM31214     0.0000 
     22 C22       -36.4530   34.3380  -12.2000 C.3       1 OM31214     0.0000 
     23 C23       -36.9440   33.3910  -14.3300 C.3       1 OM31214     0.0000 
     24 C24       -34.7270   32.8860  -13.3080 C.3       1 OM31214     0.0000 
     25 C25       -34.9490   28.7950  -15.5080 C.3       1 OM31214     0.0000 
     26 N26       -35.0030   30.1970  -15.8460 N.am      1 OM31214     0.0000 
     27 N27       -35.8350   33.8960  -13.4790 N.4       1 OM31214     0.0000 
     28 O28       -31.6100   35.5110  -14.4600 O.co2     1 OM31214     0.0000 
     29 O29       -37.0770   30.4360  -14.9980 O.2       1 OM31214     0.0000 
     30 O30       -33.7680   35.1020  -14.7380 O.co2     1 OM31214     0.0000 
     31 O31       -30.8300   34.6490   -9.7130 O.3       1 OM31214     0.0000 
     32 O32       -30.8810   35.7050  -11.8560 O.3       1 OM31214     0.0000 
     33 H         -36.0011   33.3711  -19.5440 H         1 OM31214     0.0000 
     34 H         -36.5962   35.4201  -18.3980 H         1 OM31214     0.0000 
     35 H         -35.8254   31.3213  -18.3019 H         1 OM31214     0.0000 
     36 H         -37.0119   35.3851  -16.0336 H         1 OM31214     0.0000 
     37 H         -34.3109   32.0351  -10.8882 H         1 OM31214     0.0000 
     38 H         -32.6514   32.7052   -9.2616 H         1 OM31214     0.0000 
     39 H         -31.3927   29.7935  -13.1869 H         1 OM31214     0.0000 
     40 H         -30.9580   28.6376  -11.9160 H         1 OM31214     0.0000 
     41 H         -31.9803   26.8270  -13.2421 H         1 OM31214     0.0000 
     42 H         -30.6526   27.6079  -14.1182 H         1 OM31214     0.0000 
     43 H         -33.0816   29.6276  -11.3241 H         1 OM31214     0.0000 
     44 H         -33.3712   27.9589  -11.8454 H         1 OM31214     0.0000 
     45 H         -32.6600   27.2256  -15.5425 H         1 OM31214     0.0000 
     46 H         -32.1940   28.9315  -15.4285 H         1 OM31214     0.0000 
     47 H         -33.5784   30.3907  -13.6381 H         1 OM31214     0.0000 
     48 H         -34.9588   29.5907  -12.8671 H         1 OM31214     0.0000 
     49 H         -29.1558   35.4209  -10.7036 H         1 OM31214     0.0000 
     50 H         -30.2836   36.6360  -10.0780 H         1 OM31214     0.0000 
     51 H         -34.4066   27.4768  -13.9179 H         1 OM31214     0.0000 
     52 H         -37.2389   32.3709  -13.9788 H         1 OM31214     0.0000 
     53 H         -37.8509   34.0237  -14.1620 H         1 OM31214     0.0000 
     54 H         -35.1496   31.9486  -12.9237 H         1 OM31214     0.0000 
     55 H         -34.2797   32.6721  -14.2874 H         1 OM31214     0.0000 
     56 H         -35.9640   28.4194  -15.2242 H         1 OM31214     0.0000 
     57 H         -34.6599   28.1859  -16.4010 H         1 OM31214     0.0000 
     58 H         -34.1540   30.6502  -16.1732 H         1 OM31214     0.0000 
     59 H         -35.4219   34.7903  -13.9759 H         1 OM31214     0.0000 
     60 H         -35.7709   34.6949  -11.5618 H         1 OM31214     0.0000 
     61 H         -37.1270   35.0626  -12.3441 H         1 OM31214     0.0000 
     62 H         -36.9240   33.5876  -11.7363 H         1 OM31214     0.0000 
@<TRIPOS>BOND
     1    2    1 ar   
     2    3    1 ar   
     3   33    1 1    
     4    4    2 ar   
     5   34    2 1    
     6    7    3 ar   
     7   35    3 1    
     8    9    4 ar   
     9   36    4 1    
    10    6    5 ar   
    11   10    5 ar   
    12   37    5 1    
    13   11    6 ar   
    14   38    6 1    
    15    9    7 ar   
    16   13    7 1    
    17   10    8 ar   
    18   12    8 ar   
    19   14    8 1    
    20   23    9 1    
    21   24   10 1    
    22   12   11 ar   
    23   31   11 1    
    24   32   12 1    
    25   26   13 am   
    26   29   13 2    
    27   28   14 ar   
    28   30   14 ar   
    29   16   15 1    
    30   17   15 1    
    31   39   15 1    
    32   40   15 1    
    33   18   16 1    
    34   41   16 1    
    35   42   16 1    
    36   19   17 1    
    37   43   17 1    
    38   44   17 1    
    39   21   18 1    
    40   45   18 1    
    41   46   18 1    
    42   21   19 1    
    43   47   19 1    
    44   48   19 1    
    45   31   20 1    
    46   32   20 1    
    47   49   20 1    
    48   50   20 1    
    49   25   21 1    
    50   51   21 1    
    51   27   22 1    
    52   60   22 1    
    53   61   22 1    
    54   62   22 1    
    55   27   23 1    
    56   52   23 1    
    57   53   23 1    
    58   27   24 1    
    59   54   24 1    
    60   55   24 1    
    61   26   25 1    
    62   56   25 1    
    63   57   25 1    
    64   58   26 1    
    65   59   27 1    
@<TRIPOS>SUBSTRUCTURE
     1 OM31214     1 GROUP   
@<TRIPOS>SET

