#    Name: 3nwb_659_1_INTS_M
#    Modification time : Tue Mar 25 02:47:59 2014

@<TRIPOS>MOLECULE
3nwb_659_1_INTS_M
  125     0    12     0     0
SMALL
NO_CHARGES


@<TRIPOS>ATOM
      1 CA         -2.5045   21.9125   12.9085 C.3       4 GLC5        0.0000 
      2 CA         -3.1670   20.6380   14.4800 C.3      12 GLL5        0.0000 
      3 CA         -1.8420   23.1870   11.3370 C.3       8 GLP5        0.0000 
      4 CA         -1.8475   22.3655   16.2535 C.3       4 GLC5        0.0000 
      5 CA         -3.7600   21.3440   15.6780 C.3      12 GLL5        0.0000 
      6 CA          0.0650   23.3870   16.8290 C.3       8 GLP5        0.0000 
      7 CA         -6.4310   19.8835   15.3460 C.3       4 GLC5        0.0000 
      8 CA         -5.0940   21.5650   15.1430 C.3      12 GLL5        0.0000 
      9 CA         -7.7680   18.2020   15.5490 C.3       8 GLP5        0.0000 
     10 CA         -3.3395   22.6325   12.5715 C.3       4 GLC5        0.0000 
     11 CA         -4.8370   22.0780   13.8060 C.3      12 GLL5        0.0000 
     12 CA         -6.7730   23.0835   13.9295 C.3       4 GLC5        0.0000 
     13 CA         -8.7090   24.0890   14.0530 C.3       8 GLP5        0.0000 
     14 CA         -4.4560   21.2555   11.7665 C.3       4 GLC5        0.0000 
     15 CA         -4.0750   20.4330    9.7270 C.3       8 GLP5        0.0000 
     16 CA         -2.1030   20.8315   17.8040 C.3       4 GLC5        0.0000 
     17 CA         -3.7160   20.4900   16.7630 C.3      12 GLL5        0.0000 
     18 CA         -0.4900   21.1730   18.8450 C.3       8 GLP5        0.0000 
     19 CA         -3.9005   21.2105   18.2435 C.3       4 GLC5        0.0000 
     20 CA         -4.0850   21.9310   19.7240 C.3       8 GLP5        0.0000 
     21 CA         -5.2465   18.9535   16.4170 C.3       4 GLC5        0.0000 
     22 CA         -6.7770   17.4170   16.0710 C.3       8 GLP5        0.0000 
     23 O          -5.3345   23.6435   15.9100 O.2       1 ALC1        0.0000 
     24 O          -5.8360   22.4750   15.8990 O.2       9 ALL1        0.0000 
     25 O          -4.8330   24.8120   15.9210 O.2       5 ALP1        0.0000 
     26 CA         -4.7775   17.8540   14.8710 C.3       4 GLC5        0.0000 
     27 CA         -3.5020   19.1660   14.4640 C.3      12 GLL5        0.0000 
     28 CA         -6.0530   16.5420   15.2780 C.3       8 GLP5        0.0000 
     29 CA          3.4085   11.4315   14.8540 C.3       4 GLC5        0.0000 
     30 CA          1.8140   12.7340   14.8920 C.3      12 GLL5        0.0000 
     31 CA          5.0030   10.1290   14.8160 C.3       8 GLP5        0.0000 
     32 CA         -0.9420   11.4515   14.0425 C.3       4 GLC5        0.0000 
     33 CA         -0.5760   12.9510   15.1280 C.3      12 GLL5        0.0000 
     34 CA         -1.3080    9.9520   12.9570 C.3       8 GLP5        0.0000 
     35 CA         -0.2815   12.2195   13.3360 C.3       4 GLC5        0.0000 
     36 CA         -0.5610   14.1130   14.4010 C.3      12 GLL5        0.0000 
     37 CA         -0.0020   10.3260   12.2710 C.3       8 GLP5        0.0000 
     38 CA          1.1540   15.1940   15.7375 C.3       4 GLC5        0.0000 
     39 CA          0.6540   14.6300   13.9170 C.3      12 GLL5        0.0000 
     40 CA          1.6540   15.7580   17.5580 C.3       8 GLP5        0.0000 
     41 CA          3.2945    8.4670   16.4420 C.3       4 GLC5        0.0000 
     42 CA          1.3970    8.7620   16.5680 C.3      12 GLL5        0.0000 
     43 CA          5.1920    8.1720   16.3160 C.3       8 GLP5        0.0000 
     44 CA          0.6860   10.1350   14.0590 C.3       4 GLC5        0.0000 
     45 CA          1.3740    9.9440   15.8470 C.3      12 GLL5        0.0000 
     46 CA          3.1885   10.0365   15.3315 C.3       4 GLC5        0.0000 
     47 Zn          1.7325   15.8370   12.6830 Zn        3 ZIC7        0.0000 
     48 Zn          0.7860   15.7610   13.1340 Zn       11 ZIL7        0.0000 
     49 Zn          2.6790   15.9130   12.2320 Zn        7 ZIP7        0.0000 
     50 N          -0.0025   15.6425   11.9010 N.am      2 SEC2        0.0000 
     51 N           0.7860   15.7610   13.1340 N.am     10 SEL2        0.0000 
     52 N          -0.7910   15.5240   10.6680 N.am      6 SEP2        0.0000 
     53 Zn          2.8460   15.1830   12.9535 Zn        3 ZIC7        0.0000 
     54 Zn          3.0130   14.4530   13.6750 Zn       11 ZIL7        0.0000 
     55 N           3.0955   13.5095   12.6315 N.am      2 SEC2        0.0000 
     56 N           3.0130   14.4530   13.6750 N.am     10 SEL2        0.0000 
     57 N           3.1780   12.5660   11.5880 N.am      6 SEP2        0.0000 
     58 O           3.7840   14.3755   14.6490 O.2       1 ALC1        0.0000 
     59 O           3.0130   14.4530   13.6750 O.2       9 ALL1        0.0000 
     60 O           4.5550   14.2980   15.6230 O.2       5 ALP1        0.0000 
     61 CA         -2.0300   16.6675   15.4645 C.3       4 GLC5        0.0000 
     62 CA         -3.1000   16.8630   13.6920 C.3      12 GLL5        0.0000 
     63 CA         -0.9600   16.4720   17.2370 C.3       8 GLP5        0.0000 
     64 CA         -2.2590   15.5240   12.2660 C.3       4 GLC5        0.0000 
     65 CA         -1.4180   14.1850   10.8400 C.3       8 GLP5        0.0000 
     66 CA         -4.0485   22.9895   11.6165 C.3       4 GLC5        0.0000 
     67 CA         -6.2550   22.7920   11.8960 C.3      12 GLL5        0.0000 
     68 CA         -7.4820   23.4405   12.9745 C.3       4 GLC5        0.0000 
     69 N          -6.2995   25.2200   12.7660 N.am      2 SEC2        0.0000 
     70 N          -5.9360   24.0860   11.7750 N.am     10 SEL2        0.0000 
     71 N          -6.6630   26.3540   13.7570 N.am      6 SEP2        0.0000 
     72 CA         -5.3665   26.3470    9.7160 C.3       4 GLC5        0.0000 
     73 CA         -6.5080   24.7620   10.7430 C.3      12 GLL5        0.0000 
     74 CA         -4.2250   27.9320    8.6890 C.3       8 GLP5        0.0000 
     75 CA         -5.4525   25.9190   12.0020 C.3       4 GLC5        0.0000 
     76 CA         -4.3970   27.0760   13.2610 C.3       8 GLP5        0.0000 
     77 CA         -7.7180   25.1170   12.1210 C.3       4 GLC5        0.0000 
     78 CA         -8.9280   25.4720   13.4990 C.3       8 GLP5        0.0000 
     79 CA         -8.2585   25.6640   10.3080 C.3       4 GLC5        0.0000 
     80 CA        -10.0090   26.5660    9.8730 C.3       8 GLP5        0.0000 
     81 N          -8.0290   25.0585    8.8975 N.am      2 SEC2        0.0000 
     82 N          -7.3510   24.1660    9.8510 N.am     10 SEL2        0.0000 
     83 N          -8.7070   25.9510    7.9440 N.am      6 SEP2        0.0000 
     84 CA         -8.8480   24.7320    9.9365 C.3       4 GLC5        0.0000 
     85 CA         -7.6870   22.8980   10.0000 C.3      12 GLL5        0.0000 
     86 CA         -7.4735   23.9010    8.1440 C.3       4 GLC5        0.0000 
     87 CA         -7.2600   24.9040    6.2880 C.3       8 GLP5        0.0000 
     88 CA         -6.6175   21.8935    8.8330 C.3       4 GLC5        0.0000 
     89 CA         -5.5480   20.8890    7.6660 C.3       8 GLP5        0.0000 
     90 O          -8.2695   23.0380    7.7965 O.2       1 ALC1        0.0000 
     91 O          -8.6030   22.3980    9.0730 O.2       9 ALL1        0.0000 
     92 O          -7.9360   23.6780    6.5200 O.2       5 ALP1        0.0000 
     93 O          -9.9230   22.8475    8.2360 O.2       1 ALC1        0.0000 
     94 O         -11.2430   23.2970    7.3990 O.2       5 ALP1        0.0000 
     95 CA         -7.3295   20.9690    8.4065 C.3       4 GLC5        0.0000 
     96 CA         -9.1110   21.0490    9.1470 C.3      12 GLL5        0.0000 
     97 CA         -8.9765   19.6740   10.6385 C.3       4 GLC5        0.0000 
     98 CA         -8.8420   18.2990   12.1300 C.3       8 GLP5        0.0000 
     99 CA         -9.2915   19.4420    8.3080 C.3       4 GLC5        0.0000 
    100 CA         -9.4720   17.8350    7.4690 C.3       8 GLP5        0.0000 
    101 CA         -3.2817   19.5845   12.3550 C.3       4 GLC5        0.0000 
    102 CA         -3.2290   19.2670   10.2380 C.3       8 GLP5        0.0000 
    103 CA         -4.0870   22.2893   17.2767 C.3       4 GLC5        0.0000 
    104 CA         -3.7470   23.1240   19.1430 C.3       8 GLP5        0.0000 
    105 CA         -2.7234   19.3407   16.8095 C.3       4 GLC5        0.0000 
    106 CA         -1.8570   17.9410   17.6980 C.3       8 GLP5        0.0000 
    107 CA         -2.4835   18.3340   15.9210 C.3       4 GLC5        0.0000 
    108 CA          1.4345   14.2667   16.2639 C.3       4 GLC5        0.0000 
    109 CA          0.6040   12.2180   15.4080 C.3      12 GLL5        0.0000 
    110 CA          0.6065   11.5508   13.6204 C.3       4 GLC5        0.0000 
    111 CA          1.8380   13.9320   14.1710 C.3      12 GLL5        0.0000 
    112 CA         -0.7642   15.0020   16.0007 C.3       4 GLC5        0.0000 
    113 CA         -0.6857   14.2782   12.4995 C.3       4 GLC5        0.0000 
    114 CA         -0.5963   10.4237   14.8225 C.3       4 GLC5        0.0000 
    115 CA          0.5670   10.9790   16.1650 C.3      12 GLL5        0.0000 
    116 CA          1.8397    8.1035   14.7832 C.3       4 GLC5        0.0000 
    117 CA          2.2940    6.8540   13.3590 C.3       8 GLP5        0.0000 
    118 CA         -3.0690   18.4213   11.9980 C.3       4 GLC5        0.0000 
    119 CA         -4.6050   17.0042   13.8255 C.3       4 GLC5        0.0000 
    120 CA         -2.7180   18.2880   13.8240 C.3      12 GLL5        0.0000 
    121 CA         -6.3010   16.4330   13.8930 C.3       8 GLP5        0.0000 
    122 CA         -8.5990   22.6940   11.9243 C.3       4 GLC5        0.0000 
    123 CA         -7.1050   22.1580   11.0350 C.3      12 GLL5        0.0000 
    124 CA         -9.8020   22.8600   13.3310 C.3       8 GLP5        0.0000 
    125 CA         -5.3775   21.4540   10.5963 C.3       4 GLC5        0.0000 
@<TRIPOS>BOND
@<TRIPOS>SUBSTRUCTURE
     1 ALC1       23 GROUP        1 X    ALC  0     ROOT ALC X 1
     2 SEC2       50 GROUP        1 X    SEC  0     **** SEC X 2
     3 ZIC7       47 GROUP        1 X    ZIC  0     **** ZIC X 5
     4 GLC5        1 GROUP        1 X    GLC  0     **** GLC X 6
     5 ALP1       25 GROUP        1 Y    ALP  0     ROOT ALP Y 8
     6 SEP2       52 GROUP        1 Y    SEP  0     **** SEP Y 9
     7 ZIP7       49 GROUP        1 Y    ZIP  0     **** ZIP Y 12
     8 GLP5        3 GROUP        1 Y    GLP  0     **** GLP Y 13
     9 ALL1       24 GROUP        1 Z    ALL  0     ROOT ALL Z 15
    10 SEL2       51 GROUP        1 Z    SEL  0     **** SEL Z 16
    11 ZIL7       48 GROUP        1 Z    ZIL  0     **** ZIL Z 19
    12 GLL5        2 GROUP        1 Z    GLL  0     **** GLL Z 20
@<TRIPOS>SET

