#    Name: 3nwb_659_1_ligand
#    Modification time : Tue Mar 25 02:47:59 2014

@<TRIPOS>MOLECULE
3nwb_659_1_ligand
   62    66     1     0     0
SMALL
NO_CHARGES


@<TRIPOS>ATOM
      1 C1         -3.1670   20.6380   14.4800 C.3       1 659226      0.0000 
      2 C2         -3.7600   21.3440   15.6780 C.3       1 659226      0.0000 
      3 C3         -5.0940   21.5650   15.1430 C.3       1 659226      0.0000 
      4 C4         -4.8370   22.0780   13.8060 C.3       1 659226      0.0000 
      5 O5         -3.6750   21.3130   13.3460 O.3       1 659226      0.0000 
      6 F6         -3.7160   20.4900   16.7630 F         1 659226      0.0000 
      7 O7         -5.8360   22.4750   15.8990 O.3       1 659226      0.0000 
      8 C8         -3.5020   19.1660   14.4640 C.2       1 659226      0.0000 
      9 C9          1.8380   13.9320   14.1710 C.ar      1 659226      0.0000 
     10 C10         1.8140   12.7340   14.8920 C.ar      1 659226      0.0000 
     11 C11         0.6040   12.2180   15.4080 C.ar      1 659226      0.0000 
     12 C12        -0.5760   12.9510   15.1280 C.ar      1 659226      0.0000 
     13 C13        -0.5610   14.1130   14.4010 C.ar      1 659226      0.0000 
     14 C14         0.6540   14.6300   13.9170 C.ar      1 659226      0.0000 
     15 C15         0.5670   10.9790   16.1650 C.ar      1 659226      0.0000 
     16 C16        -0.3360   10.8120   17.2110 C.ar      1 659226      0.0000 
     17 C17        -0.3490    9.6580   17.9310 C.ar      1 659226      0.0000 
     18 C18         0.5080    8.6150   17.5970 C.ar      1 659226      0.0000 
     19 C19         1.3970    8.7620   16.5680 C.ar      1 659226      0.0000 
     20 C20         1.3740    9.9440   15.8470 C.ar      1 659226      0.0000 
     21 O21         0.7860   15.7610   13.1340 O.3       1 659226      0.0000 
     22 O22         3.0130   14.4530   13.6750 O.3       1 659226      0.0000 
     23 F23         0.5060    7.4920   18.3100 F         1 659226      0.0000 
     24 C24        -1.8640   14.7980   14.2290 C.2       1 659226      0.0000 
     25 N25        -1.8380   16.0890   13.7970 N.am      1 659226      0.0000 
     26 O26        -2.9110   14.2920   14.5160 O.2       1 659226      0.0000 
     27 C27        -3.1000   16.8630   13.6920 C.3       1 659226      0.0000 
     28 C28        -2.7180   18.2880   13.8240 C.2       1 659226      0.0000 
     29 N29        -5.8610   21.8580   12.8170 N.pl3     1 659226      0.0000 
     30 N30        -7.2260   20.8400   11.4210 N.2       1 659226      0.0000 
     31 C31        -6.4270   20.6750   12.5050 C.2       1 659226      0.0000 
     32 C32        -7.1050   22.1580   11.0350 C.ar      1 659226      0.0000 
     33 C33        -6.2550   22.7920   11.8960 C.ar      1 659226      0.0000 
     34 N34        -5.9360   24.0860   11.7750 N.ar      1 659226      0.0000 
     35 C35        -6.5080   24.7620   10.7430 C.ar      1 659226      0.0000 
     36 N36        -7.3510   24.1660    9.8510 N.ar      1 659226      0.0000 
     37 C37        -7.6870   22.8980   10.0000 C.ar      1 659226      0.0000 
     38 N38        -8.6030   22.3980    9.0730 N.pl3     1 659226      0.0000 
     39 C39        -9.1110   21.0490    9.1470 C.3       1 659226      0.0000 
     40 H          -2.0871   20.7551   14.5373 H         1 659226      0.0000 
     41 H          -3.2523   22.2568   15.7816 H         1 659226      0.0000 
     42 H          -5.5875   20.6059   15.0453 H         1 659226      0.0000 
     43 H          -4.5449   23.1119   13.8474 H         1 659226      0.0000 
     44 H          -4.3564   18.9083   14.9711 H         1 659226      0.0000 
     45 H           2.6895   12.2144   15.0530 H         1 659226      0.0000 
     46 H          -1.4778   12.5771   15.4966 H         1 659226      0.0000 
     47 H          -0.9962   11.5792   17.4314 H         1 659226      0.0000 
     48 H          -0.9937    9.5425   18.7323 H         1 659226      0.0000 
     49 H           2.0625    8.0251   16.3317 H         1 659226      0.0000 
     50 H           2.0199   10.0252   15.0163 H         1 659226      0.0000 
     51 H          -0.9803   16.5724   13.5330 H         1 659226      0.0000 
     52 H          -3.7727   16.5831   14.4882 H         1 659226      0.0000 
     53 H          -3.5615   16.6892   12.7320 H         1 659226      0.0000 
     54 H          -1.8158   18.5506   13.3924 H         1 659226      0.0000 
     55 H          -6.2889   19.8400   12.9752 H         1 659226      0.0000 
     56 H          -6.2924   25.7889   10.6257 H         1 659226      0.0000 
     57 H          -8.9407   22.9975    8.3011 H         1 659226      0.0000 
     58 H          -8.3780   20.3720    9.0813 H         1 659226      0.0000 
     59 H          -9.5904   20.8794   10.0081 H         1 659226      0.0000 
     60 H          -9.7568   20.8543    8.4087 H         1 659226      0.0000 
     61 H          -5.1724   23.1560   16.2084 H         1 659226      0.0000 
     62 H           3.4649   14.8691   14.4641 H         1 659226      0.0000 
@<TRIPOS>BOND
     1    2    1 1    
     2    5    1 1    
     3    8    1 1    
     4   40    1 1    
     5    3    2 1    
     6    6    2 1    
     7   41    2 1    
     8    4    3 1    
     9    7    3 1    
    10   42    3 1    
    11    5    4 1    
    12   29    4 1    
    13   43    4 1    
    14   61    7 1    
    15   28    8 2    
    16   44    8 1    
    17   10    9 ar   
    18   14    9 ar   
    19   22    9 1    
    20   11   10 ar   
    21   45   10 1    
    22   12   11 ar   
    23   15   11 1    
    24   13   12 ar   
    25   46   12 1    
    26   14   13 ar   
    27   24   13 1    
    28   21   14 1    
    29   16   15 ar   
    30   20   15 ar   
    31   17   16 ar   
    32   47   16 1    
    33   18   17 ar   
    34   48   17 1    
    35   19   18 ar   
    36   23   18 1    
    37   20   19 ar   
    38   49   19 1    
    39   50   20 1    
    40   62   22 1    
    41   25   24 am   
    42   26   24 2    
    43   27   25 1    
    44   51   25 1    
    45   28   27 1    
    46   52   27 1    
    47   53   27 1    
    48   54   28 1    
    49   31   29 1    
    50   33   29 1    
    51   31   30 2    
    52   32   30 1    
    53   55   31 1    
    54   33   32 ar   
    55   37   32 ar   
    56   34   33 ar   
    57   35   34 ar   
    58   36   35 ar   
    59   56   35 1    
    60   37   36 ar   
    61   38   37 1    
    62   39   38 1    
    63   57   38 1    
    64   58   39 1    
    65   59   39 1    
    66   60   39 1    
@<TRIPOS>SUBSTRUCTURE
     1 659226      1 GROUP   
@<TRIPOS>SET

