#    Name: 1q12_ATP_4_INTS_M
#    Modification time : Mon Mar 24 22:38:21 2014

@<TRIPOS>MOLECULE
1q12_ATP_4_INTS_M
   68     0    12     0     0
SMALL
NO_CHARGES


@<TRIPOS>ATOM
      1 N          30.1235   55.1165   58.6660 N.am      2 SEC2        0.0000 
      2 N          31.1990   56.2530   58.5090 N.am     10 SEL2        0.0000 
      3 N          29.0480   53.9800   58.8230 N.am      6 SEP2        0.0000 
      4 N          30.3080   57.2855   58.3405 N.am      2 SEC2        0.0000 
      5 N          29.4170   58.3180   58.1720 N.am      6 SEP2        0.0000 
      6 NZ         33.5095   56.7850   55.6970 N.4       3 LYC4        0.0000 
      7 NZ         33.2130   56.9580   57.3040 N.4      11 LYL4        0.0000 
      8 NZ         33.8060   56.6120   54.0900 N.4       7 LYP4        0.0000 
      9 N          33.5095   56.7850   55.6970 N.am      2 SEC2        0.0000 
     10 N          33.2130   56.9580   57.3040 N.am     10 SEL2        0.0000 
     11 N          33.8060   56.6120   54.0900 N.am      6 SEP2        0.0000 
     12 N          33.9965   58.1130   56.9900 N.am      2 SEC2        0.0000 
     13 N          34.7800   59.2680   56.6760 N.am      6 SEP2        0.0000 
     14 NZ         32.9330   55.1835   54.1915 N.4       3 LYC4        0.0000 
     15 NZ         32.0600   53.7550   54.2930 N.4      11 LYL4        0.0000 
     16 N          31.3915   53.2785   53.2485 N.am      2 SEC2        0.0000 
     17 N          32.0600   53.7550   54.2930 N.am     10 SEL2        0.0000 
     18 N          30.7230   52.8020   52.2040 N.am      6 SEP2        0.0000 
     19 N          32.7875   53.0665   53.4425 N.am      2 SEC2        0.0000 
     20 N          33.5150   52.3780   52.5920 N.am      6 SEP2        0.0000 
     21 N          32.9330   55.1835   54.1915 N.am      2 SEC2        0.0000 
     22 NZ         33.8025   54.9390   55.0565 N.4       3 LYC4        0.0000 
     23 NZ         33.7990   53.2660   56.0230 N.4      11 LYL4        0.0000 
     24 N          34.4700   52.2785   55.3750 N.am      2 SEC2        0.0000 
     25 N          33.7990   53.2660   56.0230 N.am     10 SEL2        0.0000 
     26 N          35.1410   51.2910   54.7270 N.am      6 SEP2        0.0000 
     27 N          34.6730   52.6365   56.7540 N.am      2 SEC2        0.0000 
     28 N          35.5470   52.0070   57.4850 N.am      6 SEP2        0.0000 
     29 N          30.6825   55.6055   55.9795 N.am      2 SEC2        0.0000 
     30 N          31.9480   55.0830   56.5000 N.am     10 SEL2        0.0000 
     31 N          29.4170   56.1280   55.4590 N.am      6 SEP2        0.0000 
     32 N          32.8770   55.8475   55.2950 N.am      2 SEC2        0.0000 
     33 N          32.8070   49.5480   54.9690 N.am      2 SEC2        0.0000 
     34 N          31.5000   50.4070   54.9940 N.am     10 SEL2        0.0000 
     35 N          34.1140   48.6890   54.9440 N.am      6 SEP2        0.0000 
     36 N          31.4320   49.0120   55.0855 N.am      2 SEC2        0.0000 
     37 N          31.3640   47.6170   55.1770 N.am      6 SEP2        0.0000 
     38 CA         29.4110   52.0640   57.7090 C.3       4 GLC5        0.0000 
     39 CA         28.8230   51.1750   56.3850 C.3      12 GLL5        0.0000 
     40 CA         29.9990   52.9530   59.0330 C.3       8 GLP5        0.0000 
     41 CA         28.0615   49.5570   54.0900 C.3       4 GLC5        0.0000 
     42 CA         27.6140   50.9550   55.5650 C.3      12 GLL5        0.0000 
     43 CA         28.5090   48.1590   52.6150 C.3       8 GLP5        0.0000 
     44 CA         28.3470   52.2540   57.7890 C.3       4 GLC5        0.0000 
     45 CA         26.6950   51.5550   56.5450 C.3      12 GLL5        0.0000 
     46 N          25.8455   53.8225   56.8630 N.am      2 SEC2        0.0000 
     47 N          26.0820   52.7650   56.1240 N.am     10 SEL2        0.0000 
     48 N          25.6090   54.8800   57.6020 N.am      6 SEP2        0.0000 
     49 O          26.9980   53.1325   54.7625 O.2       1 ALC1        0.0000 
     50 O          26.0820   52.7650   56.1240 O.2       9 ALL1        0.0000 
     51 O          27.9140   53.5000   53.4010 O.2       5 ALP1        0.0000 
     52 N          23.2780   50.3540   56.7805 N.am      2 SEC2        0.0000 
     53 N          24.4570   50.6470   56.3320 N.am     10 SEL2        0.0000 
     54 N          22.0990   50.0610   57.2290 N.am      6 SEP2        0.0000 
     55 CA         27.4300   48.6250   54.4350 C.3       4 GLC5        0.0000 
     56 CA         26.3510   49.0910   56.2550 C.3      12 GLL5        0.0000 
     57 CA         25.0875   45.7915   60.2375 C.3       4 GLC5        0.0000 
     58 CA         26.0920   45.1160   59.0240 C.3      12 GLL5        0.0000 
     59 CA         24.0830   46.4670   61.4510 C.3       8 GLP5        0.0000 
     60 CA         24.1475   46.0190   59.5395 C.3       4 GLC5        0.0000 
     61 CA         24.2120   45.5710   57.6280 C.3      12 GLL5        0.0000 
     62 CA         24.2075   43.7995   56.4355 C.3       4 GLC5        0.0000 
     63 CA         24.2030   42.0280   55.2430 C.3       8 GLP5        0.0000 
     64 CA         27.9569   53.2040   55.6800 C.3       4 GLC5        0.0000 
     65 CA         28.4570   55.0980   55.1000 C.3       8 GLP5        0.0000 
     66 CA         25.9057   46.8693   59.9405 C.3       4 GLC5        0.0000 
     67 CA         26.0140   47.0160   57.5910 C.3      12 GLL5        0.0000 
     68 CA         25.4340   47.0740   61.8230 C.3       8 GLP5        0.0000 
@<TRIPOS>BOND
@<TRIPOS>SUBSTRUCTURE
     1 ALC1       49 GROUP        1 X    ALC  0     ROOT ALC X 1
     2 SEC2        1 GROUP        1 X    SEC  0     **** SEC X 2
     3 LYC4        6 GROUP        1 X    LYC  0     **** LYC X 4
     4 GLC5       38 GROUP        1 X    GLC  0     **** GLC X 6
     5 ALP1       51 GROUP        1 Y    ALP  0     ROOT ALP Y 8
     6 SEP2        3 GROUP        1 Y    SEP  0     **** SEP Y 9
     7 LYP4        8 GROUP        1 Y    LYP  0     **** LYP Y 11
     8 GLP5       40 GROUP        1 Y    GLP  0     **** GLP Y 13
     9 ALL1       50 GROUP        1 Z    ALL  0     ROOT ALL Z 15
    10 SEL2        2 GROUP        1 Z    SEL  0     **** SEL Z 16
    11 LYL4        7 GROUP        1 Z    LYL  0     **** LYL Z 18
    12 GLL5       39 GROUP        1 Z    GLL  0     **** GLL Z 20
@<TRIPOS>SET

