#    Name: 1q12_ATP_4_ligand
#    Modification time : Mon Mar 24 22:38:21 2014

@<TRIPOS>MOLECULE
1q12_ATP_4_ligand
   43    45     1     0     0
SMALL
NO_CHARGES


@<TRIPOS>ATOM
      1 PG         32.4460   55.8090   57.8330 P.3       1 ATP382      0.0000 
      2 O1G        33.3780   54.9410   58.6330 O.co2     1 ATP382      0.0000 
      3 O2G        31.1990   56.2530   58.5090 O.co2     1 ATP382      0.0000 
      4 O3G        33.2130   56.9580   57.3040 O.co2     1 ATP382      0.0000 
      5 PB         32.5740   53.9190   55.6070 P.3       1 ATP382      0.0000 
      6 O1B        32.0600   53.7550   54.2930 O.co2     1 ATP382      0.0000 
      7 O2B        33.7990   53.2660   56.0230 O.co2     1 ATP382      0.0000 
      8 O3B        31.9480   55.0830   56.5000 O.3       1 ATP382      0.0000 
      9 PA         31.4770   51.2230   56.2010 P.3       1 ATP382      0.0000 
     10 O1A        31.6230   50.6650   57.5160 O.co2     1 ATP382      0.0000 
     11 O2A        31.5000   50.4070   54.9940 O.co2     1 ATP382      0.0000 
     12 O3A        31.4000   52.7970   56.0690 O.3       1 ATP382      0.0000 
     13 O5'        30.0690   51.0890   56.5550 O.3       1 ATP382      0.0000 
     14 C5'        28.8230   51.1750   56.3850 C.3       1 ATP382      0.0000 
     15 C4'        27.6140   50.9550   55.5650 C.3       1 ATP382      0.0000 
     16 O4'        27.5250   49.5120   55.4910 O.3       1 ATP382      0.0000 
     17 C3'        26.6950   51.5550   56.5450 C.3       1 ATP382      0.0000 
     18 O3'        26.0820   52.7650   56.1240 O.3       1 ATP382      0.0000 
     19 C2'        25.7290   50.3810   56.8780 C.3       1 ATP382      0.0000 
     20 O2'        24.4570   50.6470   56.3320 O.3       1 ATP382      0.0000 
     21 C1'        26.3510   49.0910   56.2550 C.3       1 ATP382      0.0000 
     22 N9         26.7720   48.0760   57.2470 N.pl3     1 ATP382      0.0000 
     23 C8         27.9500   47.9520   58.0060 C.2       1 ATP382      0.0000 
     24 N7         27.9780   46.9130   58.7820 N.2       1 ATP382      0.0000 
     25 C5         26.7410   46.3130   58.5250 C.ar      1 ATP382      0.0000 
     26 C6         26.0920   45.1160   59.0240 C.ar      1 ATP382      0.0000 
     27 N6         26.6660   44.3310   59.9230 N.pl3     1 ATP382      0.0000 
     28 N1         24.8210   44.7890   58.5450 N.ar      1 ATP382      0.0000 
     29 C2         24.2120   45.5710   57.6280 C.ar      1 ATP382      0.0000 
     30 N3         24.7100   46.7060   57.0830 N.ar      1 ATP382      0.0000 
     31 C4         26.0140   47.0160   57.5910 C.ar      1 ATP382      0.0000 
     32 H          28.5277   52.3942   56.8096 H         1 ATP382      0.0000 
     33 H          28.3166   50.7978   57.5491 H         1 ATP382      0.0000 
     34 H          27.6742   51.4585   54.7091 H         1 ATP382      0.0000 
     35 H          27.2842   51.6982   57.4790 H         1 ATP382      0.0000 
     36 H          25.7234   50.2605   57.9377 H         1 ATP382      0.0000 
     37 H          25.6206   48.6756   55.5752 H         1 ATP382      0.0000 
     38 H          28.6757   48.6400   57.9144 H         1 ATP382      0.0000 
     39 H          26.1616   43.5039   60.1711 H         1 ATP382      0.0000 
     40 H          27.5518   44.6364   60.2723 H         1 ATP382      0.0000 
     41 H          23.2272   45.2607   57.2943 H         1 ATP382      0.0000 
     42 H          26.6777   53.1197   55.4034 H         1 ATP382      0.0000 
     43 H          24.5152   51.5829   55.9845 H         1 ATP382      0.0000 
@<TRIPOS>BOND
     1    2    1 ar   
     2    3    1 ar   
     3    4    1 ar   
     4    8    1 1    
     5    6    5 ar   
     6    7    5 ar   
     7    8    5 1    
     8   12    5 1    
     9   10    9 ar   
    10   11    9 ar   
    11   12    9 1    
    12   13    9 1    
    13   14   13 1    
    14   15   14 1    
    15   32   14 1    
    16   33   14 1    
    17   16   15 1    
    18   17   15 1    
    19   34   15 1    
    20   21   16 1    
    21   18   17 1    
    22   19   17 1    
    23   35   17 1    
    24   42   18 1    
    25   20   19 1    
    26   21   19 1    
    27   36   19 1    
    28   43   20 1    
    29   22   21 1    
    30   37   21 1    
    31   23   22 1    
    32   31   22 1    
    33   24   23 2    
    34   38   23 1    
    35   25   24 1    
    36   26   25 ar   
    37   31   25 ar   
    38   27   26 1    
    39   28   26 ar   
    40   39   27 1    
    41   40   27 1    
    42   29   28 ar   
    43   30   29 ar   
    44   41   29 1    
    45   31   30 ar   
@<TRIPOS>SUBSTRUCTURE
     1 ATP382      1 GROUP   
@<TRIPOS>SET

