#    Name: 4ele_31I_7_INTS_M
#    Modification time : Mon Mar 24 18:10:51 2014

@<TRIPOS>MOLECULE
4ele_31I_7_INTS_M
   93     0     9     0     0
SMALL
NO_CHARGES


@<TRIPOS>ATOM
      1 CA         18.8305    6.4795   44.1280 C.3       3 GLC5        0.0000 
      2 CA         20.8530    5.8950   44.2830 C.3       9 GLL5        0.0000 
      3 CA         16.8080    7.0640   43.9730 C.3       6 GLP5        0.0000 
      4 CA         19.0485    7.6700   44.7340 C.3       3 GLC5        0.0000 
      5 CA         20.7410    6.8650   45.3030 C.3       9 GLL5        0.0000 
      6 CA         17.3560    8.4750   44.1650 C.3       6 GLP5        0.0000 
      7 CA         23.4250    7.8410   45.4940 C.3       3 GLC5        0.0000 
      8 CA         22.1460    8.3850   44.0140 C.3       9 GLL5        0.0000 
      9 CA         24.7040    7.2970   46.9740 C.3       6 GLP5        0.0000 
     10 CA         23.0220    5.0435   43.4830 C.3       3 GLC5        0.0000 
     11 CA         21.6600    5.0160   42.0690 C.3       9 GLL5        0.0000 
     12 CA         24.3840    5.0710   44.8970 C.3       6 GLP5        0.0000 
     13 CA         17.2305    5.5390   41.1620 C.3       3 GLC5        0.0000 
     14 CA         19.3780    5.8210   41.5840 C.3       9 GLL5        0.0000 
     15 CA         15.0830    5.2570   40.7400 C.3       6 GLP5        0.0000 
     16 CA         18.7680    7.3660   42.2535 C.3       3 GLC5        0.0000 
     17 CA         18.1580    8.9110   42.9230 C.3       6 GLP5        0.0000 
     18 CA         21.5015    0.3815   44.7175 C.3       3 GLC5        0.0000 
     19 CA         22.3800    1.2040   42.8740 C.3       9 GLL5        0.0000 
     20 CA         20.6230   -0.4410   46.5610 C.3       6 GLP5        0.0000 
     21 CA         22.6240   -3.1570   39.9665 C.3       3 GLC5        0.0000 
     22 CA         24.1570   -2.0690   39.9030 C.3       9 GLL5        0.0000 
     23 CA         21.0910   -4.2450   40.0300 C.3       6 GLP5        0.0000 
     24 CA         23.0050   -4.3170   41.4110 C.3       3 GLC5        0.0000 
     25 CA         23.8350   -3.3190   42.7130 C.3       9 GLL5        0.0000 
     26 CA         22.1750   -5.3150   40.1090 C.3       6 GLP5        0.0000 
     27 CA         25.8930   -6.3775   41.0285 C.3       3 GLC5        0.0000 
     28 CA         24.9790   -5.4350   42.4690 C.3       9 GLL5        0.0000 
     29 CA         26.8070   -7.3200   39.5880 C.3       6 GLP5        0.0000 
     30 CA         23.4310   -5.8490   41.8605 C.3       3 GLC5        0.0000 
     31 CA         21.8830   -6.2630   41.2520 C.3       6 GLP5        0.0000 
     32 CA         26.7475   -4.8660   42.7580 C.3       3 GLC5        0.0000 
     33 CA         28.5160   -4.2970   43.0470 C.3       6 GLP5        0.0000 
     34 CA         20.8995   -2.0595   46.0065 C.3       3 GLC5        0.0000 
     35 CA         21.1760   -3.6780   45.4520 C.3       9 GLL5        0.0000 
     36 CA         17.5940   -4.3490   43.6440 C.3       3 GLC5        0.0000 
     37 CA         19.1400   -2.9760   44.1420 C.3       9 GLL5        0.0000 
     38 CA         16.0480   -5.7220   43.1460 C.3       6 GLP5        0.0000 
     39 CA         19.0800   -1.5480   42.6575 C.3       3 GLC5        0.0000 
     40 CA         19.0200   -0.1200   41.1730 C.3       6 GLP5        0.0000 
     41 N          16.8485   -2.4205   42.8905 N.am      2 SEC2        0.0000 
     42 N          17.8060   -2.7680   44.0270 N.am      8 SEL2        0.0000 
     43 N          15.8910   -2.0730   41.7540 N.am      5 SEP2        0.0000 
     44 CA         16.6100   -2.2300   46.8975 C.3       3 GLC5        0.0000 
     45 CA         16.9670   -3.0240   45.0990 C.3       9 GLL5        0.0000 
     46 CA         16.2530   -1.4360   48.6960 C.3       6 GLP5        0.0000 
     47 CA         16.4490   -4.5215   46.4510 C.3       3 GLC5        0.0000 
     48 CA         15.9310   -6.0190   47.8030 C.3       6 GLP5        0.0000 
     49 CA         16.5075   -4.3730   44.1225 C.3       3 GLC5        0.0000 
     50 CA         16.6035   -1.3195   45.0665 C.3       3 GLC5        0.0000 
     51 CA         16.2400    0.3850   45.0340 C.3       6 GLP5        0.0000 
     52 O          15.7170   -2.4395   43.3695 O.2       1 ALC1        0.0000 
     53 O          15.5430   -2.8060   44.9850 O.2       7 ALL1        0.0000 
     54 O          15.8910   -2.0730   41.7540 O.2       4 ALP1        0.0000 
     55 O          14.7635   -2.5825   43.8915 O.2       1 ALC1        0.0000 
     56 O          13.9840   -2.3590   42.7980 O.2       4 ALP1        0.0000 
     57 CA         17.5270   -2.5635   47.5415 C.3       3 GLC5        0.0000 
     58 CA         18.8010   -3.6910   46.3870 C.3       9 GLL5        0.0000 
     59 CA         17.3660   -4.8550   47.0950 C.3       3 GLC5        0.0000 
     60 O          18.3515   -4.3595   48.5730 O.2       1 ALC1        0.0000 
     61 O          19.3040   -4.1700   47.6160 O.2       7 ALL1        0.0000 
     62 O          17.3990   -4.5490   49.5300 O.2       4 ALP1        0.0000 
     63 O          20.3935   -4.1485   48.4400 O.2       1 ALC1        0.0000 
     64 O          21.4830   -4.1270   49.2640 O.2       4 ALP1        0.0000 
     65 O          19.1430   -5.4005   48.6225 O.2       1 ALC1        0.0000 
     66 O          18.9820   -6.6310   49.6290 O.2       4 ALP1        0.0000 
     67 CA         22.4530    6.7662   46.1907 C.3       3 GLC5        0.0000 
     68 CA         23.8410    6.0450   47.1470 C.3       6 GLP5        0.0000 
     69 CA         20.6775    7.3422   47.3012 C.3       3 GLC5        0.0000 
     70 CA         20.2900    7.1970   49.3680 C.3       6 GLP5        0.0000 
     71 CA         19.9627    8.5793   43.7565 C.3       3 GLC5        0.0000 
     72 CA         21.3890    8.1100   45.1660 C.3       9 GLL5        0.0000 
     73 CA         23.2428    9.1177   45.2450 C.3       3 GLC5        0.0000 
     74 CA         24.7180    9.9880   45.9000 C.3       6 GLP5        0.0000 
     75 CA         20.0465    7.8502   42.9907 C.3       3 GLC5        0.0000 
     76 CA         22.2590    7.4150   42.9920 C.3       9 GLL5        0.0000 
     77 CA         23.0648    5.8966   44.1225 C.3       3 GLC5        0.0000 
     78 CA         19.1673    3.7938   40.7305 C.3       3 GLC5        0.0000 
     79 CA         20.5930    5.1580   41.0040 C.3       9 GLL5        0.0000 
     80 CA         18.3490    2.0980   40.1670 C.3       6 GLP5        0.0000 
     81 CA         20.6448    0.2540   41.8330 C.3       3 GLC5        0.0000 
     82 CA         23.9723    0.1855   43.2260 C.3       3 GLC5        0.0000 
     83 CA         22.1590    0.0520   42.1120 C.3       9 GLL5        0.0000 
     84 CA         25.6750   -0.2570   43.9590 C.3       6 GLP5        0.0000 
     85 CA         20.5557   -0.8480   42.2010 C.3       3 GLC5        0.0000 
     86 CA         22.4790   -1.3190   42.6990 C.3       9 GLL5        0.0000 
     87 CA         24.5481   -1.3802   43.2676 C.3       3 GLC5        0.0000 
     88 CA         22.2065   -4.8630   42.6412 C.3       3 GLC5        0.0000 
     89 CA         23.0610   -3.8320   43.7720 C.3       9 GLL5        0.0000 
     90 CA         21.7234   -3.0027   41.5646 C.3       3 GLC5        0.0000 
     91 CA         21.7040   -1.8330   43.7590 C.3       9 GLL5        0.0000 
     92 CA         23.7740   -1.7620   44.6129 C.3       3 GLC5        0.0000 
     93 CA         25.4310   -0.8760   45.3310 C.3       6 GLP5        0.0000 
@<TRIPOS>BOND
@<TRIPOS>SUBSTRUCTURE
     1 ALC1       52 GROUP        1 X    ALC  0     ROOT ALC X 1
     2 SEC2       41 GROUP        1 X    SEC  0     **** SEC X 2
     3 GLC5        1 GROUP        1 X    GLC  0     **** GLC X 6
     4 ALP1       54 GROUP        1 Y    ALP  0     ROOT ALP Y 8
     5 SEP2       43 GROUP        1 Y    SEP  0     **** SEP Y 9
     6 GLP5        3 GROUP        1 Y    GLP  0     **** GLP Y 13
     7 ALL1       53 GROUP        1 Z    ALL  0     ROOT ALL Z 15
     8 SEL2       42 GROUP        1 Z    SEL  0     **** SEL Z 16
     9 GLL5        2 GROUP        1 Z    GLL  0     **** GLL Z 20
@<TRIPOS>SET

