#    Name: 4ele_31I_7_ligand
#    Modification time : Mon Mar 24 18:10:51 2014

@<TRIPOS>MOLECULE
4ele_31I_7_ligand
   66    69     1     0     0
SMALL
NO_CHARGES


@<TRIPOS>ATOM
      1 O30        23.1880    2.7620   41.2050 O.2       1 31I201      0.0000 
      2 C16        22.4460    2.5910   42.1830 C.2       1 31I201      0.0000 
      3 N17        21.6050    3.7260   42.7040 N.am      1 31I201      0.0000 
      4 N18        20.8130    3.5200   43.7550 N.2       1 31I201      0.0000 
      5 C19        20.2050    4.5350   44.3260 C.2       1 31I201      0.0000 
      6 C25        20.8530    5.8950   44.2830 C.ar      1 31I201      0.0000 
      7 C26        20.7410    6.8650   45.3030 C.ar      1 31I201      0.0000 
      8 C27        21.3890    8.1100   45.1660 C.ar      1 31I201      0.0000 
      9 C28        22.1460    8.3850   44.0140 C.ar      1 31I201      0.0000 
     10 C29        22.2590    7.4150   42.9920 C.ar      1 31I201      0.0000 
     11 C24        21.6110    6.1640   43.1250 C.ar      1 31I201      0.0000 
     12 C20        21.6600    5.0160   42.0690 C.3       1 31I201      0.0000 
     13 C11        20.5930    5.1580   41.0040 C.3       1 31I201      0.0000 
     14 C08        19.3780    5.8210   41.5840 C.3       1 31I201      0.0000 
     15 C01        21.1200    6.0000   39.8580 C.3       1 31I201      0.0000 
     16 C15        22.3800    1.2040   42.8740 C.2       1 31I201      0.0000 
     17 C14        22.1590    0.0520   42.1120 C.2       1 31I201      0.0000 
     18 C13        22.4790   -1.3190   42.6990 C.ar      1 31I201      0.0000 
     19 C10        23.5360   -2.0570   42.1800 C.ar      1 31I201      0.0000 
     20 O11        24.2810   -1.5480   41.1530 O.3       1 31I201      0.0000 
     21 C12        24.1570   -2.0690   39.9030 C.3       1 31I201      0.0000 
     22 C07        23.8350   -3.3190   42.7130 C.ar      1 31I201      0.0000 
     23 O08        24.8970   -4.0650   42.1950 O.3       1 31I201      0.0000 
     24 C09        24.9790   -5.4350   42.4690 C.3       1 31I201      0.0000 
     25 C06        23.0610   -3.8320   43.7720 C.ar      1 31I201      0.0000 
     26 C05        21.9990   -3.0940   44.2890 C.ar      1 31I201      0.0000 
     27 C04        21.1760   -3.6780   45.4520 C.3       1 31I201      0.0000 
     28 C03        19.6550   -3.4330   45.3070 C.ar      1 31I201      0.0000 
     29 C32        19.1400   -2.9760   44.1420 C.ar      1 31I201      0.0000 
     30 N33        17.8060   -2.7680   44.0270 N.ar      1 31I201      0.0000 
     31 C34        16.9670   -3.0240   45.0990 C.ar      1 31I201      0.0000 
     32 N35        15.5430   -2.8060   44.9850 N.pl3     1 31I201      0.0000 
     33 N36        17.4810   -3.4830   46.2670 N.ar      1 31I201      0.0000 
     34 C02        18.8010   -3.6910   46.3870 C.ar      1 31I201      0.0000 
     35 N01        19.3040   -4.1700   47.6160 N.pl3     1 31I201      0.0000 
     36 C31        21.7040   -1.8330   43.7590 C.ar      1 31I201      0.0000 
     37 H          19.3101    4.4945   44.8110 H         1 31I201      0.0000 
     38 H          20.1906    6.6642   46.1396 H         1 31I201      0.0000 
     39 H          21.3070    8.8111   45.9056 H         1 31I201      0.0000 
     40 H          22.6169    9.2869   43.9118 H         1 31I201      0.0000 
     41 H          22.8093    7.6168   42.1556 H         1 31I201      0.0000 
     42 H          22.6460    5.1227   41.5580 H         1 31I201      0.0000 
     43 H          20.3304    4.1877   40.6333 H         1 31I201      0.0000 
     44 H          22.5037    1.2032   43.8690 H         1 31I201      0.0000 
     45 H          21.7928    0.0686   41.1765 H         1 31I201      0.0000 
     46 H          23.2865   -4.7560   44.1603 H         1 31I201      0.0000 
     47 H          21.5168   -3.2293   46.3918 H         1 31I201      0.0000 
     48 H          21.3547   -4.7575   45.5097 H         1 31I201      0.0000 
     49 H          19.7673   -2.7842   43.3346 H         1 31I201      0.0000 
     50 H          15.0016   -2.9980   45.8035 H         1 31I201      0.0000 
     51 H          15.2173   -2.4813   44.0971 H         1 31I201      0.0000 
     52 H          18.7063   -4.7898   48.1245 H         1 31I201      0.0000 
     53 H          20.2153   -3.8488   47.8736 H         1 31I201      0.0000 
     54 H          20.9297   -1.2821   44.1359 H         1 31I201      0.0000 
     55 H          19.5856    6.7333   41.9369 H         1 31I201      0.0000 
     56 H          18.6529    5.9279   40.9037 H         1 31I201      0.0000 
     57 H          18.9935    5.2940   42.3419 H         1 31I201      0.0000 
     58 H          21.3792    6.9175   40.1598 H         1 31I201      0.0000 
     59 H          21.9295    5.5901   39.4376 H         1 31I201      0.0000 
     60 H          20.4385    6.1110   39.1346 H         1 31I201      0.0000 
     61 H          24.7534   -1.6064   39.2470 H         1 31I201      0.0000 
     62 H          24.3939   -3.0403   39.8803 H         1 31I201      0.0000 
     63 H          23.2221   -1.9872   39.5576 H         1 31I201      0.0000 
     64 H          25.7807   -5.8520   42.0408 H         1 31I201      0.0000 
     65 H          25.0445   -5.6141   43.4506 H         1 31I201      0.0000 
     66 H          24.1771   -5.9295   42.1337 H         1 31I201      0.0000 
@<TRIPOS>BOND
     1    2    1 2    
     2    3    2 am   
     3   16    2 1    
     4    4    3 1    
     5   12    3 1    
     6    5    4 2    
     7    6    5 1    
     8   37    5 1    
     9    7    6 ar   
    10   11    6 ar   
    11    8    7 ar   
    12   38    7 1    
    13    9    8 ar   
    14   39    8 1    
    15   10    9 ar   
    16   40    9 1    
    17   11   10 ar   
    18   41   10 1    
    19   12   11 1    
    20   13   12 1    
    21   42   12 1    
    22   14   13 1    
    23   15   13 1    
    24   43   13 1    
    25   55   14 1    
    26   56   14 1    
    27   57   14 1    
    28   58   15 1    
    29   59   15 1    
    30   60   15 1    
    31   17   16 2    
    32   44   16 1    
    33   18   17 1    
    34   45   17 1    
    35   19   18 ar   
    36   36   18 ar   
    37   20   19 1    
    38   22   19 ar   
    39   21   20 1    
    40   61   21 1    
    41   62   21 1    
    42   63   21 1    
    43   23   22 1    
    44   25   22 ar   
    45   24   23 1    
    46   64   24 1    
    47   65   24 1    
    48   66   24 1    
    49   26   25 ar   
    50   46   25 1    
    51   27   26 1    
    52   36   26 ar   
    53   28   27 1    
    54   47   27 1    
    55   48   27 1    
    56   29   28 ar   
    57   34   28 ar   
    58   30   29 ar   
    59   49   29 1    
    60   31   30 ar   
    61   32   31 1    
    62   33   31 ar   
    63   50   32 1    
    64   51   32 1    
    65   34   33 ar   
    66   35   34 1    
    67   52   35 1    
    68   53   35 1    
    69   54   36 1    
@<TRIPOS>SUBSTRUCTURE
     1 31I201      1 GROUP   
@<TRIPOS>SET

