#    Name: 2fv9_002_2_INTS_M
#    Modification time : Tue Mar 25 13:08:44 2014

@<TRIPOS>MOLECULE
2fv9_002_2_INTS_M
   74     0    12     0     0
SMALL
NO_CHARGES


@<TRIPOS>ATOM
      1 CA         45.2455   29.9270   38.5960 C.3       4 GLC5        0.0000 
      2 CA         46.8220   28.7360   39.6060 C.3      12 GLL5        0.0000 
      3 CA         43.6690   31.1180   37.5860 C.3       8 GLP5        0.0000 
      4 CA         45.6305   30.0860   37.4065 C.3       4 GLC5        0.0000 
      5 CA         47.5920   29.0540   37.2270 C.3      12 GLL5        0.0000 
      6 CA         44.3230   27.2645   37.6275 C.3       4 GLC5        0.0000 
      7 CA         46.3620   26.9550   37.9090 C.3      12 GLL5        0.0000 
      8 CA         42.2840   27.5740   37.3460 C.3       8 GLP5        0.0000 
      9 CA         48.5880   26.7770   38.0505 C.3       4 GLC5        0.0000 
     10 CA         50.8140   26.5990   38.1920 C.3       8 GLP5        0.0000 
     11 O          49.3275   29.6385   39.9375 O.2       1 ALC1        0.0000 
     12 O          47.7210   29.8260   39.9930 O.2       9 ALL1        0.0000 
     13 O          50.9340   29.4510   39.8820 O.2       5 ALP1        0.0000 
     14 N          48.6965   26.4355   41.7005 N.am      2 SEC2        0.0000 
     15 N          47.5720   27.2580   41.3530 N.am     10 SEL2        0.0000 
     16 N          49.8210   25.6130   42.0480 N.am      6 SEP2        0.0000 
     17 Zn         50.6810   35.8415   39.8060 Zn        3 ZIC7        0.0000 
     18 Zn         49.7640   36.2780   39.7670 Zn       11 ZIL7        0.0000 
     19 Zn         51.5980   35.4050   39.8450 Zn        7 ZIP7        0.0000 
     20 O          49.1080   37.2710   40.4790 O.2       1 ALC1        0.0000 
     21 O          49.7640   36.2780   39.7670 O.2       9 ALL1        0.0000 
     22 O          48.4520   38.2640   41.1910 O.2       5 ALP1        0.0000 
     23 CA         47.7345   25.5025   43.7740 C.3       4 GLC5        0.0000 
     24 CA         46.0700   26.2600   44.4160 C.3      12 GLL5        0.0000 
     25 CA         49.3990   24.7450   43.1320 C.3       8 GLP5        0.0000 
     26 CA         46.7495   25.7480   46.3470 C.3       4 GLC5        0.0000 
     27 CA         47.4290   25.2360   48.2780 C.3       8 GLP5        0.0000 
     28 CA         43.3695   27.9535   46.9850 C.3       4 GLC5        0.0000 
     29 CA         43.8840   27.1450   45.2400 C.3      12 GLL5        0.0000 
     30 CA         42.8550   28.7620   48.7300 C.3       8 GLP5        0.0000 
     31 O          47.3445   35.7115   39.1995 O.2       1 ALC1        0.0000 
     32 O          48.7580   35.3740   39.5170 O.2       9 ALL1        0.0000 
     33 O          45.9310   36.0490   38.8820 O.2       5 ALP1        0.0000 
     34 Zn         51.0300   34.6665   39.5430 Zn        3 ZIC7        0.0000 
     35 Zn         50.4620   33.9280   39.2410 Zn       11 ZIL7        0.0000 
     36 CA         49.1855   34.2315   42.2085 C.3       4 GLC5        0.0000 
     37 CA         47.7340   32.9890   41.6620 C.3      12 GLL5        0.0000 
     38 CA         50.6370   35.4740   42.7550 C.3       8 GLP5        0.0000 
     39 N          44.7080   31.7530   39.9360 N.am      2 SEC2        0.0000 
     40 N          45.9630   31.2790   40.1090 N.am     10 SEL2        0.0000 
     41 N          43.4530   32.2270   39.7630 N.am      6 SEP2        0.0000 
     42 O          44.4105   28.0595   39.9780 O.2       1 ALC1        0.0000 
     43 O          45.3280   27.3570   40.9080 O.2       9 ALL1        0.0000 
     44 O          43.4930   28.7620   39.0480 O.2       5 ALP1        0.0000 
     45 N          42.1220   26.1050   40.5895 N.am      2 SEC2        0.0000 
     46 N          43.4500   25.4420   40.0020 N.am     10 SEL2        0.0000 
     47 N          40.7940   26.7680   41.1770 N.am      6 SEP2        0.0000 
     48 N          42.8005   24.7315   38.7070 N.am      2 SEC2        0.0000 
     49 N          42.1510   24.0210   37.4120 N.am      6 SEP2        0.0000 
     50 CA         46.9400   33.3110   44.5760 C.3       4 GLC5        0.0000 
     51 CA         47.8720   32.1800   42.9370 C.3      12 GLL5        0.0000 
     52 CA         46.0080   34.4420   46.2150 C.3       8 GLP5        0.0000 
     53 CA         49.7475   33.3730   45.1180 C.3       4 GLC5        0.0000 
     54 CA         49.1970   31.5090   44.9110 C.3      12 GLL5        0.0000 
     55 CA         50.2980   35.2370   45.3250 C.3       8 GLP5        0.0000 
     56 CA         47.8925   31.1580   47.3600 C.3       4 GLC5        0.0000 
     57 CA         48.1080   30.7170   45.3760 C.3      12 GLL5        0.0000 
     58 CA         47.6770   31.5990   49.3440 C.3       8 GLP5        0.0000 
     59 CA         47.0580   32.5795   45.7955 C.3       4 GLC5        0.0000 
     60 CA         44.7985   30.4220   44.1580 C.3       4 GLC5        0.0000 
     61 CA         46.9120   30.6330   44.6100 C.3      12 GLL5        0.0000 
     62 CA         42.6850   30.2110   43.7060 C.3       8 GLP5        0.0000 
     63 CA         44.9090   31.7725   42.7890 C.3       4 GLC5        0.0000 
     64 CA         46.7920   31.3650   43.3900 C.3      12 GLL5        0.0000 
     65 CA         43.0260   32.1800   42.1880 C.3       8 GLP5        0.0000 
     66 CA         49.3795   27.5580   37.5615 C.3       4 GLC5        0.0000 
     67 CA         47.3620   28.0340   38.3430 C.3      12 GLL5        0.0000 
     68 CA         43.4309   28.5821   44.0214 C.3       4 GLC5        0.0000 
     69 CA         49.7005   33.5955   43.6505 C.3       4 GLC5        0.0000 
     70 CA         50.9260   34.9830   43.9870 C.3       8 GLP5        0.0000 
     71 CA         49.7909   30.0344   45.0838 C.3       4 GLC5        0.0000 
     72 CA         50.9590   28.7740   45.3290 C.3       8 GLP5        0.0000 
     73 CA         45.5300   31.9040   44.7465 C.3       4 GLC5        0.0000 
     74 CA         44.2080   32.8090   45.4930 C.3       8 GLP5        0.0000 
@<TRIPOS>BOND
@<TRIPOS>SUBSTRUCTURE
     1 ALC1       11 GROUP        1 X    ALC  0     ROOT ALC X 1
     2 SEC2       14 GROUP        1 X    SEC  0     **** SEC X 2
     3 ZIC7       17 GROUP        1 X    ZIC  0     **** ZIC X 5
     4 GLC5        1 GROUP        1 X    GLC  0     **** GLC X 6
     5 ALP1       13 GROUP        1 Y    ALP  0     ROOT ALP Y 8
     6 SEP2       16 GROUP        1 Y    SEP  0     **** SEP Y 9
     7 ZIP7       19 GROUP        1 Y    ZIP  0     **** ZIP Y 12
     8 GLP5        3 GROUP        1 Y    GLP  0     **** GLP Y 13
     9 ALL1       12 GROUP        1 Z    ALL  0     ROOT ALL Z 15
    10 SEL2       15 GROUP        1 Z    SEL  0     **** SEL Z 16
    11 ZIL7       18 GROUP        1 Z    ZIL  0     **** ZIL Z 19
    12 GLL5        2 GROUP        1 Z    GLL  0     **** GLL Z 20
@<TRIPOS>SET

