#    Name: 2fv9_002_2_ligand
#    Modification time : Tue Mar 25 13:08:44 2014

@<TRIPOS>MOLECULE
2fv9_002_2_ligand
   66    66     1     0     0
SMALL
NO_CHARGES


@<TRIPOS>ATOM
      1 C1         46.8220   28.7360   39.6060 C.3       1 0022        0.0000 
      2 C2         47.3620   28.0340   38.3430 C.3       1 0022        0.0000 
      3 C3         47.5920   29.0540   37.2270 C.3       1 0022        0.0000 
      4 C4         48.4130   28.4900   36.0770 C.3       1 0022        0.0000 
      5 C5         47.1640   31.0380   40.1700 C.2       1 0022        0.0000 
      6 C6         46.6160   27.6990   40.7140 C.2       1 0022        0.0000 
      7 C7         45.0330   26.1340   41.6460 C.3       1 0022        0.0000 
      8 C8         44.1100   26.4530   42.8300 C.3       1 0022        0.0000 
      9 C9         49.2550   34.1450   39.3140 C.2       1 0022        0.0000 
     10 C10        48.2670   33.0140   39.1740 C.3       1 0022        0.0000 
     11 C11        44.3710   25.0810   40.7680 C.2       1 0022        0.0000 
     12 C12        46.3620   26.9550   37.9090 C.3       1 0022        0.0000 
     13 N3         47.7210   29.8260   39.9930 N.am      1 0022        0.0000 
     14 O6         47.5720   27.2580   41.3530 O.2       1 0022        0.0000 
     15 O1         44.7760   23.9020   40.8430 O.co2     1 0022        0.0000 
     16 O2         49.7640   36.2780   39.7670 O.3       1 0022        0.0000 
     17 C13        44.8290   27.0700   44.0370 C.3       1 0022        0.0000 
     18 C20        46.0700   26.2600   44.4160 C.3       1 0022        0.0000 
     19 C21        43.8840   27.1450   45.2400 C.3       1 0022        0.0000 
     20 N1         48.7580   35.3740   39.5170 N.am      1 0022        0.0000 
     21 O3         50.4620   33.9280   39.2410 O.2       1 0022        0.0000 
     22 C22        48.1640   32.1600   40.4390 C.3       1 0022        0.0000 
     23 C23        47.7340   32.9890   41.6620 C.3       1 0022        0.0000 
     24 O4         45.9630   31.2790   40.1090 O.2       1 0022        0.0000 
     25 N2         45.3280   27.3570   40.9080 N.am      1 0022        0.0000 
     26 O5         43.4500   25.4420   40.0020 O.co2     1 0022        0.0000 
     27 C14        47.8720   32.1800   42.9370 C.ar      1 0022        0.0000 
     28 C15        49.0780   32.2360   43.6910 C.ar      1 0022        0.0000 
     29 C16        49.1970   31.5090   44.9110 C.ar      1 0022        0.0000 
     30 C17        48.1080   30.7170   45.3760 C.ar      1 0022        0.0000 
     31 C18        46.9120   30.6330   44.6100 C.ar      1 0022        0.0000 
     32 C19        46.7920   31.3650   43.3900 C.ar      1 0022        0.0000 
     33 H          45.8389   29.1395   39.3409 H         1 0022        0.0000 
     34 H          48.2949   27.5620   38.5921 H         1 0022        0.0000 
     35 H          48.1072   29.9282   37.6444 H         1 0022        0.0000 
     36 H          46.6195   29.3903   36.8461 H         1 0022        0.0000 
     37 H          45.9455   25.7093   42.0554 H         1 0022        0.0000 
     38 H          43.6084   25.5259   43.1500 H         1 0022        0.0000 
     39 H          43.3236   27.1462   42.4915 H         1 0022        0.0000 
     40 H          48.5637   32.3681   38.3361 H         1 0022        0.0000 
     41 H          47.2730   33.4206   38.9415 H         1 0022        0.0000 
     42 H          48.6956   29.6205   40.1062 H         1 0022        0.0000 
     43 H          45.1362   28.0738   43.7829 H         1 0022        0.0000 
     44 H          47.8092   35.6149   39.4943 H         1 0022        0.0000 
     45 H          49.1270   31.7163   40.6343 H         1 0022        0.0000 
     46 H          46.6973   33.2953   41.5318 H         1 0022        0.0000 
     47 H          48.3600   33.8779   41.7214 H         1 0022        0.0000 
     48 H          44.5422   27.9041   40.5684 H         1 0022        0.0000 
     49 H          49.8600   32.7980   43.3578 H         1 0022        0.0000 
     50 H          50.0583   31.5557   45.4487 H         1 0022        0.0000 
     51 H          48.1862   30.2120   46.2554 H         1 0022        0.0000 
     52 H          46.1410   30.0520   44.9296 H         1 0022        0.0000 
     53 H          45.9367   31.3052   42.8443 H         1 0022        0.0000 
     54 H          49.3176   28.1891   36.3790 H         1 0022        0.0000 
     55 H          47.9674   27.7007   35.6547 H         1 0022        0.0000 
     56 H          48.5553   29.1672   35.3551 H         1 0022        0.0000 
     57 H          46.6713   26.4692   37.0915 H         1 0022        0.0000 
     58 H          46.2231   26.2686   38.6229 H         1 0022        0.0000 
     59 H          45.4651   27.3434   37.6974 H         1 0022        0.0000 
     60 H          46.7292   26.2174   43.6653 H         1 0022        0.0000 
     61 H          46.5458   26.6552   45.2018 H         1 0022        0.0000 
     62 H          45.8389   25.3174   44.6570 H         1 0022        0.0000 
     63 H          44.3309   27.5478   46.0388 H         1 0022        0.0000 
     64 H          43.0767   27.7017   45.0440 H         1 0022        0.0000 
     65 H          43.5569   26.2401   45.5123 H         1 0022        0.0000 
     66 H          49.3215   37.0280   40.2587 H         1 0022        0.0000 
@<TRIPOS>BOND
     1    2    1 1    
     2    6    1 1    
     3   13    1 1    
     4   33    1 1    
     5    3    2 1    
     6   12    2 1    
     7   34    2 1    
     8    4    3 1    
     9   35    3 1    
    10   36    3 1    
    11   54    4 1    
    12   55    4 1    
    13   56    4 1    
    14   13    5 am   
    15   22    5 1    
    16   24    5 2    
    17   14    6 2    
    18   25    6 am   
    19    8    7 1    
    20   11    7 1    
    21   25    7 1    
    22   37    7 1    
    23   17    8 1    
    24   38    8 1    
    25   39    8 1    
    26   10    9 1    
    27   20    9 am   
    28   21    9 2    
    29   22   10 1    
    30   40   10 1    
    31   41   10 1    
    32   15   11 ar   
    33   26   11 ar   
    34   57   12 1    
    35   58   12 1    
    36   59   12 1    
    37   42   13 1    
    38   20   16 1    
    39   66   16 1    
    40   18   17 1    
    41   19   17 1    
    42   43   17 1    
    43   60   18 1    
    44   61   18 1    
    45   62   18 1    
    46   63   19 1    
    47   64   19 1    
    48   65   19 1    
    49   44   20 1    
    50   23   22 1    
    51   45   22 1    
    52   27   23 1    
    53   46   23 1    
    54   47   23 1    
    55   48   25 1    
    56   28   27 ar   
    57   32   27 ar   
    58   29   28 ar   
    59   49   28 1    
    60   30   29 ar   
    61   50   29 1    
    62   31   30 ar   
    63   51   30 1    
    64   32   31 ar   
    65   52   31 1    
    66   53   32 1    
@<TRIPOS>SUBSTRUCTURE
     1 0022        1 GROUP   
@<TRIPOS>SET

