#    Name: 3mn6_ATP_2_INTS_M
#    Modification time : Mon Mar 24 23:26:59 2014

@<TRIPOS>MOLECULE
3mn6_ATP_2_INTS_M
   68     0    12     0     0
SMALL
NO_CHARGES


@<TRIPOS>ATOM
      1 N          50.3440  -14.6270   40.0110 N.am      2 SEC2        0.0000 
      2 N          49.5100  -15.7530   39.8420 N.am     10 SEL2        0.0000 
      3 N          51.1780  -13.5010   40.1800 N.am      6 SEP2        0.0000 
      4 N          50.7040  -15.8055   40.7415 N.am      2 SEC2        0.0000 
      5 N          51.8980  -15.8580   41.6410 N.am      6 SEP2        0.0000 
      6 N          46.2850  -14.4375   40.4875 N.am      2 SEC2        0.0000 
      7 N          47.0880  -15.6330   40.4900 N.am     10 SEL2        0.0000 
      8 N          45.4820  -13.2420   40.4850 N.am      6 SEP2        0.0000 
      9 N          47.3400  -14.6675   41.4650 N.am      2 SEC2        0.0000 
     10 N          47.5920  -13.7020   42.4400 N.am      6 SEP2        0.0000 
     11 NZ         44.8950  -15.3815   35.9615 N.4       3 LYC4        0.0000 
     12 NZ         45.8840  -15.5860   36.9660 N.4      11 LYL4        0.0000 
     13 NZ         43.9060  -15.1770   34.9570 N.4       7 LYP4        0.0000 
     14 NZ         45.2045  -14.1255   35.9565 N.4       3 LYC4        0.0000 
     15 NZ         46.5030  -13.0740   36.9560 N.4      11 LYL4        0.0000 
     16 N          46.4835  -12.0470   38.0190 N.am      2 SEC2        0.0000 
     17 N          46.5030  -13.0740   36.9560 N.am     10 SEL2        0.0000 
     18 N          46.4640  -11.0200   39.0820 N.am      6 SEP2        0.0000 
     19 N          45.7025  -11.9115   36.8025 N.am      2 SEC2        0.0000 
     20 N          44.9020  -10.7490   36.6490 N.am      6 SEP2        0.0000 
     21 N          46.6375  -13.9315   39.4625 N.am      2 SEC2        0.0000 
     22 N          47.7930  -14.6210   38.4400 N.am     10 SEL2        0.0000 
     23 N          49.2425  -14.3550   37.9600 N.am      2 SEC2        0.0000 
     24 N          50.6920  -14.0890   37.4800 N.am      6 SEP2        0.0000 
     25 N          49.1350  -16.8950   33.0860 N.am      2 SEC2        0.0000 
     26 N          48.0210  -16.5520   34.1340 N.am     10 SEL2        0.0000 
     27 N          50.2490  -17.2380   32.0380 N.am      6 SEP2        0.0000 
     28 NZ         45.2760  -14.7600   34.4215 N.4       3 LYC4        0.0000 
     29 NZ         46.6460  -14.3430   33.8860 N.4      11 LYL4        0.0000 
     30 N          45.2760  -14.7600   34.4215 N.am      2 SEC2        0.0000 
     31 N          46.6460  -14.3430   33.8860 N.am     10 SEL2        0.0000 
     32 N          43.9060  -15.1770   34.9570 N.am      6 SEP2        0.0000 
     33 N          49.3910  -14.4360   36.7210 N.am      2 SEC2        0.0000 
     34 N          48.0900  -14.7830   35.9620 N.am     10 SEL2        0.0000 
     35 CA         49.7390  -12.3030   35.7680 C.3       4 GLC5        0.0000 
     36 CA         49.4190  -12.9240   33.7960 C.3      12 GLL5        0.0000 
     37 CA         50.0590  -11.6820   37.7400 C.3       8 GLP5        0.0000 
     38 CA         51.0585  -12.6975   35.8400 C.3       4 GLC5        0.0000 
     39 CA         50.9390  -12.6520   33.8220 C.3      12 GLL5        0.0000 
     40 CA         51.1780  -12.7430   37.8580 C.3       8 GLP5        0.0000 
     41 CA         50.6905  -11.4230   35.7840 C.3       4 GLC5        0.0000 
     42 CA         51.3220  -11.1640   33.8280 C.3      12 GLL5        0.0000 
     43 O          51.9030  -10.3635   35.9170 O.2       1 ALC1        0.0000 
     44 O          52.4230  -10.9520   34.7360 O.2       9 ALL1        0.0000 
     45 O          51.3830   -9.7750   37.0980 O.2       5 ALP1        0.0000 
     46 N          54.1890   -9.8170   32.8175 N.am      2 SEC2        0.0000 
     47 N          52.7380   -9.7810   32.3290 N.am     10 SEL2        0.0000 
     48 N          55.6400   -9.8530   33.3060 N.am      6 SEP2        0.0000 
     49 O          52.4050   -9.2775   31.0845 O.2       1 ALC1        0.0000 
     50 O          52.7380   -9.7810   32.3290 O.2       9 ALL1        0.0000 
     51 O          52.0720   -8.7740   29.8400 O.2       5 ALP1        0.0000 
     52 CA         51.6245  -14.2080   31.6115 C.3       4 GLC5        0.0000 
     53 CA         52.3590  -12.2220   31.9870 C.3      12 GLL5        0.0000 
     54 CA         50.8900  -16.1940   31.2360 C.3       8 GLP5        0.0000 
     55 CA         54.2945  -11.2380   27.2420 C.3       4 GLC5        0.0000 
     56 CA         54.0270  -13.2100   27.3890 C.3      12 GLL5        0.0000 
     57 CA         54.5620   -9.2660   27.0950 C.3       8 GLP5        0.0000 
     58 CA         55.8480  -11.4755   28.0240 C.3       4 GLC5        0.0000 
     59 CA         55.6440  -13.3390   29.1280 C.3      12 GLL5        0.0000 
     60 CA         56.0520   -9.6120   26.9200 C.3       8 GLP5        0.0000 
     61 CA         54.7140  -15.0405   28.1545 C.3       4 GLC5        0.0000 
     62 CA         53.7840  -16.7420   27.1810 C.3       8 GLP5        0.0000 
     63 CA         50.5345  -14.4910   32.5225 C.3       4 GLC5        0.0000 
     64 CA         53.6460  -11.0330   28.8328 C.3       4 GLC5        0.0000 
     65 CA         53.4590  -12.7590   29.7950 C.3      12 GLL5        0.0000 
     66 CA         54.0600   -9.2600   28.5700 C.3       8 GLP5        0.0000 
     67 CA         53.6500  -14.8867   27.5367 C.3       4 GLC5        0.0000 
     68 CA         53.0050  -12.8530   28.3960 C.3      12 GLL5        0.0000 
@<TRIPOS>BOND
@<TRIPOS>SUBSTRUCTURE
     1 ALC1       43 GROUP        1 X    ALC  0     ROOT ALC X 1
     2 SEC2        1 GROUP        1 X    SEC  0     **** SEC X 2
     3 LYC4       11 GROUP        1 X    LYC  0     **** LYC X 4
     4 GLC5       35 GROUP        1 X    GLC  0     **** GLC X 6
     5 ALP1       45 GROUP        1 Y    ALP  0     ROOT ALP Y 8
     6 SEP2        3 GROUP        1 Y    SEP  0     **** SEP Y 9
     7 LYP4       13 GROUP        1 Y    LYP  0     **** LYP Y 11
     8 GLP5       37 GROUP        1 Y    GLP  0     **** GLP Y 13
     9 ALL1       44 GROUP        1 Z    ALL  0     ROOT ALL Z 15
    10 SEL2        2 GROUP        1 Z    SEL  0     **** SEL Z 16
    11 LYL4       12 GROUP        1 Z    LYL  0     **** LYL Z 18
    12 GLL5       36 GROUP        1 Z    GLL  0     **** GLL Z 20
@<TRIPOS>SET

