#    Name: 3mn6_ATP_2_ligand
#    Modification time : Mon Mar 24 23:27:00 2014

@<TRIPOS>MOLECULE
3mn6_ATP_2_ligand
   43    45     1     0     0
SMALL
NO_CHARGES


@<TRIPOS>ATOM
      1 PG         48.0850  -15.9070   39.3920 P.3       1 ATP800      0.0000 
      2 O1G        49.5100  -15.7530   39.8420 O.co2     1 ATP800      0.0000 
      3 O2G        47.8540  -17.1720   38.6030 O.co2     1 ATP800      0.0000 
      4 O3G        47.0880  -15.6330   40.4900 O.co2     1 ATP800      0.0000 
      5 PB         46.9310  -14.5080   37.0680 P.3       1 ATP800      0.0000 
      6 O1B        45.8840  -15.5860   36.9660 O.co2     1 ATP800      0.0000 
      7 O2B        46.5030  -13.0740   36.9560 O.co2     1 ATP800      0.0000 
      8 O3B        47.7930  -14.6210   38.4400 O.3       1 ATP800      0.0000 
      9 PA         47.8850  -15.0670   34.3750 P.3       1 ATP800      0.0000 
     10 O1A        48.0210  -16.5520   34.1340 O.co2     1 ATP800      0.0000 
     11 O2A        46.6460  -14.3430   33.8860 O.co2     1 ATP800      0.0000 
     12 O3A        48.0900  -14.7830   35.9620 O.3       1 ATP800      0.0000 
     13 O5'        49.1870  -14.3420   33.7460 O.3       1 ATP800      0.0000 
     14 C5'        49.4190  -12.9240   33.7960 C.3       1 ATP800      0.0000 
     15 C4'        50.9390  -12.6520   33.8220 C.3       1 ATP800      0.0000 
     16 O4'        51.5580  -13.2150   32.6590 O.3       1 ATP800      0.0000 
     17 C3'        51.3220  -11.1640   33.8280 C.3       1 ATP800      0.0000 
     18 O3'        52.4230  -10.9520   34.7360 O.3       1 ATP800      0.0000 
     19 C2'        51.7830  -10.8710   32.4120 C.3       1 ATP800      0.0000 
     20 O2'        52.7380   -9.7810   32.3290 O.3       1 ATP800      0.0000 
     21 C1'        52.3590  -12.2220   31.9870 C.3       1 ATP800      0.0000 
     22 N9         52.3750  -12.4240   30.5070 N.pl3     1 ATP800      0.0000 
     23 C8         51.3180  -12.3050   29.6640 C.2       1 ATP800      0.0000 
     24 N7         51.6780  -12.5590   28.3760 N.2       1 ATP800      0.0000 
     25 C5         53.0050  -12.8530   28.3960 C.ar      1 ATP800      0.0000 
     26 C6         54.0270  -13.2100   27.3890 C.ar      1 ATP800      0.0000 
     27 N6         53.6990  -13.3110   26.0770 N.pl3     1 ATP800      0.0000 
     28 N1         55.2950  -13.4290   27.8200 N.ar      1 ATP800      0.0000 
     29 C2         55.6440  -13.3390   29.1280 C.ar      1 ATP800      0.0000 
     30 N3         54.7710  -13.0070   30.0950 N.ar      1 ATP800      0.0000 
     31 C4         53.4590  -12.7590   29.7950 C.ar      1 ATP800      0.0000 
     32 H          48.9886  -12.4733   34.6928 H         1 ATP800      0.0000 
     33 H          49.0083  -12.4141   32.9219 H         1 ATP800      0.0000 
     34 H          51.3564  -13.1052   34.7149 H         1 ATP800      0.0000 
     35 H          50.4768  -10.5913   34.0499 H         1 ATP800      0.0000 
     36 H          50.9012  -10.7028   31.8161 H         1 ATP800      0.0000 
     37 H          53.3798  -12.2662   32.3737 H         1 ATP800      0.0000 
     38 H          50.4086  -12.0662   29.9452 H         1 ATP800      0.0000 
     39 H          54.4500  -13.5198   25.4505 H         1 ATP800      0.0000 
     40 H          52.7352  -13.1678   25.8521 H         1 ATP800      0.0000 
     41 H          56.6514  -13.5405   29.3942 H         1 ATP800      0.0000 
     42 H          52.0102  -10.5519   35.5542 H         1 ATP800      0.0000 
     43 H          52.5863   -9.3721   31.4291 H         1 ATP800      0.0000 
@<TRIPOS>BOND
     1    2    1 ar   
     2    3    1 ar   
     3    4    1 ar   
     4    8    1 1    
     5    6    5 ar   
     6    7    5 ar   
     7    8    5 1    
     8   12    5 1    
     9   10    9 ar   
    10   11    9 ar   
    11   12    9 1    
    12   13    9 1    
    13   14   13 1    
    14   15   14 1    
    15   32   14 1    
    16   33   14 1    
    17   16   15 1    
    18   17   15 1    
    19   34   15 1    
    20   21   16 1    
    21   18   17 1    
    22   19   17 1    
    23   35   17 1    
    24   42   18 1    
    25   20   19 1    
    26   21   19 1    
    27   36   19 1    
    28   43   20 1    
    29   22   21 1    
    30   37   21 1    
    31   23   22 1    
    32   31   22 1    
    33   24   23 2    
    34   38   23 1    
    35   25   24 1    
    36   26   25 ar   
    37   31   25 ar   
    38   27   26 1    
    39   28   26 ar   
    40   39   27 1    
    41   40   27 1    
    42   29   28 ar   
    43   30   29 ar   
    44   41   29 1    
    45   31   30 ar   
@<TRIPOS>SUBSTRUCTURE
     1 ATP800      1 GROUP   
@<TRIPOS>SET

