#    Name: 4kw5_1W6_3_INTS_M
#    Modification time : Tue Mar 25 09:08:58 2014

@<TRIPOS>MOLECULE
4kw5_1W6_3_INTS_M
   30     0     6     0     0
SMALL
NO_CHARGES


@<TRIPOS>ATOM
      1 CA        -22.0345  -24.2660    5.8895 C.3       2 GLC5        0.0000 
      2 CA        -23.4030  -25.6850    4.8950 C.3       6 GLL5        0.0000 
      3 CA        -20.6660  -22.8470    6.8840 C.3       4 GLP5        0.0000 
      4 CA        -25.7120  -18.5360    6.0775 C.3       2 GLC5        0.0000 
      5 CA        -26.9680  -20.0920    5.5480 C.3       6 GLL5        0.0000 
      6 CA        -24.4560  -16.9800    6.6070 C.3       4 GLP5        0.0000 
      7 N         -27.7545  -22.8405    9.9895 N.am      1 SEC2        0.0000 
      8 N         -26.4410  -23.3760    9.4610 N.am      5 SEL2        0.0000 
      9 N         -29.0680  -22.3050   10.5180 N.am      3 SEP2        0.0000 
     10 CA        -22.8465  -27.6955   10.5820 C.3       2 GLC5        0.0000 
     11 CA        -23.8050  -26.9120    9.2560 C.3       6 GLL5        0.0000 
     12 CA        -21.8880  -28.4790   11.9080 C.3       4 GLP5        0.0000 
     13 CA        -20.6145  -27.1547    3.7275 C.3       2 GLC5        0.0000 
     14 CA        -22.0840  -28.0630    4.7560 C.3       6 GLL5        0.0000 
     15 CA        -18.8310  -26.7730    3.0270 C.3       4 GLP5        0.0000 
     16 CA        -20.2165  -27.9280    3.1723 C.3       2 GLC5        0.0000 
     17 CA        -21.5510  -29.1000    4.0080 C.3       6 GLL5        0.0000 
     18 CA        -20.6925  -27.1253    2.6905 C.3       2 GLC5        0.0000 
     19 CA        -22.2820  -28.0020    1.9850 C.3       6 GLL5        0.0000 
     20 CA        -27.5138  -22.9715    5.6685 C.3       2 GLC5        0.0000 
     21 CA        -25.8470  -21.9250    4.5910 C.3       6 GLL5        0.0000 
     22 CA        -28.9920  -24.3490    6.1280 C.3       4 GLP5        0.0000 
     23 CA        -28.5270  -18.7357    5.8490 C.3       2 GLC5        0.0000 
     24 CA        -27.1780  -19.8270    4.2400 C.3       6 GLL5        0.0000 
     25 CA        -29.9810  -17.5120    6.8040 C.3       4 GLP5        0.0000 
     26 CA        -26.3680  -18.7731    3.6686 C.3       2 GLC5        0.0000 
     27 CA        -25.8370  -17.2950    2.6850 C.3       4 GLP5        0.0000 
     28 CA        -25.3515  -27.3300    9.1852 C.3       2 GLC5        0.0000 
     29 CA        -24.0110  -25.5780    8.6210 C.3       6 GLL5        0.0000 
     30 CA        -26.7950  -28.4150    9.4320 C.3       4 GLP5        0.0000 
@<TRIPOS>BOND
@<TRIPOS>SUBSTRUCTURE
     1 SEC2        7 GROUP        1 X    SEC  0     ROOT SEC X 2
     2 GLC5        1 GROUP        1 X    GLC  0     **** GLC X 6
     3 SEP2        9 GROUP        1 Y    SEP  0     ROOT SEP Y 9
     4 GLP5        3 GROUP        1 Y    GLP  0     **** GLP Y 13
     5 SEL2        8 GROUP        1 Z    SEL  0     ROOT SEL Z 16
     6 GLL5        2 GROUP        1 Z    GLL  0     **** GLL Z 20
@<TRIPOS>SET

