#    Name: 4kw5_1W6_3_ligand
#    Modification time : Tue Mar 25 09:08:58 2014

@<TRIPOS>MOLECULE
4kw5_1W6_3_ligand
   38    40     1     0     0
SMALL
NO_CHARGES


@<TRIPOS>ATOM
      1 O12       -24.7730  -23.2390    2.1650 O.2       1 1W6502      0.0000 
      2 C12       -24.6030  -23.7280    3.2750 C.2       1 1W6502      0.0000 
      3 C26       -23.8620  -25.0130    3.3860 C.2       1 1W6502      0.0000 
      4 S27       -23.4030  -25.6850    4.8950 S.3       1 1W6502      0.0000 
      5 C28       -22.7120  -27.0100    4.1000 C.ar      1 1W6502      0.0000 
      6 C34       -22.0840  -28.0630    4.7560 C.ar      1 1W6502      0.0000 
      7 C33       -21.5510  -29.1000    4.0080 C.ar      1 1W6502      0.0000 
      8 C32       -21.6530  -29.0660    2.6270 C.ar      1 1W6502      0.0000 
      9 C31       -22.2820  -28.0020    1.9850 C.ar      1 1W6502      0.0000 
     10 C29       -22.8260  -26.9530    2.7230 C.ar      1 1W6502      0.0000 
     11 N30       -23.4820  -25.8160    2.3370 N.2       1 1W6502      0.0000 
     12 N13       -25.0930  -23.1500    4.5020 N.am      1 1W6502      0.0000 
     13 C14       -25.8470  -21.9250    4.5910 C.2       1 1W6502      0.0000 
     14 S15       -26.4820  -20.9940    3.2730 S.3       1 1W6502      0.0000 
     15 C16       -27.1780  -19.8270    4.2400 C.2       1 1W6502      0.0000 
     16 C17       -26.9680  -20.0920    5.5480 C.2       1 1W6502      0.0000 
     17 C18       -26.2240  -21.2630    5.8270 C.2       1 1W6502      0.0000 
     18 C19       -25.9060  -21.7040    7.2190 C.2       1 1W6502      0.0000 
     19 O19       -26.4220  -21.0340    8.1090 O.2       1 1W6502      0.0000 
     20 N20       -25.3190  -22.9990    7.4840 N.am      1 1W6502      0.0000 
     21 C21       -25.7020  -23.8450    8.5960 C.2       1 1W6502      0.0000 
     22 O22       -26.4410  -23.3760    9.4610 O.2       1 1W6502      0.0000 
     23 O21       -25.3380  -25.1870    8.6760 O.3       1 1W6502      0.0000 
     24 C37       -24.0110  -25.5780    8.6210 C.3       1 1W6502      0.0000 
     25 C38       -23.8050  -26.9120    9.2560 C.3       1 1W6502      0.0000 
     26 H         -22.0178  -28.0696    5.7765 H         1 1W6502      0.0000 
     27 H         -21.0845  -29.8868    4.4731 H         1 1W6502      0.0000 
     28 H         -21.2586  -29.8380    2.0631 H         1 1W6502      0.0000 
     29 H         -22.3456  -27.9904    0.9561 H         1 1W6502      0.0000 
     30 H         -24.8856  -23.6578    5.3934 H         1 1W6502      0.0000 
     31 H         -27.6192  -19.1458    3.7784 H         1 1W6502      0.0000 
     32 H         -27.3042  -19.5162    6.2962 H         1 1W6502      0.0000 
     33 H         -24.5811  -23.3428    6.8413 H         1 1W6502      0.0000 
     34 H         -23.3408  -24.8522    9.1336 H         1 1W6502      0.0000 
     35 H         -23.6376  -25.6402    7.5744 H         1 1W6502      0.0000 
     36 H         -22.8475  -27.1979    9.2173 H         1 1W6502      0.0000 
     37 H         -24.0715  -26.9096   10.2198 H         1 1W6502      0.0000 
     38 H         -24.3422  -27.6249    8.8051 H         1 1W6502      0.0000 
@<TRIPOS>BOND
     1    2    1 2    
     2    3    2 1    
     3   12    2 am   
     4    4    3 1    
     5   11    3 2    
     6    5    4 1    
     7    6    5 ar   
     8   10    5 ar   
     9    7    6 ar   
    10   26    6 1    
    11    8    7 ar   
    12   27    7 1    
    13    9    8 ar   
    14   28    8 1    
    15   10    9 ar   
    16   29    9 1    
    17   11   10 1    
    18   13   12 1    
    19   30   12 1    
    20   14   13 1    
    21   17   13 2    
    22   15   14 1    
    23   16   15 2    
    24   31   15 1    
    25   17   16 1    
    26   32   16 1    
    27   18   17 1    
    28   19   18 2    
    29   20   18 am   
    30   21   20 am   
    31   33   20 1    
    32   22   21 2    
    33   23   21 1    
    34   24   23 1    
    35   25   24 1    
    36   34   24 1    
    37   35   24 1    
    38   36   25 1    
    39   37   25 1    
    40   38   25 1    
@<TRIPOS>SUBSTRUCTURE
     1 1W6502      1 GROUP   
@<TRIPOS>SET

