#    Name: 2h94_FAD_1_INTS_M
#    Modification time : Tue Mar 25 15:44:30 2014

@<TRIPOS>MOLECULE
2h94_FAD_1_INTS_M
  135     0    12     0     0
SMALL
NO_CHARGES


@<TRIPOS>ATOM
      1 NZ         26.0645   41.8480   92.4340 N.4       3 LYC4        0.0000 
      2 NZ         26.1880   41.8590   91.0560 N.4      11 LYL4        0.0000 
      3 NZ         25.7250   43.1430   93.7810 N.4       7 LYP4        0.0000 
      4 N          25.7960   42.7970   91.8435 N.am      2 SEC2        0.0000 
      5 N          26.1880   41.8590   91.0560 N.am     10 SEL2        0.0000 
      6 N          25.4040   43.7350   92.6310 N.am      6 SEP2        0.0000 
      7 N          26.0645   41.8480   92.4340 N.am      2 SEC2        0.0000 
      8 N          25.9410   41.8370   93.8120 N.am      6 SEP2        0.0000 
      9 N          26.1920   42.9155   88.2265 N.am      2 SEC2        0.0000 
     10 N          26.6430   41.4290   88.4620 N.am     10 SEL2        0.0000 
     11 N          25.7410   44.4020   87.9910 N.am      6 SEP2        0.0000 
     12 CA         23.7700   38.5145   90.8900 C.3       4 GLC5        0.0000 
     13 CA         24.9710   38.5340   89.3330 C.3      12 GLL5        0.0000 
     14 CA         22.5690   38.4950   92.4470 C.3       8 GLP5        0.0000 
     15 CA         25.8270   39.8210   87.0395 C.3       4 GLC5        0.0000 
     16 CA         23.6450   40.0070   87.5470 C.3      12 GLL5        0.0000 
     17 CA         28.0090   39.6350   86.5320 C.3       8 GLP5        0.0000 
     18 O          22.8705   39.9070   85.3140 O.2       1 ALC1        0.0000 
     19 O          23.9770   40.3200   86.2030 O.2       9 ALL1        0.0000 
     20 O          21.7640   39.4940   84.4250 O.2       5 ALP1        0.0000 
     21 CA         20.1185   40.7195   88.0180 C.3       4 GLC5        0.0000 
     22 CA         22.1380   39.8290   87.7640 C.3      12 GLL5        0.0000 
     23 CA         18.0990   41.6100   88.2720 C.3       8 GLP5        0.0000 
     24 N          21.1700   41.6870   86.2995 N.am      2 SEC2        0.0000 
     25 N          21.2690   40.6390   87.0010 N.am     10 SEL2        0.0000 
     26 N          21.0710   42.7350   85.5980 N.am      6 SEP2        0.0000 
     27 N          21.0105   41.9550   87.4080 N.am      2 SEC2        0.0000 
     28 N          20.7520   43.2710   87.8150 N.am      6 SEP2        0.0000 
     29 O          21.5165   40.0665   85.7130 O.2       1 ALC1        0.0000 
     30 O          21.2690   40.6390   87.0010 O.2       9 ALL1        0.0000 
     31 CA         22.9375   36.7945   87.0105 C.3       4 GLC5        0.0000 
     32 CA         21.9270   38.3530   87.5210 C.3      12 GLL5        0.0000 
     33 CA         23.9480   35.2360   86.5000 C.3       8 GLP5        0.0000 
     34 O          16.5490   33.4030   89.4135 O.2       1 ALC1        0.0000 
     35 O          17.2440   34.9720   89.5170 O.2       9 ALL1        0.0000 
     36 O          15.8540   31.8340   89.3100 O.2       5 ALP1        0.0000 
     37 N          17.5715   33.1555   87.0990 N.am      2 SEC2        0.0000 
     38 N          18.5180   34.3220   87.6850 N.am     10 SEL2        0.0000 
     39 N          16.6250   31.9890   86.5130 N.am      6 SEP2        0.0000 
     40 CA         20.5895   33.3730   87.8950 C.3       4 GLC5        0.0000 
     41 CA         19.5610   34.5870   86.8440 C.3      12 GLL5        0.0000 
     42 CA         21.6180   32.1590   88.9460 C.3       8 GLP5        0.0000 
     43 CA         21.7545   34.9115   86.6720 C.3       4 GLC5        0.0000 
     44 CA         20.5300   35.1200   84.9220 C.3       4 GLC5        0.0000 
     45 CA         21.4990   35.6530   83.0000 C.3       8 GLP5        0.0000 
     46 CA         18.4150   35.5330   85.9155 C.3       4 GLC5        0.0000 
     47 CA         17.2690   36.4790   84.9870 C.3       8 GLP5        0.0000 
     48 CA         17.6145   34.1285   85.9470 C.3       4 GLC5        0.0000 
     49 CA         15.6680   33.6700   85.0500 C.3       8 GLP5        0.0000 
     50 N          19.8875   36.0485   85.3305 N.am      2 SEC2        0.0000 
     51 N          20.4020   35.6530   86.8550 N.am     10 SEL2        0.0000 
     52 N          19.3730   36.4440   83.8060 N.am      6 SEP2        0.0000 
     53 CA         22.0205   35.8895   87.2015 C.3       4 GLC5        0.0000 
     54 CA         20.0930   36.5430   87.9030 C.3      12 GLL5        0.0000 
     55 N          34.2580   46.7470   92.5540 N.am      2 SEC2        0.0000 
     56 N          34.4930   48.0480   92.7100 N.am     10 SEL2        0.0000 
     57 N          34.0230   45.4460   92.3980 N.am      6 SEP2        0.0000 
     58 O          34.7815   50.8335   91.6260 O.2       1 ALC1        0.0000 
     59 O          33.6680   50.1400   92.4560 O.2       9 ALL1        0.0000 
     60 O          35.8950   51.5270   90.7960 O.2       5 ALP1        0.0000 
     61 N          32.3125   52.3520   90.6835 N.am      2 SEC2        0.0000 
     62 N          32.9090   52.3200   92.1740 N.am     10 SEL2        0.0000 
     63 N          31.7160   52.3840   89.1930 N.am      6 SEP2        0.0000 
     64 N          33.5260   52.9655   91.0900 N.am      2 SEC2        0.0000 
     65 N          34.1430   53.6110   90.0060 N.am      6 SEP2        0.0000 
     66 CA         27.4870   53.8915   91.7745 C.3       4 GLC5        0.0000 
     67 CA         27.8770   51.9400   92.6430 C.3      12 GLL5        0.0000 
     68 CA         27.0970   55.8430   90.9060 C.3       8 GLP5        0.0000 
     69 CA         25.2980   53.2570   94.2725 C.3       4 GLC5        0.0000 
     70 CA         25.4480   52.5570   92.6050 C.3      12 GLL5        0.0000 
     71 CA         25.1480   53.9570   95.9400 C.3       8 GLP5        0.0000 
     72 CA         26.2725   54.2000   91.7555 C.3       4 GLC5        0.0000 
     73 CA         23.4955   51.9490   92.1655 C.3       4 GLC5        0.0000 
     74 CA         21.5430   51.3410   91.7260 C.3       8 GLP5        0.0000 
     75 CA         25.4330   49.7635   94.7515 C.3       4 GLC5        0.0000 
     76 CA         26.2710   50.1230   92.8590 C.3      12 GLL5        0.0000 
     77 CA         24.5950   49.4040   96.6440 C.3       8 GLP5        0.0000 
     78 CA         25.0135   47.3745   92.6915 C.3       4 GLC5        0.0000 
     79 CA         24.8610   49.5810   92.9180 C.3      12 GLL5        0.0000 
     80 CA         25.1660   45.1680   92.4650 C.3       8 GLP5        0.0000 
     81 CA         23.2950   49.4205   91.9230 C.3       4 GLC5        0.0000 
     82 CA         21.7290   49.2600   90.9280 C.3       8 GLP5        0.0000 
     83 CA         24.4030   48.9300   94.3845 C.3       4 GLC5        0.0000 
     84 CA         23.9450   48.2790   95.8510 C.3       8 GLP5        0.0000 
     85 CA         28.7765   47.9175   94.7235 C.3       4 GLC5        0.0000 
     86 CA         29.5430   47.2460   93.1710 C.3      12 GLL5        0.0000 
     87 CA         28.0100   48.5890   96.2760 C.3       8 GLP5        0.0000 
     88 CA         30.6030   47.7620   90.6300 C.3       4 GLC5        0.0000 
     89 CA         29.9810   46.2890   92.0690 C.3      12 GLL5        0.0000 
     90 CA         31.2250   49.2350   89.1910 C.3       8 GLP5        0.0000 
     91 CA         31.6025   46.4860   91.0085 C.3       4 GLC5        0.0000 
     92 CA         33.2240   46.6830   89.9480 C.3       8 GLP5        0.0000 
     93 O          31.6465   44.1220   93.6410 O.2       1 ALC1        0.0000 
     94 O          30.0400   44.5600   93.7090 O.2       9 ALL1        0.0000 
     95 O          33.2530   43.6840   93.5730 O.2       5 ALP1        0.0000 
     96 CA         28.0020   44.6090   90.8080 C.3       4 GLC5        0.0000 
     97 CA         29.8140   43.7620   91.4630 C.3      12 GLL5        0.0000 
     98 CA         26.1900   45.4560   90.1530 C.3       8 GLP5        0.0000 
     99 CA         31.9590   44.2390   91.3015 C.3       4 GLC5        0.0000 
    100 CA         34.1040   44.7160   91.1400 C.3       8 GLP5        0.0000 
    101 N          30.5975   38.8910   89.2545 N.am      2 SEC2        0.0000 
    102 N          29.5340   39.3200   89.9630 N.am     10 SEL2        0.0000 
    103 N          31.6610   38.4620   88.5460 N.am      6 SEP2        0.0000 
    104 N          29.7440   38.0970   90.1490 N.am      2 SEC2        0.0000 
    105 N          29.9540   36.8740   90.3350 N.am      6 SEP2        0.0000 
    106 N          29.2770   39.5230   93.5535 N.am      2 SEC2        0.0000 
    107 N          28.2810   39.5780   92.1330 N.am     10 SEL2        0.0000 
    108 N          30.2730   39.4680   94.9740 N.am      6 SEP2        0.0000 
    109 N          27.2720   38.9090   92.8105 N.am      2 SEC2        0.0000 
    110 N          26.2630   38.2400   93.4880 N.am      6 SEP2        0.0000 
    111 CA         24.2785   36.9188   87.5807 C.3       4 GLC5        0.0000 
    112 CA         26.3090   39.1183   87.5968 C.3       4 GLC5        0.0000 
    113 CA         24.2470   38.6690   87.9900 C.3      12 GLL5        0.0000 
    114 CA         25.9475   37.3618   89.2253 C.3       4 GLC5        0.0000 
    115 CA         27.2860   36.1220   89.7890 C.3       8 GLP5        0.0000 
    116 CA         23.9393   41.4175   86.9483 C.3       4 GLC5        0.0000 
    117 CA         24.9870   42.9170   86.2410 C.3       8 GLP5        0.0000 
    118 CA         18.3241   36.3257   86.6540 C.3       4 GLC5        0.0000 
    119 CA         19.0790   36.3960   88.7960 C.3      12 GLL5        0.0000 
    120 CA         19.8341   35.4292   89.9495 C.3       4 GLC5        0.0000 
    121 CA         20.2890   34.6860   91.5780 C.3       8 GLP5        0.0000 
    122 CA         26.7930   52.4428   94.5245 C.3       4 GLC5        0.0000 
    123 CA         26.3690   53.1610   96.3720 C.3       8 GLP5        0.0000 
    124 CA         26.5580   50.7425   90.6370 C.3       4 GLC5        0.0000 
    125 CA         26.5570   51.5090   92.7110 C.3      12 GLL5        0.0000 
    126 CA         26.7020   50.6690   88.4890 C.3       8 GLP5        0.0000 
    127 CA         29.4597   50.4805   91.1128 C.3       4 GLC5        0.0000 
    128 CA         28.9810   51.0200   92.7290 C.3      12 GLL5        0.0000 
    129 CA         30.3460   50.4180   89.4320 C.3       8 GLP5        0.0000 
    130 CA         27.9570   45.5263   91.2073 C.3       4 GLC5        0.0000 
    131 CA         31.0325   41.9465   91.7725 C.3       4 GLC5        0.0000 
    132 CA         29.2100   42.4760   91.9590 C.3      12 GLL5        0.0000 
    133 CA         32.5530   40.7740   91.8340 C.3       8 GLP5        0.0000 
    134 CA         29.5921   42.5822   93.7219 C.3       4 GLC5        0.0000 
    135 CA         29.7590   41.7600   95.4850 C.3       8 GLP5        0.0000 
@<TRIPOS>BOND
@<TRIPOS>SUBSTRUCTURE
     1 ALC1       18 GROUP        1 X    ALC  0     ROOT ALC X 1
     2 SEC2        4 GROUP        1 X    SEC  0     **** SEC X 2
     3 LYC4        1 GROUP        1 X    LYC  0     **** LYC X 4
     4 GLC5       12 GROUP        1 X    GLC  0     **** GLC X 6
     5 ALP1       20 GROUP        1 Y    ALP  0     ROOT ALP Y 8
     6 SEP2        6 GROUP        1 Y    SEP  0     **** SEP Y 9
     7 LYP4        3 GROUP        1 Y    LYP  0     **** LYP Y 11
     8 GLP5       14 GROUP        1 Y    GLP  0     **** GLP Y 13
     9 ALL1       19 GROUP        1 Z    ALL  0     ROOT ALL Z 15
    10 SEL2        5 GROUP        1 Z    SEL  0     **** SEL Z 16
    11 LYL4        2 GROUP        1 Z    LYL  0     **** LYL Z 18
    12 GLL5       13 GROUP        1 Z    GLL  0     **** GLL Z 20
@<TRIPOS>SET

