#    Name: 2h94_FAD_1_ligand
#    Modification time : Tue Mar 25 15:44:30 2014

@<TRIPOS>MOLECULE
2h94_FAD_1_ligand
   84    89     1     0     0
SMALL
NO_CHARGES


@<TRIPOS>ATOM
      1 PA         25.9910   41.2110   89.7570 P.3       1 FAD5000     0.0000 
      2 O1A        26.1880   41.8590   91.0560 O.co2     1 FAD5000     0.0000 
      3 O2A        26.6430   41.4290   88.4620 O.co2     1 FAD5000     0.0000 
      4 O5B        25.3740   39.7350   90.1050 O.3       1 FAD5000     0.0000 
      5 C5B        24.9710   38.5340   89.3330 C.3       1 FAD5000     0.0000 
      6 C4B        24.2470   38.6690   87.9900 C.3       1 FAD5000     0.0000 
      7 O4B        23.1340   37.7290   87.9810 O.3       1 FAD5000     0.0000 
      8 C3B        23.6450   40.0070   87.5470 C.3       1 FAD5000     0.0000 
      9 O3B        23.9770   40.3200   86.2030 O.3       1 FAD5000     0.0000 
     10 C2B        22.1380   39.8290   87.7640 C.3       1 FAD5000     0.0000 
     11 O2B        21.2690   40.6390   87.0010 O.3       1 FAD5000     0.0000 
     12 C1B        21.9270   38.3530   87.5210 C.3       1 FAD5000     0.0000 
     13 N9A        20.7560   37.7480   88.2110 N.pl3     1 FAD5000     0.0000 
     14 C8A        20.0610   38.2210   89.2950 C.2       1 FAD5000     0.0000 
     15 N7A        19.0560   37.4570   89.6860 N.2       1 FAD5000     0.0000 
     16 C5A        19.0790   36.3960   88.7960 C.ar      1 FAD5000     0.0000 
     17 C6A        18.2520   35.2080   88.6820 C.ar      1 FAD5000     0.0000 
     18 N6A        17.2440   34.9720   89.5170 N.pl3     1 FAD5000     0.0000 
     19 N1A        18.5180   34.3220   87.6850 N.ar      1 FAD5000     0.0000 
     20 C2A        19.5610   34.5870   86.8440 C.ar      1 FAD5000     0.0000 
     21 N3A        20.4020   35.6530   86.8550 N.ar      1 FAD5000     0.0000 
     22 C4A        20.0930   36.5430   87.9030 C.ar      1 FAD5000     0.0000 
     23 N1         32.1920   48.2910   92.8870 N.2       1 FAD5000     0.0000 
     24 C2         33.4730   48.7780   92.7050 C.2       1 FAD5000     0.0000 
     25 O2         34.4930   48.0480   92.7100 O.2       1 FAD5000     0.0000 
     26 N3         33.6680   50.1400   92.4560 N.am      1 FAD5000     0.0000 
     27 C4         32.6420   51.1010   92.4190 C.2       1 FAD5000     0.0000 
     28 O4         32.9090   52.3200   92.1740 O.2       1 FAD5000     0.0000 
     29 C4X        31.3370   50.5990   92.6510 C.2       1 FAD5000     0.0000 
     30 N5         30.2650   51.5090   92.6030 N.2       1 FAD5000     0.0000 
     31 C5X        28.9810   51.0200   92.7290 C.ar      1 FAD5000     0.0000 
     32 C6         27.8770   51.9400   92.6430 C.ar      1 FAD5000     0.0000 
     33 C7         26.5570   51.5090   92.7110 C.ar      1 FAD5000     0.0000 
     34 C7M        25.4480   52.5570   92.6050 C.3       1 FAD5000     0.0000 
     35 C8         26.2710   50.1230   92.8590 C.ar      1 FAD5000     0.0000 
     36 C8M        24.8610   49.5810   92.9180 C.3       1 FAD5000     0.0000 
     37 C9         27.3740   49.1840   92.9580 C.ar      1 FAD5000     0.0000 
     38 C9A        28.7180   49.6060   92.9010 C.ar      1 FAD5000     0.0000 
     39 N10        29.8370   48.6850   92.9820 N.pl3     1 FAD5000     0.0000 
     40 C10        31.1420   49.1820   92.8460 C.2       1 FAD5000     0.0000 
     41 C1'        29.5430   47.2460   93.1710 C.3       1 FAD5000     0.0000 
     42 C2'        29.9810   46.2890   92.0690 C.3       1 FAD5000     0.0000 
     43 O2'        29.4760   46.7640   90.8370 O.3       1 FAD5000     0.0000 
     44 C3'        29.4670   44.9040   92.4540 C.3       1 FAD5000     0.0000 
     45 O3'        30.0400   44.5600   93.7090 O.3       1 FAD5000     0.0000 
     46 C4'        29.8140   43.7620   91.4630 C.3       1 FAD5000     0.0000 
     47 O4'        29.2900   44.0460   90.1770 O.3       1 FAD5000     0.0000 
     48 C5'        29.2100   42.4760   91.9590 C.3       1 FAD5000     0.0000 
     49 O5'        29.5810   41.4280   91.0890 O.3       1 FAD5000     0.0000 
     50 P          28.7060   40.1370   90.8280 P.3       1 FAD5000     0.0000 
     51 O1P        29.5340   39.3200   89.9630 O.co2     1 FAD5000     0.0000 
     52 O2P        28.2810   39.5780   92.1330 O.co2     1 FAD5000     0.0000 
     53 O3P        27.3900   40.4300   89.9090 O.3       1 FAD5000     0.0000 
     54 H          24.3280   37.8670   89.9951 H         1 FAD5000     0.0000 
     55 H          25.8884   37.8831   89.1556 H         1 FAD5000     0.0000 
     56 H          24.9395   38.3359   87.1886 H         1 FAD5000     0.0000 
     57 H          23.9822   40.7520   88.2522 H         1 FAD5000     0.0000 
     58 H          21.9786   39.9654   88.8563 H         1 FAD5000     0.0000 
     59 H          21.8437   38.1999   86.4463 H         1 FAD5000     0.0000 
     60 H          20.3174   39.0882   89.7414 H         1 FAD5000     0.0000 
     61 H          16.7468   34.1159   89.3757 H         1 FAD5000     0.0000 
     62 H          17.0742   35.6719   90.2107 H         1 FAD5000     0.0000 
     63 H          19.7398   33.8416   86.0604 H         1 FAD5000     0.0000 
     64 H          34.6563   50.4744   92.2828 H         1 FAD5000     0.0000 
     65 H          28.0935   52.9438   92.5277 H         1 FAD5000     0.0000 
     66 H          27.1501   48.1868   93.0726 H         1 FAD5000     0.0000 
     67 H          28.4390   47.1070   93.3274 H         1 FAD5000     0.0000 
     68 H          30.0022   46.8936   94.1341 H         1 FAD5000     0.0000 
     69 H          31.0620   46.2636   92.0873 H         1 FAD5000     0.0000 
     70 H          28.3858   44.9465   92.5451 H         1 FAD5000     0.0000 
     71 H          30.8833   43.6572   91.4470 H         1 FAD5000     0.0000 
     72 H          28.1210   42.6051   92.0031 H         1 FAD5000     0.0000 
     73 H          29.5667   42.3038   92.9825 H         1 FAD5000     0.0000 
     74 H          25.5075   53.2360   93.3368 H         1 FAD5000     0.0000 
     75 H          25.4893   53.0551   91.7389 H         1 FAD5000     0.0000 
     76 H          24.5394   52.1433   92.6621 H         1 FAD5000     0.0000 
     77 H          24.8495   48.5869   93.0255 H         1 FAD5000     0.0000 
     78 H          24.3474   49.9648   93.6854 H         1 FAD5000     0.0000 
     79 H          24.3469   49.7919   92.0866 H         1 FAD5000     0.0000 
     80 H          23.1771   40.0469   85.6686 H         1 FAD5000     0.0000 
     81 H          21.3648   40.3083   86.0621 H         1 FAD5000     0.0000 
     82 H          29.2413   45.9413   90.3192 H         1 FAD5000     0.0000 
     83 H          30.9961   44.3474   93.5073 H         1 FAD5000     0.0000 
     84 H          29.5780   43.2780   89.6049 H         1 FAD5000     0.0000 
@<TRIPOS>BOND
     1    2    1 ar   
     2    3    1 ar   
     3    4    1 1    
     4   53    1 1    
     5    5    4 1    
     6    6    5 1    
     7   54    5 1    
     8   55    5 1    
     9    7    6 1    
    10    8    6 1    
    11   56    6 1    
    12   12    7 1    
    13    9    8 1    
    14   10    8 1    
    15   57    8 1    
    16   80    9 1    
    17   11   10 1    
    18   12   10 1    
    19   58   10 1    
    20   81   11 1    
    21   13   12 1    
    22   59   12 1    
    23   14   13 1    
    24   22   13 1    
    25   15   14 2    
    26   60   14 1    
    27   16   15 1    
    28   17   16 ar   
    29   22   16 ar   
    30   18   17 1    
    31   19   17 ar   
    32   61   18 1    
    33   62   18 1    
    34   20   19 ar   
    35   21   20 ar   
    36   63   20 1    
    37   22   21 ar   
    38   24   23 1    
    39   40   23 2    
    40   25   24 2    
    41   26   24 am   
    42   27   26 am   
    43   64   26 1    
    44   28   27 2    
    45   29   27 1    
    46   30   29 2    
    47   40   29 1    
    48   31   30 1    
    49   32   31 ar   
    50   38   31 ar   
    51   33   32 ar   
    52   65   32 1    
    53   34   33 1    
    54   35   33 ar   
    55   74   34 1    
    56   75   34 1    
    57   76   34 1    
    58   36   35 1    
    59   37   35 ar   
    60   77   36 1    
    61   78   36 1    
    62   79   36 1    
    63   38   37 ar   
    64   66   37 1    
    65   39   38 1    
    66   40   39 1    
    67   41   39 1    
    68   42   41 1    
    69   67   41 1    
    70   68   41 1    
    71   43   42 1    
    72   44   42 1    
    73   69   42 1    
    74   82   43 1    
    75   45   44 1    
    76   46   44 1    
    77   70   44 1    
    78   83   45 1    
    79   47   46 1    
    80   48   46 1    
    81   71   46 1    
    82   84   47 1    
    83   49   48 1    
    84   72   48 1    
    85   73   48 1    
    86   50   49 1    
    87   51   50 ar   
    88   52   50 ar   
    89   53   50 1    
@<TRIPOS>SUBSTRUCTURE
     1 FAD5000     1 GROUP   
@<TRIPOS>SET

