#    Name: 3qwp_SAM_1_INTS_M
#    Modification time : Mon Apr  7 19:54:22 2014

@<TRIPOS>MOLECULE
3qwp_SAM_1_INTS_M
   72     0     9     0     0
SMALL
NO_CHARGES


@<TRIPOS>ATOM
      1 O           9.7755  -14.3540  -23.6405 O.2       1 ALC1        0.0000 
      2 O          11.0700  -14.7360  -23.1300 O.2       7 ALL1        0.0000 
      3 O           8.4810  -13.9720  -24.1510 O.2       4 ALP1        0.0000 
      4 O          11.4885  -13.5205  -23.7330 O.2       1 ALC1        0.0000 
      5 O          11.9070  -12.3050  -24.3360 O.2       4 ALP1        0.0000 
      6 CA         11.6680  -16.0640  -20.1795 C.3       3 GLC5        0.0000 
      7 CA         10.8420  -14.5920  -21.6360 C.3       9 GLL5        0.0000 
      8 CA         12.4940  -17.5360  -18.7230 C.3       6 GLP5        0.0000 
      9 N           8.7600  -16.5700  -23.0995 N.am      2 SEC2        0.0000 
     10 N           9.5070  -16.5210  -21.9090 N.am      8 SEL2        0.0000 
     11 N           8.0130  -16.6190  -24.2900 N.am      5 SEP2        0.0000 
     12 N           8.4055  -16.2310  -19.6670 N.am      2 SEC2        0.0000 
     13 N           9.5750  -15.6950  -19.9230 N.am      8 SEL2        0.0000 
     14 N           7.2360  -16.7670  -19.4110 N.am      5 SEP2        0.0000 
     15 CA          8.9425  -11.9700  -20.7095 C.3       3 GLC5        0.0000 
     16 CA         10.4700  -13.1790  -21.1910 C.3       9 GLL5        0.0000 
     17 CA          7.4150  -10.7610  -20.2280 C.3       6 GLP5        0.0000 
     18 CA         11.9090  -10.8490  -22.7010 C.3       3 GLC5        0.0000 
     19 CA         11.7410  -12.2840  -21.0580 C.3       9 GLL5        0.0000 
     20 CA         12.0770   -9.4140  -24.3440 C.3       6 GLP5        0.0000 
     21 CA         11.3585  -11.1215  -17.4165 C.3       3 GLC5        0.0000 
     22 CA         12.9190  -11.2960  -18.7180 C.3       9 GLL5        0.0000 
     23 CA          9.7980  -10.9470  -16.1150 C.3       6 GLP5        0.0000 
     24 CA         13.9505  -10.1880  -20.0460 C.3       3 GLC5        0.0000 
     25 CA         14.9820   -9.0800  -21.3740 C.3       6 GLP5        0.0000 
     26 CA         15.3585  -11.2555  -20.7935 C.3       3 GLC5        0.0000 
     27 CA         14.4300  -12.9070  -20.3650 C.3       9 GLL5        0.0000 
     28 CA         16.2870   -9.6040  -21.2220 C.3       6 GLP5        0.0000 
     29 CA         16.4370  -12.3015  -19.6690 C.3       3 GLC5        0.0000 
     30 CA         18.4440  -11.6960  -18.9730 C.3       6 GLP5        0.0000 
     31 CA         14.1505  -16.1785  -20.3310 C.3       3 GLC5        0.0000 
     32 CA         14.6580  -14.1880  -21.1460 C.3       9 GLL5        0.0000 
     33 CA         13.6430  -18.1690  -19.5160 C.3       6 GLP5        0.0000 
     34 CA         17.9440  -13.6415  -21.1315 C.3       3 GLC5        0.0000 
     35 CA         16.1220  -14.3430  -21.5770 C.3       9 GLL5        0.0000 
     36 CA         19.7660  -12.9400  -20.6860 C.3       6 GLP5        0.0000 
     37 N          17.1025  -16.3275  -20.0480 N.am      2 SEC2        0.0000 
     38 N          16.9010  -15.0020  -20.5880 N.am      8 SEL2        0.0000 
     39 N          17.3040  -17.6530  -19.5080 N.am      5 SEP2        0.0000 
     40 O          18.1060  -15.3300  -21.0450 O.2       1 ALC1        0.0000 
     41 O          16.9010  -15.0020  -20.5880 O.2       7 ALL1        0.0000 
     42 O          19.3110  -15.6580  -21.5020 O.2       4 ALP1        0.0000 
     43 O          16.5645  -17.3650  -23.0950 O.2       1 ALC1        0.0000 
     44 O          15.5670  -16.5340  -22.5360 O.2       7 ALL1        0.0000 
     45 O          17.5620  -18.1960  -23.6540 O.2       4 ALP1        0.0000 
     46 N          14.6985   -9.8975  -24.9615 N.am      2 SEC2        0.0000 
     47 N          15.1480  -11.2920  -25.1140 N.am      8 SEL2        0.0000 
     48 N          14.2490   -8.5030  -24.8090 N.am      5 SEP2        0.0000 
     49 CA         13.6760  -11.1920  -25.8675 C.3       3 GLC5        0.0000 
     50 CA         15.5300  -12.1090  -26.1330 C.3       9 GLL5        0.0000 
     51 CA         11.8220  -10.2750  -25.6020 C.3       6 GLP5        0.0000 
     52 CA         16.0705  -10.1120  -25.3520 C.3       3 GLC5        0.0000 
     53 CA         16.6110   -8.1150  -24.5710 C.3       6 GLP5        0.0000 
     54 O          15.7375   -9.2400  -27.6675 O.2       1 ALC1        0.0000 
     55 O          16.0930  -10.6520  -27.9550 O.2       7 ALL1        0.0000 
     56 O          15.3820   -7.8280  -27.3800 O.2       4 ALP1        0.0000 
     57 N          17.2815  -12.9485  -29.3575 N.am      2 SEC2        0.0000 
     58 N          16.4020  -12.9540  -28.1410 N.am      8 SEL2        0.0000 
     59 N          18.1610  -12.9430  -30.5740 N.am      5 SEP2        0.0000 
     60 CA         14.5625  -14.4725  -27.8180 C.3       3 GLC5        0.0000 
     61 CA         16.3310  -14.2120  -27.6460 C.3       9 GLL5        0.0000 
     62 CA         12.7940  -14.7330  -27.9900 C.3       6 GLP5        0.0000 
     63 CA         17.9090  -14.7350  -26.7135 C.3       3 GLC5        0.0000 
     64 CA         19.4870  -15.2580  -25.7810 C.3       6 GLP5        0.0000 
     65 CA         14.1480  -14.0700  -26.8205 C.3       3 GLC5        0.0000 
     66 CA         15.5020  -13.4070  -25.6510 C.3       9 GLL5        0.0000 
     67 CA         17.4945  -14.3325  -25.7160 C.3       3 GLC5        0.0000 
     68 CA         17.1872  -13.9745  -23.5450 C.3       3 GLC5        0.0000 
     69 CA         15.9820  -15.1790  -22.8410 C.3       9 GLL5        0.0000 
     70 CA         18.9770  -13.2870  -24.2420 C.3       6 GLP5        0.0000 
     71 CA         14.2920  -12.3382  -28.0147 C.3       3 GLC5        0.0000 
     72 CA         12.8150  -12.6870  -29.2630 C.3       6 GLP5        0.0000 
@<TRIPOS>BOND
@<TRIPOS>SUBSTRUCTURE
     1 ALC1        1 GROUP        1 X    ALC  0     ROOT ALC X 1
     2 SEC2        9 GROUP        1 X    SEC  0     **** SEC X 2
     3 GLC5        6 GROUP        1 X    GLC  0     **** GLC X 6
     4 ALP1        3 GROUP        1 Y    ALP  0     ROOT ALP Y 8
     5 SEP2       11 GROUP        1 Y    SEP  0     **** SEP Y 9
     6 GLP5        8 GROUP        1 Y    GLP  0     **** GLP Y 13
     7 ALL1        2 GROUP        1 Z    ALL  0     ROOT ALL Z 15
     8 SEL2       10 GROUP        1 Z    SEL  0     **** SEL Z 16
     9 GLL5        7 GROUP        1 Z    GLL  0     **** GLL Z 20
@<TRIPOS>SET

