#    Name: 3qwp_SAM_1_ligand
#    Modification time : Mon Apr  7 19:54:22 2014

@<TRIPOS>MOLECULE
3qwp_SAM_1_ligand
   50    52     1     0     0
SMALL
NO_CHARGES


@<TRIPOS>ATOM
      1 N          11.0700  -14.7360  -23.1300 N.4       1 SAM510      0.0000 
      2 CA         10.8420  -14.5920  -21.6360 C.3       1 SAM510      0.0000 
      3 C           9.9020  -15.6500  -21.1140 C.2       1 SAM510      0.0000 
      4 O           9.5070  -16.5210  -21.9090 O.co2     1 SAM510      0.0000 
      5 OXT         9.5750  -15.6950  -19.9230 O.co2     1 SAM510      0.0000 
      6 CB         10.4700  -13.1790  -21.1910 C.3       1 SAM510      0.0000 
      7 CG         11.7410  -12.2840  -21.0580 C.3       1 SAM510      0.0000 
      8 SD         12.7580  -12.8640  -19.6420 S.3       1 SAM510      0.0000 
      9 CE         12.9190  -11.2960  -18.7180 C.3       1 SAM510      0.0000 
     10 C5'        14.4300  -12.9070  -20.3650 C.3       1 SAM510      0.0000 
     11 C4'        14.6580  -14.1880  -21.1460 C.3       1 SAM510      0.0000 
     12 O4'        13.9590  -14.0970  -22.3830 O.3       1 SAM510      0.0000 
     13 C3'        16.1220  -14.3430  -21.5770 C.3       1 SAM510      0.0000 
     14 O3'        16.9010  -15.0020  -20.5880 O.3       1 SAM510      0.0000 
     15 C2'        15.9820  -15.1790  -22.8410 C.3       1 SAM510      0.0000 
     16 O2'        15.5670  -16.5340  -22.5360 O.3       1 SAM510      0.0000 
     17 C1'        14.7430  -14.5630  -23.4870 C.3       1 SAM510      0.0000 
     18 N9         15.0840  -13.3620  -24.3330 N.pl3     1 SAM510      0.0000 
     19 C8         14.8350  -12.0260  -24.0460 C.2       1 SAM510      0.0000 
     20 N7         15.1480  -11.2920  -25.1140 N.2       1 SAM510      0.0000 
     21 C5         15.5300  -12.1090  -26.1330 C.ar      1 SAM510      0.0000 
     22 C6         16.0080  -11.8700  -27.4000 C.ar      1 SAM510      0.0000 
     23 N6         16.0930  -10.6520  -27.9550 N.pl3     1 SAM510      0.0000 
     24 N1         16.4020  -12.9540  -28.1410 N.ar      1 SAM510      0.0000 
     25 C2         16.3310  -14.2120  -27.6460 C.ar      1 SAM510      0.0000 
     26 N3         15.8880  -14.4660  -26.3840 N.ar      1 SAM510      0.0000 
     27 C4         15.5020  -13.4070  -25.6510 C.ar      1 SAM510      0.0000 
     28 H          11.8503  -14.8130  -21.1510 H         1 SAM510      0.0000 
     29 H           9.9732  -13.2164  -20.2263 H         1 SAM510      0.0000 
     30 H           9.8057  -12.7268  -21.9211 H         1 SAM510      0.0000 
     31 H          11.5240  -11.2894  -20.7877 H         1 SAM510      0.0000 
     32 H          12.4062  -12.3816  -21.8688 H         1 SAM510      0.0000 
     33 H          15.0488  -12.8095  -19.5007 H         1 SAM510      0.0000 
     34 H          14.4352  -12.0251  -20.9664 H         1 SAM510      0.0000 
     35 H          14.3694  -15.0288  -20.5918 H         1 SAM510      0.0000 
     36 H          16.4793  -13.3842  -21.8551 H         1 SAM510      0.0000 
     37 H          16.7754  -15.0877  -23.4554 H         1 SAM510      0.0000 
     38 H          14.2344  -15.2890  -24.0444 H         1 SAM510      0.0000 
     39 H          14.4915  -11.7129  -23.2016 H         1 SAM510      0.0000 
     40 H          15.7789   -9.8884  -27.3908 H         1 SAM510      0.0000 
     41 H          16.4630  -10.6163  -28.8833 H         1 SAM510      0.0000 
     42 H          16.6264  -15.0203  -28.2525 H         1 SAM510      0.0000 
     43 H          11.6958  -14.0385  -23.4791 H         1 SAM510      0.0000 
     44 H          11.4639  -15.6255  -23.3615 H         1 SAM510      0.0000 
     45 H          10.2177  -14.6496  -23.6458 H         1 SAM510      0.0000 
     46 H          13.3033  -11.4401  -17.8061 H         1 SAM510      0.0000 
     47 H          13.5167  -10.6471  -19.1889 H         1 SAM510      0.0000 
     48 H          12.0351  -10.8446  -18.5956 H         1 SAM510      0.0000 
     49 H          17.7628  -15.2249  -21.0437 H         1 SAM510      0.0000 
     50 H          16.2717  -17.1174  -22.9396 H         1 SAM510      0.0000 
@<TRIPOS>BOND
     1    2    1 1    
     2   43    1 1    
     3   44    1 1    
     4   45    1 1    
     5    3    2 1    
     6    6    2 1    
     7   28    2 1    
     8    4    3 ar   
     9    5    3 ar   
    10    7    6 1    
    11   29    6 1    
    12   30    6 1    
    13    8    7 1    
    14   31    7 1    
    15   32    7 1    
    16    9    8 1    
    17   10    8 1    
    18   46    9 1    
    19   47    9 1    
    20   48    9 1    
    21   11   10 1    
    22   33   10 1    
    23   34   10 1    
    24   12   11 1    
    25   13   11 1    
    26   35   11 1    
    27   17   12 1    
    28   14   13 1    
    29   15   13 1    
    30   36   13 1    
    31   49   14 1    
    32   16   15 1    
    33   17   15 1    
    34   37   15 1    
    35   50   16 1    
    36   18   17 1    
    37   38   17 1    
    38   19   18 1    
    39   27   18 1    
    40   20   19 2    
    41   39   19 1    
    42   21   20 1    
    43   22   21 ar   
    44   27   21 ar   
    45   23   22 1    
    46   24   22 ar   
    47   40   23 1    
    48   41   23 1    
    49   25   24 ar   
    50   26   25 ar   
    51   42   25 1    
    52   27   26 ar   
@<TRIPOS>SUBSTRUCTURE
     1 SAM510      1 GROUP   
@<TRIPOS>SET

