#    Name: 1fcx_184_1_INTS_M
#    Modification time : Tue Mar 25 01:04:42 2014

@<TRIPOS>MOLECULE
1fcx_184_1_INTS_M
   99     0     6     0     0
SMALL
NO_CHARGES


@<TRIPOS>ATOM
      1 CA         34.5390   15.2220   86.6320 C.3       2 GLC5        0.0000 
      2 CA         35.7540   16.0480   88.1900 C.3       6 GLL5        0.0000 
      3 CA         33.3240   14.3960   85.0740 C.3       4 GLP5        0.0000 
      4 CA         36.3090   19.6010   85.6040 C.3       2 GLC5        0.0000 
      5 CA         36.4480   17.6410   86.5260 C.3       6 GLL5        0.0000 
      6 CA         36.1700   21.5610   84.6820 C.3       4 GLP5        0.0000 
      7 CA         44.6735   12.3465   78.2600 C.3       2 GLC5        0.0000 
      8 CA         44.4770   13.5720   79.9670 C.3       6 GLL5        0.0000 
      9 CA         44.8700   11.1210   76.5530 C.3       4 GLP5        0.0000 
     10 CA         46.5170   13.5575   79.2445 C.3       2 GLC5        0.0000 
     11 CA         48.5570   13.5430   78.5220 C.3       4 GLP5        0.0000 
     12 CA         46.9045   14.3725   80.1275 C.3       2 GLC5        0.0000 
     13 CA         44.9220   14.9440   80.2750 C.3       6 GLL5        0.0000 
     14 CA         48.8870   13.8010   79.9800 C.3       4 GLP5        0.0000 
     15 CA         46.3860   16.2310   79.3215 C.3       2 GLC5        0.0000 
     16 CA         47.8500   17.5180   78.3680 C.3       4 GLP5        0.0000 
     17 CA         41.0290   15.1285   79.9115 C.3       2 GLC5        0.0000 
     18 CA         42.0230   13.6600   79.3050 C.3       6 GLL5        0.0000 
     19 CA         40.0350   16.5970   80.5180 C.3       4 GLP5        0.0000 
     20 CA         41.4160   14.4825   77.4050 C.3       2 GLC5        0.0000 
     21 CA         40.8090   15.3050   75.5050 C.3       4 GLP5        0.0000 
     22 CA         41.0650   12.6815   77.9060 C.3       2 GLC5        0.0000 
     23 CA         40.1070   11.7030   76.5070 C.3       4 GLP5        0.0000 
     24 CA         43.3890   14.8105   78.0195 C.3       2 GLC5        0.0000 
     25 CA         44.7550   15.9610   76.7340 C.3       4 GLP5        0.0000 
     26 CA         42.5665   10.5635   81.9340 C.3       2 GLC5        0.0000 
     27 CA         43.0550   11.6870   80.4240 C.3       6 GLL5        0.0000 
     28 CA         42.0780    9.4400   83.4440 C.3       4 GLP5        0.0000 
     29 CA         41.1955   10.9290   80.5545 C.3       2 GLC5        0.0000 
     30 CA         39.3360   10.1710   80.6850 C.3       4 GLP5        0.0000 
     31 CA         42.8650    9.7055   80.0015 C.3       2 GLC5        0.0000 
     32 CA         42.6750    7.7240   79.5790 C.3       4 GLP5        0.0000 
     33 CA         44.3225   10.3260   80.9255 C.3       2 GLC5        0.0000 
     34 CA         45.5900    8.9650   81.4270 C.3       4 GLP5        0.0000 
     35 CA         43.9625   11.4040   78.4885 C.3       2 GLC5        0.0000 
     36 CA         44.6090   18.1420   80.3040 C.3       2 GLC5        0.0000 
     37 CA         44.8160   16.8220   81.6780 C.3       6 GLL5        0.0000 
     38 CA         44.4020   19.4620   78.9300 C.3       4 GLP5        0.0000 
     39 CA         46.5370   17.5680   80.7945 C.3       2 GLC5        0.0000 
     40 CA         48.2580   18.3140   79.9110 C.3       4 GLP5        0.0000 
     41 CA         46.0940   17.7350   82.6535 C.3       2 GLC5        0.0000 
     42 CA         47.3720   18.6480   83.6290 C.3       4 GLP5        0.0000 
     43 CA         45.0875   13.5530   84.2040 C.3       2 GLC5        0.0000 
     44 CA         45.9950   14.8610   82.6600 C.3       6 GLL5        0.0000 
     45 CA         44.1800   12.2450   85.7480 C.3       4 GLP5        0.0000 
     46 CA         47.4410   14.3310   81.3200 C.3       2 GLC5        0.0000 
     47 CA         46.6835   16.7545   83.1445 C.3       2 GLC5        0.0000 
     48 CA         46.0535   15.2585   84.6080 C.3       2 GLC5        0.0000 
     49 CA         46.1120   15.6560   86.5560 C.3       4 GLP5        0.0000 
     50 CA         47.7670   14.3620   83.3455 C.3       2 GLC5        0.0000 
     51 CA         49.5390   13.8630   84.0310 C.3       4 GLP5        0.0000 
     52 N          33.4985   18.7590   89.9935 N.am      1 SEC2        0.0000 
     53 N          34.4210   18.1730   89.4200 N.am      5 SEL2        0.0000 
     54 N          32.5760   19.3450   90.5670 N.am      3 SEP2        0.0000 
     55 N          33.0290   19.5730   87.6775 N.am      1 SEC2        0.0000 
     56 N          34.4720   19.3250   87.5700 N.am      5 SEL2        0.0000 
     57 N          31.5860   19.8210   87.7850 N.am      3 SEP2        0.0000 
     58 CA         37.4130   13.0895   84.9870 C.3       2 GLC5        0.0000 
     59 CA         38.9520   14.6930   84.7340 C.3       6 GLL5        0.0000 
     60 CA         35.8740   11.4860   85.2400 C.3       4 GLP5        0.0000 
     61 CA         41.7850   11.4640   82.8865 C.3       2 GLC5        0.0000 
     62 CA         41.4920   13.4880   82.3290 C.3       6 GLL5        0.0000 
     63 CA         44.6215   15.5030   85.0415 C.3       2 GLC5        0.0000 
     64 CA         43.1310   15.3500   83.5270 C.3       6 GLL5        0.0000 
     65 CA         41.5320   17.0590   84.5545 C.3       2 GLC5        0.0000 
     66 CA         41.9870   14.9980   84.1470 C.3       6 GLL5        0.0000 
     67 CA         41.0770   19.1200   84.9620 C.3       4 GLP5        0.0000 
     68 CA         42.2890   15.1910   86.1295 C.3       2 GLC5        0.0000 
     69 CA         42.5910   15.3840   88.1120 C.3       4 GLP5        0.0000 
     70 CA         39.4510   14.5890   82.3940 C.3       2 GLC5        0.0000 
     71 CA         39.8360   13.5480   84.0920 C.3       6 GLL5        0.0000 
     72 CA         39.0660   15.6300   80.6960 C.3       4 GLP5        0.0000 
     73 CA         40.3455   13.5810   86.2625 C.3       2 GLC5        0.0000 
     74 CA         40.8550   13.6140   88.4330 C.3       4 GLP5        0.0000 
     75 CA         40.1680   11.4570   84.2110 C.3       2 GLC5        0.0000 
     76 CA         40.5000    9.3660   84.3300 C.3       4 GLP5        0.0000 
     77 CA         39.2045   12.3420   82.7065 C.3       2 GLC5        0.0000 
     78 CA         38.5730   11.1360   81.3210 C.3       4 GLP5        0.0000 
     79 CA         37.1585   18.1683   88.5668 C.3       2 GLC5        0.0000 
     80 CA         38.2490   18.8350   90.0520 C.3       4 GLP5        0.0000 
     81 CA         36.8865   16.5150   89.4545 C.3       2 GLC5        0.0000 
     82 CA         37.6080   17.4620   91.0110 C.3       4 GLP5        0.0000 
     83 CA         35.9715   14.2575   89.4620 C.3       2 GLC5        0.0000 
     84 CA         35.7780   12.9470   91.0260 C.3       4 GLP5        0.0000 
     85 CA         38.5275   18.4727   86.1038 C.3       2 GLC5        0.0000 
     86 CA         37.2920   16.6660   85.9170 C.3       6 GLL5        0.0000 
     87 CA         40.1850   19.7920   85.9860 C.3       4 GLP5        0.0000 
     88 CA         38.7284   15.9913   87.7020 C.3       2 GLC5        0.0000 
     89 CA         40.3270   16.0320   88.9310 C.3       4 GLP5        0.0000 
     90 CA         44.7272   15.1095   78.4275 C.3       2 GLC5        0.0000 
     91 CA         43.7475   13.6593   84.3330 C.3       2 GLC5        0.0000 
     92 CA         43.4990   14.7970   82.3090 C.3       6 GLL5        0.0000 
     93 CA         39.7120   14.0808   86.8650 C.3       2 GLC5        0.0000 
     94 CA         36.2834   13.6973   86.1188 C.3       2 GLC5        0.0000 
     95 CA         38.1860   14.4020   85.8600 C.3       6 GLL5        0.0000 
     96 CA         34.9900   12.5760   85.7930 C.3       4 GLP5        0.0000 
     97 CA         39.7680   17.8028   84.7263 C.3       2 GLC5        0.0000 
     98 CA         38.8660   15.9890   84.2030 C.3       6 GLL5        0.0000 
     99 CA         42.8792   13.3902   84.7982 C.3       2 GLC5        0.0000 
@<TRIPOS>BOND
@<TRIPOS>SUBSTRUCTURE
     1 SEC2       52 GROUP        1 X    SEC  0     ROOT SEC X 2
     2 GLC5        1 GROUP        1 X    GLC  0     **** GLC X 6
     3 SEP2       54 GROUP        1 Y    SEP  0     ROOT SEP Y 9
     4 GLP5        3 GROUP        1 Y    GLP  0     **** GLP Y 13
     5 SEL2       53 GROUP        1 Z    SEL  0     ROOT SEL Z 16
     6 GLL5        2 GROUP        1 Z    GLL  0     **** GLL Z 20
@<TRIPOS>SET

