#    Name: 1fcx_184_1_ligand
#    Modification time : Tue Mar 25 01:04:42 2014

@<TRIPOS>MOLECULE
1fcx_184_1_ligand
   56    59     1     0     0
SMALL
NO_CHARGES


@<TRIPOS>ATOM
      1 C1         34.8120   18.3020   88.3100 C.2       1 184450      0.0000 
      2 C2         35.6880   17.3620   87.6370 C.ar      1 184450      0.0000 
      3 C3         35.7540   16.0480   88.1900 C.ar      1 184450      0.0000 
      4 C4         36.5760   15.0880   87.6060 C.ar      1 184450      0.0000 
      5 C5         37.3590   15.3820   86.4520 C.ar      1 184450      0.0000 
      6 C10        37.2920   16.6660   85.9170 C.ar      1 184450      0.0000 
      7 C11        36.4480   17.6410   86.5260 C.ar      1 184450      0.0000 
      8 C15        42.6820   13.8490   81.6850 C.ar      1 184450      0.0000 
      9 C16        43.0400   13.2180   80.3560 C.3       1 184450      0.0000 
     10 C17        44.4770   13.5720   79.9670 C.3       1 184450      0.0000 
     11 C18        44.9220   14.9440   80.2750 C.3       1 184450      0.0000 
     12 C19        44.8200   15.2950   81.7390 C.3       1 184450      0.0000 
     13 C20        43.4990   14.7970   82.3090 C.ar      1 184450      0.0000 
     14 C23        42.0230   13.6600   79.3050 C.3       1 184450      0.0000 
     15 C24        43.0550   11.6870   80.4240 C.3       1 184450      0.0000 
     16 C25        44.8160   16.8220   81.6780 C.3       1 184450      0.0000 
     17 C26        45.9950   14.8610   82.6600 C.3       1 184450      0.0000 
     18 O1         34.4210   18.1730   89.4200 O.co2     1 184450      0.0000 
     19 O2         34.4720   19.3250   87.5700 O.co2     1 184450      0.0000 
     20 C6         38.1860   14.4020   85.8600 C.ar      1 184450      0.0000 
     21 C7         38.9520   14.6930   84.7340 C.ar      1 184450      0.0000 
     22 C8         38.8660   15.9890   84.2030 C.ar      1 184450      0.0000 
     23 C9         38.0520   16.9820   84.7780 C.ar      1 184450      0.0000 
     24 C13        41.1700   14.0730   83.5500 C.ar      1 184450      0.0000 
     25 C14        41.4920   13.4880   82.3290 C.ar      1 184450      0.0000 
     26 C21        43.1310   15.3500   83.5270 C.ar      1 184450      0.0000 
     27 C22        41.9870   14.9980   84.1470 C.ar      1 184450      0.0000 
     28 C12        39.8360   13.5480   84.0920 C.3       1 184450      0.0000 
     29 O3         39.9280   12.5170   85.0740 O.3       1 184450      0.0000 
     30 H          35.1922   15.8272   89.0145 H         1 184450      0.0000 
     31 H          36.6294   14.1379   88.0071 H         1 184450      0.0000 
     32 H          36.4217   18.5899   86.0984 H         1 184450      0.0000 
     33 H          44.5916   13.3724   78.8717 H         1 184450      0.0000 
     34 H          45.1553   12.8324   80.4626 H         1 184450      0.0000 
     35 H          44.3232   15.6740   79.6948 H         1 184450      0.0000 
     36 H          45.9732   15.0812   79.9519 H         1 184450      0.0000 
     37 H          38.2172   13.4577   86.2749 H         1 184450      0.0000 
     38 H          39.4213   16.2247   83.3570 H         1 184450      0.0000 
     39 H          38.0147   17.9142   84.3749 H         1 184450      0.0000 
     40 H          40.8674   12.7998   81.9024 H         1 184450      0.0000 
     41 H          43.7696   16.0573   83.9619 H         1 184450      0.0000 
     42 H          41.7219   15.4105   85.0533 H         1 184450      0.0000 
     43 H          39.2335   13.1884   83.2322 H         1 184450      0.0000 
     44 H          42.0134   14.6536   79.1923 H         1 184450      0.0000 
     45 H          42.2207   13.2651   78.4078 H         1 184450      0.0000 
     46 H          41.0933   13.3836   79.5485 H         1 184450      0.0000 
     47 H          43.2883   11.2783   79.5417 H         1 184450      0.0000 
     48 H          43.7228   11.3513   81.0883 H         1 184450      0.0000 
     49 H          42.1647   11.3184   80.6915 H         1 184450      0.0000 
     50 H          44.9170   17.2302   82.5853 H         1 184450      0.0000 
     51 H          45.5633   17.1731   81.1138 H         1 184450      0.0000 
     52 H          43.9648   17.1760   81.2904 H         1 184450      0.0000 
     53 H          46.8618   15.2690   82.3734 H         1 184450      0.0000 
     54 H          45.8426   15.1337   83.6099 H         1 184450      0.0000 
     55 H          46.1227   13.8692   82.6567 H         1 184450      0.0000 
     56 H          39.6382   11.6841   84.6026 H         1 184450      0.0000 
@<TRIPOS>BOND
     1    2    1 1    
     2   18    1 ar   
     3   19    1 ar   
     4    3    2 ar   
     5    7    2 ar   
     6    4    3 ar   
     7   30    3 1    
     8    5    4 ar   
     9   31    4 1    
    10    6    5 ar   
    11   20    5 ar   
    12    7    6 ar   
    13   23    6 ar   
    14   32    7 1    
    15    9    8 1    
    16   13    8 ar   
    17   25    8 ar   
    18   10    9 1    
    19   14    9 1    
    20   15    9 1    
    21   11   10 1    
    22   33   10 1    
    23   34   10 1    
    24   12   11 1    
    25   35   11 1    
    26   36   11 1    
    27   13   12 1    
    28   16   12 1    
    29   17   12 1    
    30   26   13 ar   
    31   44   14 1    
    32   45   14 1    
    33   46   14 1    
    34   47   15 1    
    35   48   15 1    
    36   49   15 1    
    37   50   16 1    
    38   51   16 1    
    39   52   16 1    
    40   53   17 1    
    41   54   17 1    
    42   55   17 1    
    43   21   20 ar   
    44   37   20 1    
    45   22   21 ar   
    46   28   21 1    
    47   23   22 ar   
    48   38   22 1    
    49   39   23 1    
    50   25   24 ar   
    51   27   24 ar   
    52   28   24 1    
    53   40   25 1    
    54   27   26 ar   
    55   41   26 1    
    56   42   27 1    
    57   29   28 1    
    58   43   28 1    
    59   56   29 1    
@<TRIPOS>SUBSTRUCTURE
     1 184450      1 GROUP   
@<TRIPOS>SET

