#    Name: 3e51_N35_1_INTS_M
#    Modification time : Tue Mar 25 00:54:40 2014

@<TRIPOS>MOLECULE
3e51_N35_1_INTS_M
   62     0     9     0     0
SMALL
NO_CHARGES


@<TRIPOS>ATOM
      1 CA         98.8375    7.9215   48.4120 C.3       3 GLC5        0.0000 
      2 CA         98.4750    7.4930   50.3430 C.3       9 GLL5        0.0000 
      3 CA         99.2000    8.3500   46.4810 C.3       6 GLP5        0.0000 
      4 CA         96.8555    9.9905   49.9470 C.3       3 GLC5        0.0000 
      5 CA         97.3690    8.3310   50.9740 C.3       9 GLL5        0.0000 
      6 CA         96.3420   11.6500   48.9200 C.3       6 GLP5        0.0000 
      7 CA         91.7975   11.6385   55.4645 C.3       3 GLC5        0.0000 
      8 CA         91.2350   10.3850   54.3870 C.3       9 GLL5        0.0000 
      9 CA         92.3600   12.8920   56.5420 C.3       6 GLP5        0.0000 
     10 N          96.1830    8.7720   67.0110 N.am      2 SEC2        0.0000 
     11 N          95.9290    8.6290   65.6640 N.am      8 SEL2        0.0000 
     12 N          96.4370    8.9150   68.3580 N.am      5 SEP2        0.0000 
     13 N          94.6865    9.7670   65.6180 N.am      2 SEC2        0.0000 
     14 N          93.4440   10.9050   65.5720 N.am      5 SEP2        0.0000 
     15 CA         98.4490    6.8135   66.1340 C.3       3 GLC5        0.0000 
     16 CA         98.1770    8.1780   64.5060 C.3       9 GLL5        0.0000 
     17 CA         98.7210    5.4490   67.7620 C.3       6 GLP5        0.0000 
     18 CA         98.3785    6.6600   63.4145 C.3       3 GLC5        0.0000 
     19 CA         98.5800    5.1420   62.3230 C.3       6 GLP5        0.0000 
     20 O          95.8955   10.8715   63.7375 O.2       1 ALC1        0.0000 
     21 O          96.1870    9.5690   63.2670 O.2       7 ALL1        0.0000 
     22 O          95.6040   12.1740   64.2080 O.2       4 ALP1        0.0000 
     23 CA         97.5070    6.6775   61.7570 C.3       3 GLC5        0.0000 
     24 CA         96.4340    8.2130   61.1910 C.3       9 GLL5        0.0000 
     25 CA         93.2070   10.9985   58.8985 C.3       3 GLC5        0.0000 
     26 CA         94.7510   10.0470   59.8920 C.3       9 GLL5        0.0000 
     27 CA         91.6630   11.9500   57.9050 C.3       6 GLP5        0.0000 
     28 CA         92.6260   13.0205   52.2050 C.3       3 GLC5        0.0000 
     29 CA         92.9580   10.9350   52.5770 C.3       9 GLL5        0.0000 
     30 CA         92.2940   15.1060   51.8330 C.3       6 GLP5        0.0000 
     31 CA         89.6685    8.8900   50.7320 C.3       3 GLC5        0.0000 
     32 CA         91.0180    9.3900   52.0920 C.3       9 GLL5        0.0000 
     33 CA         88.3190    8.3900   49.3720 C.3       6 GLP5        0.0000 
     34 CA         90.4975   10.8465   51.3470 C.3       3 GLC5        0.0000 
     35 CA         89.9770   12.3030   50.6020 C.3       6 GLP5        0.0000 
     36 N          96.1980    5.0955   55.0555 N.am      2 SEC2        0.0000 
     37 N          96.5430    6.4040   54.8350 N.am      8 SEL2        0.0000 
     38 N          95.8530    3.7870   55.2760 N.am      5 SEP2        0.0000 
     39 CA         96.5790    6.4520   50.8905 C.3       3 GLC5        0.0000 
     40 CA         98.0460    6.6220   52.4840 C.3       9 GLL5        0.0000 
     41 CA         95.1120    6.2820   49.2970 C.3       6 GLP5        0.0000 
     42 CA         97.5020    4.6680   52.9315 C.3       3 GLC5        0.0000 
     43 CA         96.9580    2.7140   53.3790 C.3       6 GLP5        0.0000 
     44 CA         99.3468    6.0455   49.3912 C.3       3 GLC5        0.0000 
     45 CA         99.8520    4.8490   47.8250 C.3       6 GLP5        0.0000 
     46 CA         96.5170    7.0970   49.9778 C.3       3 GLC5        0.0000 
     47 CA         92.9785   11.9920   54.7548 C.3       3 GLC5        0.0000 
     48 CA         94.4165   11.7170   51.1813 C.3       3 GLC5        0.0000 
     49 CA         94.2360   11.2490   53.3580 C.3       9 GLL5        0.0000 
     50 CA         95.2360   12.3420   49.3950 C.3       6 GLP5        0.0000 
     51 CA         92.3842    8.0010   51.9990 C.3       3 GLC5        0.0000 
     52 CA         92.0010    9.8820   53.1600 C.3       9 GLL5        0.0000 
     53 CA         93.2590    6.3660   51.3720 C.3       6 GLP5        0.0000 
     54 CA         92.7893    9.9815   60.5442 C.3       3 GLC5        0.0000 
     55 CA         90.6710    9.8290   60.5250 C.3       6 GLP5        0.0000 
     56 CA         93.7088   11.8130   61.0613 C.3       3 GLC5        0.0000 
     57 CA         92.5100   13.4920   61.5590 C.3       6 GLP5        0.0000 
     58 CA         91.1325   11.4186   51.8886 C.3       3 GLC5        0.0000 
     59 CA         89.6075   10.6124   53.4109 C.3       3 GLC5        0.0000 
     60 CA         87.8970   11.4630   53.8890 C.3       6 GLP5        0.0000 
     61 CA         91.7335    8.0504   53.9979 C.3       3 GLC5        0.0000 
     62 CA         92.1490    6.3390   55.0630 C.3       6 GLP5        0.0000 
@<TRIPOS>BOND
@<TRIPOS>SUBSTRUCTURE
     1 ALC1       20 GROUP        1 X    ALC  0     ROOT ALC X 1
     2 SEC2       10 GROUP        1 X    SEC  0     **** SEC X 2
     3 GLC5        1 GROUP        1 X    GLC  0     **** GLC X 6
     4 ALP1       22 GROUP        1 Y    ALP  0     ROOT ALP Y 8
     5 SEP2       12 GROUP        1 Y    SEP  0     **** SEP Y 9
     6 GLP5        3 GROUP        1 Y    GLP  0     **** GLP Y 13
     7 ALL1       21 GROUP        1 Z    ALL  0     ROOT ALL Z 15
     8 SEL2       11 GROUP        1 Z    SEL  0     **** SEL Z 16
     9 GLL5        2 GROUP        1 Z    GLL  0     **** GLL Z 20
@<TRIPOS>SET

