#    Name: 3e51_N35_1_ligand
#    Modification time : Tue Mar 25 00:54:40 2014

@<TRIPOS>MOLECULE
3e51_N35_1_ligand
   62    65     1     0     0
SMALL
NO_CHARGES


@<TRIPOS>ATOM
      1 C4         95.2570    8.9480   59.1710 C.ar      1 N35579      0.0000 
      2 C5         95.8990    9.3180   61.8860 C.ar      1 N35579      0.0000 
      3 C6         96.0900    8.0420   59.8340 C.ar      1 N35579      0.0000 
      4 C7         95.5570    8.4810   55.5320 C.2       1 N35579      0.0000 
      5 C8         96.1620    7.7070   54.6020 C.2       1 N35579      0.0000 
      6 C10        96.3120    8.2730   53.2150 C.2       1 N35579      0.0000 
      7 C13        98.4750    7.4930   50.3430 C.3       1 N35579      0.0000 
      8 C15        97.3690    8.3310   50.9740 C.3       1 N35579      0.0000 
      9 C17        91.2350   10.3850   54.3870 C.3       1 N35579      0.0000 
     10 C20        94.2360   11.2490   53.3580 C.3       1 N35579      0.0000 
     11 C21        92.0010    9.8820   53.1600 C.3       1 N35579      0.0000 
     12 O32        95.9500    7.0280   63.7500 O.2       1 N35579      0.0000 
     13 S35        96.4050    8.2580   64.3420 S.o2      1 N35579      0.0000 
     14 O31        95.9290    8.6290   65.6640 O.2       1 N35579      0.0000 
     15 C18        98.1770    8.1780   64.5060 C.3       1 N35579      0.0000 
     16 N27        96.1870    9.5690   63.2670 N.pl3     1 N35579      0.0000 
     17 C2         95.0640   10.2210   61.2350 C.ar      1 N35579      0.0000 
     18 C3         96.4340    8.2130   61.1910 C.ar      1 N35579      0.0000 
     19 S34        96.7070    6.6620   58.9340 S.o2      1 N35579      0.0000 
     20 O29        98.1090    6.5800   59.2500 O.2       1 N35579      0.0000 
     21 O30        95.8100    5.5480   59.1710 O.2       1 N35579      0.0000 
     22 N24        96.5600    7.1620   57.3200 N.pl3     1 N35579      0.0000 
     23 C9         95.6430    8.1950   56.9740 C.2       1 N35579      0.0000 
     24 N22        94.8950    8.8380   57.8270 N.2       1 N35579      0.0000 
     25 C1         94.7510   10.0470   59.8920 C.ar      1 N35579      0.0000 
     26 C11        94.7450    9.6410   55.0980 C.2       1 N35579      0.0000 
     27 O28        94.0400   10.2280   55.9200 O.2       1 N35579      0.0000 
     28 N26        94.9000   10.0320   53.7830 N.am      1 N35579      0.0000 
     29 C19        92.9580   10.9350   52.5770 C.3       1 N35579      0.0000 
     30 C16        91.0180    9.3900   52.0920 C.3       1 N35579      0.0000 
     31 N23        95.6830    9.3740   52.8810 N.2       1 N35579      0.0000 
     32 O33        96.5430    6.4040   54.8350 O.co2     1 N35579      0.0000 
     33 N25        97.0630    7.6740   52.2420 N.3       1 N35579      0.0000 
     34 C14        98.0460    6.6220   52.4840 C.3       1 N35579      0.0000 
     35 C12        99.2080    6.9910   51.5720 C.3       1 N35579      0.0000 
     36 H          99.1074    8.1091   49.7695 H         1 N35579      0.0000 
     37 H          98.0544    6.6846   49.8156 H         1 N35579      0.0000 
     38 H          96.5182    8.3306   50.3177 H         1 N35579      0.0000 
     39 H          97.7372    9.3286   51.1289 H         1 N35579      0.0000 
     40 H          94.8885   11.8509   52.7106 H         1 N35579      0.0000 
     41 H          93.9608   11.8719   54.2202 H         1 N35579      0.0000 
     42 H          92.6022    9.0168   53.4708 H         1 N35579      0.0000 
     43 H          96.2816   10.4339   63.7051 H         1 N35579      0.0000 
     44 H          94.6756   11.0236   61.7525 H         1 N35579      0.0000 
     45 H          97.0495    7.5592   61.6549 H         1 N35579      0.0000 
     46 H          97.1540    6.6705   56.7160 H         1 N35579      0.0000 
     47 H          94.1422   10.7256   59.4109 H         1 N35579      0.0000 
     48 H          93.2427   10.6151   51.5436 H         1 N35579      0.0000 
     49 H          92.3866   11.8859   52.4336 H         1 N35579      0.0000 
     50 H          97.6712    5.6628   52.1962 H         1 N35579      0.0000 
     51 H          98.3857    6.6298   53.4979 H         1 N35579      0.0000 
     52 H          99.7687    7.7707   52.0036 H         1 N35579      0.0000 
     53 H          99.7654    6.1296   51.3353 H         1 N35579      0.0000 
     54 H          91.8526   10.6480   55.1283 H         1 N35579      0.0000 
     55 H          90.6760   11.1861   54.1731 H         1 N35579      0.0000 
     56 H          90.6192    9.6869   54.7523 H         1 N35579      0.0000 
     57 H          98.6270    8.0604   63.6207 H         1 N35579      0.0000 
     58 H          98.5500    9.0103   64.9161 H         1 N35579      0.0000 
     59 H          98.4624    7.4133   65.0837 H         1 N35579      0.0000 
     60 H          91.4916    9.0562   51.2769 H         1 N35579      0.0000 
     61 H          90.4491    8.6396   52.4284 H         1 N35579      0.0000 
     62 H          90.3988   10.1166   51.7943 H         1 N35579      0.0000 
@<TRIPOS>BOND
     1    3    1 ar   
     2   24    1 1    
     3   25    1 ar   
     4   16    2 1    
     5   17    2 ar   
     6   18    2 ar   
     7   18    3 ar   
     8   19    3 1    
     9    5    4 2    
    10   23    4 1    
    11   26    4 1    
    12    6    5 1    
    13   32    5 ar   
    14   31    6 2    
    15   33    6 1    
    16    8    7 1    
    17   35    7 1    
    18   36    7 1    
    19   37    7 1    
    20   33    8 1    
    21   38    8 1    
    22   39    8 1    
    23   11    9 1    
    24   54    9 1    
    25   55    9 1    
    26   56    9 1    
    27   28   10 1    
    28   29   10 1    
    29   40   10 1    
    30   41   10 1    
    31   29   11 1    
    32   30   11 1    
    33   42   11 1    
    34   13   12 2    
    35   14   13 2    
    36   15   13 1    
    37   16   13 1    
    38   57   15 1    
    39   58   15 1    
    40   59   15 1    
    41   43   16 1    
    42   25   17 ar   
    43   44   17 1    
    44   45   18 1    
    45   20   19 2    
    46   21   19 2    
    47   22   19 1    
    48   23   22 1    
    49   46   22 1    
    50   24   23 2    
    51   47   25 1    
    52   27   26 2    
    53   28   26 am   
    54   31   28 1    
    55   48   29 1    
    56   49   29 1    
    57   60   30 1    
    58   61   30 1    
    59   62   30 1    
    60   34   33 1    
    61   35   34 1    
    62   50   34 1    
    63   51   34 1    
    64   52   35 1    
    65   53   35 1    
@<TRIPOS>SUBSTRUCTURE
     1 N35579      1 GROUP   
@<TRIPOS>SET

