#    Name: 2A2C_1_CAVITY_N1_ALL.mol2
#    Modification time : Tue Mar 11 00:15:11 2014

@<TRIPOS>MOLECULE
2A2C_1_CAVITY_N1_ALL.mol2
  105     0     6     0     0
SMALL
NO_CHARGES


@<TRIPOS>ATOM
      1 CZ         56.1737   28.7296    9.2558 C.ar      4 PHE5        0.0000 
      2 DU         53.9866   28.1866   10.5487 H         6 CUB7        0.0000 
      3 CZ         54.7360   27.2266    9.6730 C.ar      4 PHE5        0.0000 
      4 CZ         54.8826   28.2936    8.6289 C.ar      4 PHE5        0.0000 
      5 O          59.5255   23.6007    2.3305 O.2       2 ALA2        0.0000 
      6 CA         59.6722   24.6676    1.2864 C.3       5 GLY6        0.0000 
      7 O          59.8188   25.7345    0.2423 O.2       2 ALA2        0.0000 
      8 N          51.9461   28.7106   10.7976 N.2       2 ALA2        0.0000 
      9 N          52.6955   27.7506    9.9218 N.2       2 ALA2        0.0000 
     10 DU         52.8421   28.8175    8.8777 H         6 CUB7        0.0000 
     11 DU         52.9887   29.8844    7.8336 H         6 CUB7        0.0000 
     12 O          53.2982   25.7237   10.0902 O.2       2 ALA2        0.0000 
     13 CZ         53.4449   26.7906    9.0461 C.ar      4 PHE5        0.0000 
     14 CZ         53.5915   27.8575    8.0020 C.ar      4 PHE5        0.0000 
     15 OG         53.7381   28.9245    6.9579 O.2       1 SER1        0.0000 
     16 NZ         53.8848   29.9914    5.9138 N.2       3 LYS4        0.0000 
     17 NZ         54.0314   31.0583    4.8697 N.2       3 LYS4        0.0000 
     18 CZ         54.1943   25.8306    8.1704 C.ar      4 PHE5        0.0000 
     19 CZ         56.4424   22.9507    5.5433 C.ar      4 PHE5        0.0000 
     20 OG         57.0289   27.2184    1.3669 O.2       1 SER1        0.0000 
     21 N          57.3384   23.0577    3.6235 N.2       2 ALA2        0.0000 
     22 CZ         57.4851   24.1246    2.5794 C.ar      4 PHE5        0.0000 
     23 CZ         57.6317   25.1915    1.5352 C.ar      4 PHE5        0.0000 
     24 N          57.7783   26.2585    0.4911 N.2       2 ALA2        0.0000 
     25 N          57.9250   27.3254   -0.5530 N.2       2 ALA2        0.0000 
     26 N          58.0878   22.0977    2.7478 N.2       2 ALA2        0.0000 
     27 O          58.2345   23.1646    1.7036 O.2       2 ALA2        0.0000 
     28 N          58.6743   26.3654   -1.4287 N.2       2 ALA2        0.0000 
     29 N          51.4044   27.3146    9.2950 N.2       2 ALA2        0.0000 
     30 N          51.5510   28.3815    8.2509 N.2       2 ALA2        0.0000 
     31 OG         51.6976   29.4484    7.2068 O.2       1 SER1        0.0000 
     32 NZ         51.8443   30.5153    6.1627 N.2       3 LYS4        0.0000 
     33 N          52.0071   25.2877    9.4634 N.2       2 ALA2        0.0000 
     34 N          52.1538   26.3546    8.4193 N.2       2 ALA2        0.0000 
     35 DU         52.3004   27.4215    7.3752 H         6 CUB7        0.0000 
     36 OG         52.4470   28.4884    6.3310 O.2       1 SER1        0.0000 
     37 OG         52.5937   29.5554    5.2869 O.2       1 SER1        0.0000 
     38 CA         52.7565   24.3277    8.5877 C.3       5 GLY6        0.0000 
     39 CA         52.9032   25.3946    7.5436 C.3       5 GLY6        0.0000 
     40 CZ         53.0498   26.4615    6.4994 C.ar      4 PHE5        0.0000 
     41 OG         53.1964   27.5285    5.4553 O.2       1 SER1        0.0000 
     42 CA         53.6526   24.4346    6.6678 C.3       5 GLY6        0.0000 
     43 OG         53.7992   25.5016    5.6237 O.2       1 SER1        0.0000 
     44 CZ         54.4019   23.4747    5.7921 C.ar      4 PHE5        0.0000 
     45 OG         54.5486   24.5416    4.7480 O.2       1 SER1        0.0000 
     46 CA         55.1513   22.5147    4.9164 C.3       5 GLY6        0.0000 
     47 CZ         55.2980   23.5816    3.8723 C.ar      4 PHE5        0.0000 
     48 OG         55.4446   24.6486    2.8282 O.2       1 SER1        0.0000 
     49 OG         55.5912   25.7155    1.7841 O.2       1 SER1        0.0000 
     50 CA         55.7378   26.7824    0.7400 C.3       5 GLY6        0.0000 
     51 CA         55.9007   21.5547    4.0407 C.3       5 GLY6        0.0000 
     52 DU         56.0473   22.6217    2.9966 H         6 CUB7        0.0000 
     53 CZ         56.1940   23.6886    1.9525 C.ar      4 PHE5        0.0000 
     54 N          56.3406   24.7555    0.9084 N.2       2 ALA2        0.0000 
     55 N          56.4872   25.8224   -0.1357 N.2       2 ALA2        0.0000 
     56 N          56.6339   26.8894   -1.1798 N.2       2 ALA2        0.0000 
     57 N          56.7805   27.9563   -2.2239 N.2       2 ALA2        0.0000 
     58 O          56.7967   21.6617    2.1209 O.2       2 ALA2        0.0000 
     59 CA         56.9434   22.7286    1.0768 C.3       5 GLY6        0.0000 
     60 N          57.5299   26.9963   -3.0997 N.2       2 ALA2        0.0000 
     61 CZ         50.8627   25.9186    7.7924 C.ar      4 PHE5        0.0000 
     62 OG         51.0093   26.9855    6.7483 O.2       1 SER1        0.0000 
     63 OG         51.1559   28.0524    5.7042 O.2       1 SER1        0.0000 
     64 CZ         51.6121   24.9586    6.9167 C.ar      4 PHE5        0.0000 
     65 DU         51.7587   26.0255    5.8726 H         6 CUB7        0.0000 
     66 CA         51.9053   27.0924    4.8285 C.3       5 GLY6        0.0000 
     67 CZ         52.2148   22.9317    7.0851 C.ar      4 PHE5        0.0000 
     68 CZ         52.3615   23.9986    6.0410 C.ar      4 PHE5        0.0000 
     69 CA         52.5081   25.0655    4.9969 C.3       5 GLY6        0.0000 
     70 CA         53.1109   23.0386    5.1653 C.3       5 GLY6        0.0000 
     71 OG         53.2575   24.1056    4.1212 O.2       1 SER1        0.0000 
     72 CA         53.4041   25.1725    3.0770 C.3       5 GLY6        0.0000 
     73 CA         53.8602   22.0787    4.2896 C.3       5 GLY6        0.0000 
     74 DU         54.0069   23.1456    3.2454 H         6 CUB7        0.0000 
     75 CA         54.1535   24.2125    2.2013 C.3       5 GLY6        0.0000 
     76 N          54.3001   25.2795    1.1572 N.2       2 ALA2        0.0000 
     77 CA         54.6096   21.1187    3.4138 C.3       5 GLY6        0.0000 
     78 CA         54.7563   22.1856    2.3697 C.3       5 GLY6        0.0000 
     79 CA         54.9029   23.2526    1.3256 C.3       5 GLY6        0.0000 
     80 N          55.0495   24.3195    0.2815 N.2       2 ALA2        0.0000 
     81 CA         55.3590   20.1587    2.5381 C.3       5 GLY6        0.0000 
     82 CA         55.5056   21.2257    1.4940 C.3       5 GLY6        0.0000 
     83 OG         49.5716   25.4825    7.1655 O.2       1 SER1        0.0000 
     84 OG         49.7182   26.5495    6.1214 O.2       1 SER1        0.0000 
     85 CZ         50.3210   24.5226    6.2898 C.ar      4 PHE5        0.0000 
     86 OG         50.4676   25.5895    5.2457 O.2       1 SER1        0.0000 
     87 O          50.6142   26.6564    4.2016 O.2       2 ALA2        0.0000 
     88 CZ         51.0704   23.5626    5.4141 C.ar      4 PHE5        0.0000 
     89 OG         51.2170   24.6295    4.3700 O.2       1 SER1        0.0000 
     90 N          51.8198   22.6026    4.5384 N.2       2 ALA2        0.0000 
     91 OG         51.9664   23.6695    3.4943 O.2       1 SER1        0.0000 
     92 N          52.5691   21.6426    3.6627 N.2       2 ALA2        0.0000 
     93 N          52.7158   22.7096    2.6186 N.2       2 ALA2        0.0000 
     94 CA         53.3185   20.6827    2.7870 C.3       5 GLY6        0.0000 
     95 CA         53.4652   21.7496    1.7429 C.3       5 GLY6        0.0000 
     96 CA         53.6118   22.8165    0.6988 C.3       5 GLY6        0.0000 
     97 O          48.4271   26.1134    5.4946 O.2       2 ALA2        0.0000 
     98 CA         49.0299   24.0865    5.6630 C.3       5 GLY6        0.0000 
     99 OG         49.1765   25.1535    4.6188 O.2       1 SER1        0.0000 
    100 O          49.3231   26.2204    3.5747 O.2       2 ALA2        0.0000 
    101 OG         46.9894   24.6105    5.9118 O.2       1 SER1        0.0000 
    102 CA         47.1360   25.6774    4.8677 C.3       5 GLY6        0.0000 
    103 CA         47.2827   26.7443    3.8236 C.3       5 GLY6        0.0000 
    104 CA         47.8854   24.7174    3.9920 C.3       5 GLY6        0.0000 
    105 OG         48.0321   25.7844    2.9479 O.2       1 SER1        0.0000 
@<TRIPOS>BOND
@<TRIPOS>SUBSTRUCTURE
     1 SER1       15 GROUP   
     2 ALA2        5 GROUP   
     3 LYS4       16 GROUP   
     4 PHE5        1 GROUP   
     5 GLY6        6 GROUP   
     6 CUB7        2 GROUP   
@<TRIPOS>SET

