#    Name: 2a2c_ADP_1_INTS_M
#    Modification time : Mon Mar 24 18:14:28 2014

@<TRIPOS>MOLECULE
2a2c_ADP_1_INTS_M
   59     0    15     0     0
SMALL
NO_CHARGES


@<TRIPOS>ATOM
      1 Zn         45.5370   23.9115    2.4500 Zn        4 ZIC7        0.0000 
      2 Zn         46.4060   24.2660    1.8060 Zn       14 ZIL7        0.0000 
      3 Zn         44.6680   23.5570    3.0940 Zn        9 ZIP7        0.0000 
      4 N          47.5320   23.2285    2.1250 N.am      2 SEC2        0.0000 
      5 N          46.4060   24.2660    1.8060 N.am     12 SEL2        0.0000 
      6 N          48.6580   22.1910    2.4440 N.am      7 SEP2        0.0000 
      7 N          48.2885   24.4185    0.3105 N.am      2 SEC2        0.0000 
      8 N          48.1020   25.7940    0.7920 N.am     12 SEL2        0.0000 
      9 N          48.4750   23.0430   -0.1710 N.am      7 SEP2        0.0000 
     10 N          49.2130   25.2005    1.2270 N.am      2 SEC2        0.0000 
     11 N          50.3240   24.6070    1.6620 N.am      7 SEP2        0.0000 
     12 NZ         45.0390   27.5910    1.6470 N.4       3 LYC4        0.0000 
     13 NZ         45.7390   26.6720    0.9800 N.4      13 LYL4        0.0000 
     14 NZ         44.3390   28.5100    2.3140 N.4       8 LYP4        0.0000 
     15 N          45.6500   27.5235   -0.1530 N.am      2 SEC2        0.0000 
     16 N          45.7390   26.6720    0.9800 N.am     12 SEL2        0.0000 
     17 N          45.5610   28.3750   -1.2860 N.am      7 SEP2        0.0000 
     18 N          45.0390   27.5910    1.6470 N.am      2 SEC2        0.0000 
     19 N          44.3390   28.5100    2.3140 N.am      7 SEP2        0.0000 
     20 N          47.9675   28.2710    4.9455 N.am      2 SEC2        0.0000 
     21 N          46.7290   27.2130    5.2550 N.am     12 SEL2        0.0000 
     22 N          49.2060   29.3290    4.6360 N.am      7 SEP2        0.0000 
     23 N          45.5875   27.7965    6.0335 N.am      2 SEC2        0.0000 
     24 N          44.4460   28.3800    6.8120 N.am      7 SEP2        0.0000 
     25 Zn         45.2225   24.2735    3.8375 Zn        4 ZIC7        0.0000 
     26 Zn         45.7770   24.9900    4.5810 Zn       14 ZIL7        0.0000 
     27 CA         48.9285   27.5055    3.7345 C.3       5 GLC5        0.0000 
     28 CA         49.4580   25.9010    5.0580 C.3      15 GLL5        0.0000 
     29 CA         48.3990   29.1100    2.4110 C.3      10 GLP5        0.0000 
     30 CA         48.4390   24.0035    4.8040 C.3       5 GLC5        0.0000 
     31 CA         47.4200   22.1060    4.5500 C.3      10 GLP5        0.0000 
     32 O          50.8660   26.7345    8.4810 O.2       1 ALC1        0.0000 
     33 O          51.4100   27.0490    7.1930 O.2      11 ALL1        0.0000 
     34 O          50.3220   26.4200    9.7690 O.2       6 ALP1        0.0000 
     35 CA         54.5760   25.5455    6.6830 C.3       5 GLC5        0.0000 
     36 CA         52.6570   24.8910    6.7390 C.3      15 GLL5        0.0000 
     37 CA         56.4950   26.2000    6.6270 C.3      10 GLP5        0.0000 
     38 CA         53.9965   24.0075    7.9870 C.3       5 GLC5        0.0000 
     39 CA         55.3360   23.1240    9.2350 C.3      10 GLP5        0.0000 
     40 O          51.3985   25.5360    8.9545 O.2       1 ALC1        0.0000 
     41 O          52.4750   24.6520    8.1400 O.2      11 ALL1        0.0000 
     42 CA         51.3690   22.7145    7.2880 C.3       5 GLC5        0.0000 
     43 CA         52.2070   23.6820    5.9290 C.3      15 GLL5        0.0000 
     44 CA         50.5310   21.7470    8.6470 C.3      10 GLP5        0.0000 
     45 CA         52.8215   21.6915    5.8735 C.3       5 GLC5        0.0000 
     46 CA         53.4360   19.7010    5.8180 C.3      10 GLP5        0.0000 
     47 N          58.1060   22.0935    4.7090 N.am      2 SEC2        0.0000 
     48 N          56.8410   22.6030    4.2060 N.am     12 SEL2        0.0000 
     49 N          59.3710   21.5840    5.2120 N.am      7 SEP2        0.0000 
     50 CA         57.9185   23.3770    6.6210 C.3       5 GLC5        0.0000 
     51 CA         56.3200   22.5500    5.4680 C.3      15 GLL5        0.0000 
     52 CA         59.5170   24.2040    7.7740 C.3      10 GLP5        0.0000 
     53 CA         55.8280   22.8370    7.3515 C.3       5 GLC5        0.0000 
     54 CA         54.8780   21.1255    5.6430 C.3       5 GLC5        0.0000 
     55 CA         53.9035   21.4605    5.2820 C.3       5 GLC5        0.0000 
     56 CA         54.3710   23.2200    4.7460 C.3      15 GLL5        0.0000 
     57 CA         50.8520   24.1065    7.6124 C.3       5 GLC5        0.0000 
     58 CA         51.6650   25.9820    6.2790 C.3      15 GLL5        0.0000 
     59 CA         49.8650   22.9730    8.7700 C.3      10 GLP5        0.0000 
@<TRIPOS>BOND
@<TRIPOS>SUBSTRUCTURE
     1 ALC1       32 GROUP        1 X    ALC  0     ROOT ALC X 1
     2 SEC2        4 GROUP        1 X    SEC  0     **** SEC X 2
     3 LYC4       12 GROUP        1 X    LYC  0     **** LYC X 4
     4 ZIC7        1 GROUP        1 X    ZIC  0     **** ZIC X 5
     5 GLC5       27 GROUP        1 X    GLC  0     **** GLC X 6
     6 ALP1       34 GROUP        1 Y    ALP  0     ROOT ALP Y 8
     7 SEP2        6 GROUP        1 Y    SEP  0     **** SEP Y 9
     8 LYP4       14 GROUP        1 Y    LYP  0     **** LYP Y 11
     9 ZIP7        3 GROUP        1 Y    ZIP  0     **** ZIP Y 12
    10 GLP5       29 GROUP        1 Y    GLP  0     **** GLP Y 13
    11 ALL1       33 GROUP        1 Z    ALL  0     ROOT ALL Z 15
    12 SEL2        5 GROUP        1 Z    SEL  0     **** SEL Z 16
    13 LYL4       13 GROUP        1 Z    LYL  0     **** LYL Z 18
    14 ZIL7        2 GROUP        1 Z    ZIL  0     **** ZIL Z 19
    15 GLL5       28 GROUP        1 Z    GLL  0     **** GLL Z 20
@<TRIPOS>SET

