#    Name: 2a2c_ADP_1_ligand
#    Modification time : Mon Mar 24 18:14:29 2014

@<TRIPOS>MOLECULE
2a2c_ADP_1_ligand
   38    40     1     0     0
SMALL
NO_CHARGES


@<TRIPOS>ATOM
      1 PB         46.8520   25.7030    1.5930 P.3       1 ADP463      0.0000 
      2 O1B        46.4060   24.2660    1.8060 O.co2     1 ADP463      0.0000 
      3 O2B        48.1020   25.7940    0.7920 O.co2     1 ADP463      0.0000 
      4 O3B        45.7390   26.6720    0.9800 O.co2     1 ADP463      0.0000 
      5 PA         46.9370   25.9450    4.4700 P.3       1 ADP463      0.0000 
      6 O1A        46.7290   27.2130    5.2550 O.co2     1 ADP463      0.0000 
      7 O2A        45.7770   24.9900    4.5810 O.co2     1 ADP463      0.0000 
      8 O3A        47.2720   26.3190    2.9750 O.3       1 ADP463      0.0000 
      9 O5'        48.2080   25.2000    5.0630 O.3       1 ADP463      0.0000 
     10 C5'        49.4580   25.9010    5.0580 C.3       1 ADP463      0.0000 
     11 C4'        50.3770   25.1960    6.0620 C.3       1 ADP463      0.0000 
     12 O4'        50.8530   23.8990    5.5300 O.3       1 ADP463      0.0000 
     13 C3'        51.6650   25.9820    6.2790 C.3       1 ADP463      0.0000 
     14 O3'        51.4100   27.0490    7.1930 O.3       1 ADP463      0.0000 
     15 C2'        52.6570   24.8910    6.7390 C.3       1 ADP463      0.0000 
     16 O2'        52.4750   24.6520    8.1400 O.3       1 ADP463      0.0000 
     17 C1'        52.2070   23.6820    5.9290 C.3       1 ADP463      0.0000 
     18 N9         53.0470   23.5870    4.7560 N.pl3     1 ADP463      0.0000 
     19 C8         52.7130   23.8450    3.4640 C.2       1 ADP463      0.0000 
     20 N7         53.7430   23.7010    2.6280 N.2       1 ADP463      0.0000 
     21 C5         54.7970   23.2970    3.4390 C.ar      1 ADP463      0.0000 
     22 C6         56.1490   22.9840    3.0930 C.ar      1 ADP463      0.0000 
     23 N6         56.6660   23.0040    1.9450 N.pl3     1 ADP463      0.0000 
     24 N1         56.8410   22.6030    4.2060 N.ar      1 ADP463      0.0000 
     25 C2         56.3200   22.5500    5.4680 C.ar      1 ADP463      0.0000 
     26 N3         55.0880   22.8520    5.8000 N.ar      1 ADP463      0.0000 
     27 C4         54.3710   23.2200    4.7460 C.ar      1 ADP463      0.0000 
     28 H          49.3467   26.9326    5.3739 H         1 ADP463      0.0000 
     29 H          49.9380   25.8691    4.0859 H         1 ADP463      0.0000 
     30 H          49.8942   25.0610    6.9879 H         1 ADP463      0.0000 
     31 H          51.9802   26.3192    5.3051 H         1 ADP463      0.0000 
     32 H          53.6142   25.1685    6.4569 H         1 ADP463      0.0000 
     33 H          52.3031   22.8171    6.5417 H         1 ADP463      0.0000 
     34 H          51.7966   24.1113    3.1854 H         1 ADP463      0.0000 
     35 H          57.0018   22.2277    6.2475 H         1 ADP463      0.0000 
     36 H          51.0085   26.6105    7.9970 H         1 ADP463      0.0000 
     37 H          51.9781   25.4519    8.4765 H         1 ADP463      0.0000 
     38 H          55.9276   23.2887    1.3337 H         1 ADP463      0.0000 
@<TRIPOS>BOND
     1    2    1 ar   
     2    3    1 ar   
     3    4    1 ar   
     4    8    1 1    
     5    6    5 ar   
     6    7    5 ar   
     7    8    5 1    
     8    9    5 1    
     9   10    9 1    
    10   11   10 1    
    11   28   10 1    
    12   29   10 1    
    13   12   11 1    
    14   13   11 1    
    15   30   11 1    
    16   17   12 1    
    17   14   13 1    
    18   15   13 1    
    19   31   13 1    
    20   36   14 1    
    21   16   15 1    
    22   17   15 1    
    23   32   15 1    
    24   37   16 1    
    25   18   17 1    
    26   33   17 1    
    27   19   18 1    
    28   27   18 1    
    29   20   19 2    
    30   34   19 1    
    31   21   20 1    
    32   22   21 ar   
    33   27   21 ar   
    34   23   22 1    
    35   24   22 ar   
    36   38   23 1    
    37   25   24 ar   
    38   26   25 ar   
    39   35   25 1    
    40   27   26 ar   
@<TRIPOS>SUBSTRUCTURE
     1 ADP463      1 GROUP   
@<TRIPOS>SET

