#    Name: 4anu_EM7_1_INTS_M
#    Modification time : Tue Mar 25 05:50:52 2014

@<TRIPOS>MOLECULE
4anu_EM7_1_INTS_M
   46     0     9     0     0
SMALL
NO_CHARGES


@<TRIPOS>ATOM
      1 CA         46.6870   15.3555   33.4610 C.3       3 GLC5        0.0000 
      2 CA         47.8750   16.1040   31.9600 C.3       9 GLL5        0.0000 
      3 CA         45.4990   14.6070   34.9620 C.3       6 GLP5        0.0000 
      4 CA         48.9535   14.5665   32.7915 C.3       3 GLC5        0.0000 
      5 CA         50.0320   13.0290   33.6230 C.3       6 GLP5        0.0000 
      6 CA         47.9110   15.5530   29.9265 C.3       3 GLC5        0.0000 
      7 CA         47.9470   15.0020   27.8930 C.3       6 GLP5        0.0000 
      8 CA         46.8735   11.2925   32.0950 C.3       3 GLC5        0.0000 
      9 CA         47.4870   12.6110   30.4190 C.3       9 GLL5        0.0000 
     10 CA         46.2600    9.9740   33.7710 C.3       6 GLP5        0.0000 
     11 CA         49.5230   10.5500   30.3880 C.3       3 GLC5        0.0000 
     12 CA         48.1530   11.5820   29.7280 C.3       9 GLL5        0.0000 
     13 CA         50.8930    9.5180   31.0480 C.3       6 GLP5        0.0000 
     14 O          50.3600   11.0930   28.5460 O.2       1 ALC1        0.0000 
     15 O          49.4310   11.6870   29.4010 O.2       7 ALL1        0.0000 
     16 O          51.2890   10.4990   27.6910 O.2       4 ALP1        0.0000 
     17 N          48.4310    9.4810   28.7450 N.am      2 SEC2        0.0000 
     18 N          47.5040   10.4640   29.3620 N.am      8 SEL2        0.0000 
     19 N          49.3580    8.4980   28.1280 N.am      5 SEP2        0.0000 
     20 CA         45.0210    8.7835   30.5235 C.3       3 GLC5        0.0000 
     21 CA         46.2280   10.3130   29.6670 C.3       9 GLL5        0.0000 
     22 CA         43.8140    7.2540   31.3800 C.3       6 GLP5        0.0000 
     23 CA         47.7565    9.0245   30.0540 C.3       3 GLC5        0.0000 
     24 CA         49.2850    7.7360   30.4410 C.3       6 GLP5        0.0000 
     25 CA         45.8840   12.9760   29.0400 C.3       3 GLC5        0.0000 
     26 CA         45.5470   11.3230   30.3580 C.3       9 GLL5        0.0000 
     27 CA         46.2210   14.6290   27.7220 C.3       6 GLP5        0.0000 
     28 CA         44.6415   13.2985   33.3975 C.3       3 GLC5        0.0000 
     29 CA         43.7840   11.9900   31.8330 C.3       9 GLL5        0.0000 
     30 CA         39.9965   11.2280   30.2510 C.3       3 GLC5        0.0000 
     31 CA         41.9510   10.4040   30.5430 C.3       9 GLL5        0.0000 
     32 CA         38.0420   12.0520   29.9590 C.3       6 GLP5        0.0000 
     33 CA         39.9260   12.1995   31.2600 C.3       3 GLC5        0.0000 
     34 CA         41.5260   11.1610   31.6370 C.3       9 GLL5        0.0000 
     35 CA         38.3260   13.2380   30.8830 C.3       6 GLP5        0.0000 
     36 CA         47.8835   13.5493   28.9832 C.3       3 GLC5        0.0000 
     37 CA         46.0737   10.3960   31.8918 C.3       3 GLC5        0.0000 
     38 CA         45.1277   10.7952   32.5272 C.3       3 GLC5        0.0000 
     39 CA         44.2070   11.2430   30.7340 C.3       9 GLL5        0.0000 
     40 CA         43.2207   13.0503   30.3858 C.3       3 GLC5        0.0000 
     41 CA         42.4460   14.4840   29.4880 C.3       6 GLP5        0.0000 
     42 CA         42.1188   11.5775   29.0198 C.3       3 GLC5        0.0000 
     43 CA         43.2800   10.4360   30.0860 C.3       9 GLL5        0.0000 
     44 CA         41.6220   12.7350   27.7250 C.3       6 GLP5        0.0000 
     45 CA         43.3306    8.9379   30.9282 C.3       3 GLC5        0.0000 
     46 CA         42.2200   13.0218   30.7240 C.3       3 GLC5        0.0000 
@<TRIPOS>BOND
@<TRIPOS>SUBSTRUCTURE
     1 ALC1       14 GROUP        1 X    ALC  0     ROOT ALC X 1
     2 SEC2       17 GROUP        1 X    SEC  0     **** SEC X 2
     3 GLC5        1 GROUP        1 X    GLC  0     **** GLC X 6
     4 ALP1       16 GROUP        1 Y    ALP  0     ROOT ALP Y 8
     5 SEP2       19 GROUP        1 Y    SEP  0     **** SEP Y 9
     6 GLP5        3 GROUP        1 Y    GLP  0     **** GLP Y 13
     7 ALL1       15 GROUP        1 Z    ALL  0     ROOT ALL Z 15
     8 SEL2       18 GROUP        1 Z    SEL  0     **** SEL Z 16
     9 GLL5        2 GROUP        1 Z    GLL  0     **** GLL Z 20
@<TRIPOS>SET

