#    Name: 4anu_EM7_1_ligand
#    Modification time : Tue Mar 25 05:50:52 2014

@<TRIPOS>MOLECULE
4anu_EM7_1_ligand
   34    36     1     0     0
SMALL
NO_CHARGES


@<TRIPOS>ATOM
      1 C13        47.8750   16.1040   31.9600 C.3       1 EM72089     0.0000 
      2 N7         47.3160   14.8270   31.4760 N.am      1 EM72089     0.0000 
      3 C12        48.1410   13.9380   30.8980 C.2       1 EM72089     0.0000 
      4 O1         49.3480   14.1330   30.7780 O.2       1 EM72089     0.0000 
      5 C5         47.4870   12.6110   30.4190 C.ar      1 EM72089     0.0000 
      6 N6         46.2040   12.4270   30.7160 N.ar      1 EM72089     0.0000 
      7 C4         48.1530   11.5820   29.7280 C.ar      1 EM72089     0.0000 
      8 N8         49.4310   11.6870   29.4010 N.pl3     1 EM72089     0.0000 
      9 N5         47.5040   10.4640   29.3620 N.ar      1 EM72089     0.0000 
     10 C3         46.2280   10.3130   29.6670 C.ar      1 EM72089     0.0000 
     11 C2         45.5470   11.3230   30.3580 C.ar      1 EM72089     0.0000 
     12 C7         44.2070   11.2430   30.7340 C.ar      1 EM72089     0.0000 
     13 C8         43.7840   11.9900   31.8330 C.ar      1 EM72089     0.0000 
     14 C6         43.2800   10.4360   30.0860 C.ar      1 EM72089     0.0000 
     15 C11        41.9510   10.4040   30.5430 C.ar      1 EM72089     0.0000 
     16 C10        41.5260   11.1610   31.6370 C.ar      1 EM72089     0.0000 
     17 C9         42.4620   11.9580   32.2830 C.ar      1 EM72089     0.0000 
     18 C1         42.1050   12.7500   33.3700 C.2       1 EM72089     0.0000 
     19 N2         41.7130   12.3730   34.5770 N.2       1 EM72089     0.0000 
     20 N3         41.5140   13.4070   35.2280 N.2       1 EM72089     0.0000 
     21 N4         41.7400   14.4210   34.5480 N.2       1 EM72089     0.0000 
     22 N1         42.1000   14.0800   33.4200 N.pl3     1 EM72089     0.0000 
     23 H          46.3201   14.6803   31.6054 H         1 EM72089     0.0000 
     24 H          49.8811   12.5432   29.6546 H         1 EM72089     0.0000 
     25 H          49.8308   10.9006   28.9300 H         1 EM72089     0.0000 
     26 H          45.6967    9.4573   29.4100 H         1 EM72089     0.0000 
     27 H          44.4721   12.5887   32.3328 H         1 EM72089     0.0000 
     28 H          43.5550    9.8670   29.2823 H         1 EM72089     0.0000 
     29 H          41.2670    9.7975   30.0493 H         1 EM72089     0.0000 
     30 H          40.5614   11.1272   31.9477 H         1 EM72089     0.0000 
     31 H          42.3533   14.6480   32.6473 H         1 EM72089     0.0000 
     32 H          48.5823   15.9611   32.6523 H         1 EM72089     0.0000 
     33 H          48.2919   16.6313   31.2196 H         1 EM72089     0.0000 
     34 H          47.1729   16.6838   32.3735 H         1 EM72089     0.0000 
@<TRIPOS>BOND
     1    2    1 1    
     2   32    1 1    
     3   33    1 1    
     4   34    1 1    
     5    3    2 am   
     6   23    2 1    
     7    4    3 2    
     8    5    3 1    
     9    6    5 ar   
    10    7    5 ar   
    11   11    6 ar   
    12    8    7 1    
    13    9    7 ar   
    14   24    8 1    
    15   25    8 1    
    16   10    9 ar   
    17   11   10 ar   
    18   26   10 1    
    19   12   11 1    
    20   13   12 ar   
    21   14   12 ar   
    22   17   13 ar   
    23   27   13 1    
    24   15   14 ar   
    25   28   14 1    
    26   16   15 ar   
    27   29   15 1    
    28   17   16 ar   
    29   30   16 1    
    30   18   17 1    
    31   19   18 2    
    32   22   18 1    
    33   20   19 1    
    34   21   20 2    
    35   22   21 1    
    36   31   22 1    
@<TRIPOS>SUBSTRUCTURE
     1 EM72089     1 GROUP   
@<TRIPOS>SET

