#    Name: 3wbl_PDY_1_INTS_M
#    Modification time : Tue Mar 25 02:28:23 2014

@<TRIPOS>MOLECULE
3wbl_PDY_1_INTS_M
   53     0    12     0     0
SMALL
NO_CHARGES


@<TRIPOS>ATOM
      1 CA         25.4940   60.5695    9.3635 C.3       4 GLC5        0.0000 
      2 CA         25.1200   62.0390   11.0040 C.3      12 GLL5        0.0000 
      3 CA         25.8680   59.1000    7.7230 C.3       8 GLP5        0.0000 
      4 OD1        23.9330   64.6140   13.6565 O.co2     3 ASC3        0.0000 
      5 OD1        25.3240   64.0270   13.0680 O.co2    11 ASL3        0.0000 
      6 OD1        22.5420   65.2010   14.2450 O.co2     7 ASP3        0.0000 
      7 CA         26.5065   66.2900   12.6390 C.3       4 GLC5        0.0000 
      8 CA         26.1520   64.2120   11.8850 C.3      12 GLL5        0.0000 
      9 CA         26.8610   68.3680   13.3930 C.3       8 GLP5        0.0000 
     10 CA         27.8500   62.6670    6.2210 C.3       4 GLC5        0.0000 
     11 CA         28.8800   62.8130    7.9940 C.3      12 GLL5        0.0000 
     12 CA         26.8200   62.5210    4.4480 C.3       8 GLP5        0.0000 
     13 CA         26.7105   70.0675    9.1245 C.3       4 GLC5        0.0000 
     14 CA         26.7740   68.1570    8.3730 C.3      12 GLL5        0.0000 
     15 CA         26.6470   71.9780    9.8760 C.3       8 GLP5        0.0000 
     16 CA         25.1930   69.5160    7.9140 C.3       4 GLC5        0.0000 
     17 CA         23.6120   70.8750    7.4550 C.3       8 GLP5        0.0000 
     18 N          29.6650   68.8250    6.3815 N.am      2 SEC2        0.0000 
     19 N          28.6870   67.8690    7.0620 N.am     10 SEL2        0.0000 
     20 N          30.6430   69.7810    5.7010 N.am      6 SEP2        0.0000 
     21 O          30.9600   66.3215    6.1870 O.2       1 ALC1        0.0000 
     22 O          30.1030   65.3480    6.6500 O.2       9 ALL1        0.0000 
     23 O          31.8170   67.2950    5.7240 O.2       5 ALP1        0.0000 
     24 CA         31.3180   65.1520    9.3490 C.3       4 GLC5        0.0000 
     25 CA         31.6300   63.8960    7.8770 C.3      12 GLL5        0.0000 
     26 CA         31.0060   66.4080   10.8210 C.3       8 GLP5        0.0000 
     27 CA         29.3955   63.9280    4.8520 C.3       4 GLC5        0.0000 
     28 CA         31.5080   63.8920    5.4460 C.3      12 GLL5        0.0000 
     29 CA         27.2830   63.9640    4.2580 C.3       8 GLP5        0.0000 
     30 CA         32.9705   65.4320    5.1540 C.3       4 GLC5        0.0000 
     31 CA         34.4330   66.9720    4.8620 C.3       8 GLP5        0.0000 
     32 CA         36.8945   62.8780    7.1785 C.3       4 GLC5        0.0000 
     33 CA         36.2150   61.7260    5.5020 C.3      12 GLL5        0.0000 
     34 CA         37.5740   64.0300    8.8550 C.3       8 GLP5        0.0000 
     35 CA         23.1288   60.9940   12.8710 C.3       4 GLC5        0.0000 
     36 CA         24.1410   62.0040   12.1770 C.3      12 GLL5        0.0000 
     37 CA         21.8150   59.6260   12.9550 C.3       8 GLP5        0.0000 
     38 CA         23.9284   62.7869    9.6944 C.3       4 GLC5        0.0000 
     39 CA         22.7540   62.8300    8.2630 C.3       8 GLP5        0.0000 
     40 CA         27.9723   64.3872    6.0120 C.3       4 GLC5        0.0000 
     41 CA         28.3350   64.2240    8.1050 C.3      12 GLL5        0.0000 
     42 CA         29.8338   65.6093    9.2935 C.3       4 GLC5        0.0000 
     43 CA         28.9880   65.3970    7.4270 C.3      12 GLL5        0.0000 
     44 CA         26.1355   67.6065    6.7825 C.3       4 GLC5        0.0000 
     45 CA         27.1960   66.7830    8.4110 C.3      12 GLL5        0.0000 
     46 CA         25.2860   67.7430    5.1730 C.3       8 GLP5        0.0000 
     47 CA         28.2545   67.8905    9.3245 C.3       4 GLC5        0.0000 
     48 CA         29.5240   68.3110   10.2570 C.3       8 GLP5        0.0000 
     49 CA         32.6107   63.5892    9.9157 C.3       4 GLC5        0.0000 
     50 CA         32.6150   62.8950    7.8240 C.3      12 GLL5        0.0000 
     51 CA         33.0990   63.7830   11.9810 C.3       8 GLP5        0.0000 
     52 CA         34.0504   64.1036    7.6489 C.3       4 GLC5        0.0000 
     53 CA         35.5110   65.3070    8.0820 C.3       8 GLP5        0.0000 
@<TRIPOS>BOND
@<TRIPOS>SUBSTRUCTURE
     1 ALC1       21 GROUP        1 X    ALC  0     ROOT ALC X 1
     2 SEC2       18 GROUP        1 X    SEC  0     **** SEC X 2
     3 ASC3        4 GROUP        1 X    ASC  0     **** ASC X 3
     4 GLC5        1 GROUP        1 X    GLC  0     **** GLC X 6
     5 ALP1       23 GROUP        1 Y    ALP  0     ROOT ALP Y 8
     6 SEP2       20 GROUP        1 Y    SEP  0     **** SEP Y 9
     7 ASP3        6 GROUP        1 Y    ASP  0     **** ASP Y 10
     8 GLP5        3 GROUP        1 Y    GLP  0     **** GLP Y 13
     9 ALL1       22 GROUP        1 Z    ALL  0     ROOT ALL Z 15
    10 SEL2       19 GROUP        1 Z    SEL  0     **** SEL Z 16
    11 ASL3        5 GROUP        1 Z    ASL  0     **** ASL Z 17
    12 GLL5        2 GROUP        1 Z    GLL  0     **** GLL Z 20
@<TRIPOS>SET

