#    Name: 3wbl_PDY_1_ligand
#    Modification time : Tue Mar 25 02:28:23 2014

@<TRIPOS>MOLECULE
3wbl_PDY_1_ligand
   52    55     1     0     0
SMALL
NO_CHARGES


@<TRIPOS>ATOM
      1 C25        25.1200   62.0390   11.0040 C.3       1 PDY302      0.0000 
      2 C26        24.1410   62.0040   12.1770 C.3       1 PDY302      0.0000 
      3 C23        24.7440   62.7200   13.3970 C.3       1 PDY302      0.0000 
      4 N12        25.3240   64.0270   13.0680 N.4       1 PDY302      0.0000 
      5 C22        26.1520   64.2120   11.8850 C.3       1 PDY302      0.0000 
      6 C15        25.5750   63.4660   10.6610 C.3       1 PDY302      0.0000 
      7 N10        26.5340   63.3840    9.5600 N.pl3     1 PDY302      0.0000 
      8 C4         27.1090   64.4670    8.9410 C.2       1 PDY302      0.0000 
      9 C3         28.3350   64.2240    8.1050 C.2       1 PDY302      0.0000 
     10 C14        28.8800   62.8130    7.9940 C.3       1 PDY302      0.0000 
     11 N6         26.6030   65.7400    9.0670 N.2       1 PDY302      0.0000 
     12 C5         27.1960   66.7830    8.4110 C.2       1 PDY302      0.0000 
     13 C8         26.7740   68.1570    8.3730 C.2       1 PDY302      0.0000 
     14 C11        27.7360   68.7580    7.5490 C.2       1 PDY302      0.0000 
     15 N7         28.6870   67.8690    7.0620 N.2       1 PDY302      0.0000 
     16 N2         28.3390   66.6440    7.6120 N.pl3     1 PDY302      0.0000 
     17 C1         28.9880   65.3970    7.4270 C.2       1 PDY302      0.0000 
     18 N9         30.1030   65.3480    6.6500 N.pl3     1 PDY302      0.0000 
     19 C13        31.0720   64.3900    6.6780 C.ar      1 PDY302      0.0000 
     20 C17        31.6300   63.8960    7.8770 C.ar      1 PDY302      0.0000 
     21 C20        32.6150   62.8950    7.8240 C.ar      1 PDY302      0.0000 
     22 C18        31.5080   63.8920    5.4460 C.ar      1 PDY302      0.0000 
     23 C19        32.4890   62.9070    5.3950 C.ar      1 PDY302      0.0000 
     24 C16        33.0570   62.4050    6.5810 C.ar      1 PDY302      0.0000 
     25 O21        34.0310   61.4180    6.5340 O.3       1 PDY302      0.0000 
     26 C24        34.8230   61.1220    5.3720 C.3       1 PDY302      0.0000 
     27 C27        36.2150   61.7260    5.5020 C.3       1 PDY302      0.0000 
     28 H          24.6428   61.5977   10.1230 H         1 PDY302      0.0000 
     29 H          25.9999   61.4361   11.2508 H         1 PDY302      0.0000 
     30 H          23.9285   60.9726   12.4401 H         1 PDY302      0.0000 
     31 H          23.2190   62.5016   11.8935 H         1 PDY302      0.0000 
     32 H          25.5088   62.0547   13.8351 H         1 PDY302      0.0000 
     33 H          23.9466   62.8280   14.1534 H         1 PDY302      0.0000 
     34 H          27.1718   63.8374   12.0519 H         1 PDY302      0.0000 
     35 H          26.2315   65.2755   11.6187 H         1 PDY302      0.0000 
     36 H          24.6866   64.0125   10.3236 H         1 PDY302      0.0000 
     37 H          26.7788   62.4087    9.2443 H         1 PDY302      0.0000 
     38 H          26.0599   68.5215    8.7869 H         1 PDY302      0.0000 
     39 H          27.7328   69.7179    7.3392 H         1 PDY302      0.0000 
     40 H          30.2356   66.1523    5.9352 H         1 PDY302      0.0000 
     41 H          31.3183   64.2652    8.7748 H         1 PDY302      0.0000 
     42 H          33.0121   62.5212    8.6903 H         1 PDY302      0.0000 
     43 H          31.0994   64.2578    4.5755 H         1 PDY302      0.0000 
     44 H          32.8061   62.5386    4.4888 H         1 PDY302      0.0000 
     45 H          34.3625   61.5267    4.4595 H         1 PDY302      0.0000 
     46 H          34.9365   60.0378    5.2300 H         1 PDY302      0.0000 
     47 H          29.6922   62.7733    7.4119 H         1 PDY302      0.0000 
     48 H          29.1405   62.4442    8.8863 H         1 PDY302      0.0000 
     49 H          28.2077   62.1849    7.6023 H         1 PDY302      0.0000 
     50 H          36.7011   61.3703    6.3002 H         1 PDY302      0.0000 
     51 H          36.7816   61.5289    4.7019 H         1 PDY302      0.0000 
     52 H          36.1807   62.7207    5.5990 H         1 PDY302      0.0000 
@<TRIPOS>BOND
     1    2    1 1    
     2    6    1 1    
     3   28    1 1    
     4   29    1 1    
     5    3    2 1    
     6   30    2 1    
     7   31    2 1    
     8    4    3 1    
     9   32    3 1    
    10   33    3 1    
    11    5    4 1    
    12    6    5 1    
    13   34    5 1    
    14   35    5 1    
    15    7    6 1    
    16   36    6 1    
    17    8    7 1    
    18   37    7 1    
    19    9    8 1    
    20   11    8 2    
    21   10    9 1    
    22   17    9 2    
    23   47   10 1    
    24   48   10 1    
    25   49   10 1    
    26   12   11 1    
    27   13   12 2    
    28   16   12 1    
    29   14   13 1    
    30   38   13 1    
    31   15   14 2    
    32   39   14 1    
    33   16   15 1    
    34   17   16 1    
    35   18   17 1    
    36   19   18 1    
    37   40   18 1    
    38   20   19 ar   
    39   22   19 ar   
    40   21   20 ar   
    41   41   20 1    
    42   24   21 ar   
    43   42   21 1    
    44   23   22 ar   
    45   43   22 1    
    46   24   23 ar   
    47   44   23 1    
    48   25   24 1    
    49   26   25 1    
    50   27   26 1    
    51   45   26 1    
    52   46   26 1    
    53   50   27 1    
    54   51   27 1    
    55   52   27 1    
@<TRIPOS>SUBSTRUCTURE
     1 PDY302      1 GROUP   
@<TRIPOS>SET

