#    Name: 3jq3_ADP_1_INTS_M
#    Modification time : Tue Mar 25 17:42:07 2014

@<TRIPOS>MOLECULE
3jq3_ADP_1_INTS_M
   60     0    12     0     0
SMALL
NO_CHARGES


@<TRIPOS>ATOM
      1 NZ         15.6825   15.2555   18.8480 N.4       3 LYC4        0.0000 
      2 NZ         14.3280   15.2180   18.7590 N.4      11 LYL4        0.0000 
      3 NZ         17.3420   15.9600   17.8310 N.4       7 LYP4        0.0000 
      4 N          15.6825   15.2555   18.8480 N.am      2 SEC2        0.0000 
      5 N          14.3280   15.2180   18.7590 N.am     10 SEL2        0.0000 
      6 N          17.0370   15.2930   18.9370 N.am      6 SEP2        0.0000 
      7 N          15.4095   15.5950   17.7855 N.am      2 SEC2        0.0000 
      8 N          16.4910   15.9720   16.8120 N.am      6 SEP2        0.0000 
      9 N          14.7035   13.8110   19.5210 N.am      2 SEC2        0.0000 
     10 N          15.0790   12.4040   20.2830 N.am      6 SEP2        0.0000 
     11 NZ         12.2720   12.8335   16.3905 N.4       3 LYC4        0.0000 
     12 NZ         12.9940   14.0810   16.9340 N.4      11 LYL4        0.0000 
     13 NZ         12.7260   10.9710   15.9230 N.4       7 LYP4        0.0000 
     14 NZ         13.0470   14.8010   15.6530 N.4       3 LYC4        0.0000 
     15 NZ         13.1130   16.8230   14.1070 N.4       7 LYP4        0.0000 
     16 N          13.4135   12.8760   16.5430 N.am      2 SEC2        0.0000 
     17 N          12.9940   14.0810   16.9340 N.am     10 SEL2        0.0000 
     18 N          13.8330   11.6710   16.1520 N.am      6 SEP2        0.0000 
     19 N          12.2720   12.8335   16.3905 N.am      2 SEC2        0.0000 
     20 N          11.5500   11.5860   15.8470 N.am      6 SEP2        0.0000 
     21 N          13.0470   14.8010   15.6530 N.am      2 SEC2        0.0000 
     22 N          13.1000   15.5210   14.3720 N.am      6 SEP2        0.0000 
     23 N          10.3995   17.8805   16.5145 N.am      2 SEC2        0.0000 
     24 N          11.1480   18.5020   17.6300 N.am     10 SEL2        0.0000 
     25 N           9.6510   17.2590   15.3990 N.am      6 SEP2        0.0000 
     26 N          10.2530   19.5055   17.9395 N.am      2 SEC2        0.0000 
     27 N           9.3580   20.5090   18.2490 N.am      6 SEP2        0.0000 
     28 N          15.6540   21.5135   22.3415 N.am      2 SEC2        0.0000 
     29 N          14.8390   21.4680   20.9750 N.am     10 SEL2        0.0000 
     30 N          16.4690   21.5590   23.7080 N.am      6 SEP2        0.0000 
     31 O          15.3750   23.6710   18.2895 O.2       1 ALC1        0.0000 
     32 O          15.9200   22.5700   19.0070 O.2       9 ALL1        0.0000 
     33 O          14.8300   24.7720   17.5720 O.2       5 ALP1        0.0000 
     34 CA         17.7685   18.8460   17.5075 C.3       4 GLC5        0.0000 
     35 CA         16.6140   20.3190   18.4410 C.3      12 GLL5        0.0000 
     36 CA         18.9230   17.3730   16.5740 C.3       8 GLP5        0.0000 
     37 N          16.8840   18.8210   13.7390 N.am      2 SEC2        0.0000 
     38 N          16.7530   19.5770   14.8500 N.am     10 SEL2        0.0000 
     39 N          17.0150   18.0650   12.6280 N.am      6 SEP2        0.0000 
     40 CA         19.5305   19.0120   14.2060 C.3       4 GLC5        0.0000 
     41 CA         19.0040   20.6770   14.0630 C.3      12 GLL5        0.0000 
     42 CA         20.0570   17.3470   14.3490 C.3       8 GLP5        0.0000 
     43 O          18.0040   19.2170   12.6855 O.2       1 ALC1        0.0000 
     44 O          18.9930   20.3690   12.7430 O.2       9 ALL1        0.0000 
     45 O          17.0150   18.0650   12.6280 O.2       5 ALP1        0.0000 
     46 N          20.7845   22.3870   14.0815 N.am      2 SEC2        0.0000 
     47 N          20.0220   21.3810   14.6010 N.am     10 SEL2        0.0000 
     48 N          21.5470   23.3930   13.5620 N.am      6 SEP2        0.0000 
     49 CA         21.4900   22.4265   14.6305 C.3       4 GLC5        0.0000 
     50 CA         20.0530   21.7000   15.9100 C.3      12 GLL5        0.0000 
     51 CA         22.9270   23.1530   13.3510 C.3       8 GLP5        0.0000 
     52 CA         18.7725   22.5415   14.7725 C.3       4 GLC5        0.0000 
     53 CA         17.4920   23.3830   13.6350 C.3       8 GLP5        0.0000 
     54 CA         13.2695   21.3053   18.7623 C.3       4 GLC5        0.0000 
     55 CA         15.4470   21.2660   18.6570 C.3      12 GLL5        0.0000 
     56 CA         11.4860   21.6450   18.2940 C.3       8 GLP5        0.0000 
     57 CA         18.4410   18.9135   16.1255 C.3       4 GLC5        0.0000 
     58 CA         18.0120   20.6470   16.3850 C.3      12 GLL5        0.0000 
     59 CA         17.8628   21.9705   14.5428 C.3       4 GLC5        0.0000 
     60 CA         17.9060   20.2610   14.9690 C.3      12 GLL5        0.0000 
@<TRIPOS>BOND
@<TRIPOS>SUBSTRUCTURE
     1 ALC1       31 GROUP        1 X    ALC  0     ROOT ALC X 1
     2 SEC2        4 GROUP        1 X    SEC  0     **** SEC X 2
     3 LYC4        1 GROUP        1 X    LYC  0     **** LYC X 4
     4 GLC5       34 GROUP        1 X    GLC  0     **** GLC X 6
     5 ALP1       33 GROUP        1 Y    ALP  0     ROOT ALP Y 8
     6 SEP2        6 GROUP        1 Y    SEP  0     **** SEP Y 9
     7 LYP4        3 GROUP        1 Y    LYP  0     **** LYP Y 11
     8 GLP5       36 GROUP        1 Y    GLP  0     **** GLP Y 13
     9 ALL1       32 GROUP        1 Z    ALL  0     ROOT ALL Z 15
    10 SEL2        5 GROUP        1 Z    SEL  0     **** SEL Z 16
    11 LYL4        2 GROUP        1 Z    LYL  0     **** LYL Z 18
    12 GLL5       35 GROUP        1 Z    GLL  0     **** GLL Z 20
@<TRIPOS>SET

