#    Name: 3jq3_ADP_1_ligand
#    Modification time : Tue Mar 25 17:42:07 2014

@<TRIPOS>MOLECULE
3jq3_ADP_1_ligand
   39    41     1     0     0
SMALL
NO_CHARGES


@<TRIPOS>ATOM
      1 PB         12.9700   14.9730   18.1500 P.3       1 ADP400      0.0000 
      2 O1B        11.8840   14.6280   19.1420 O.co2     1 ADP400      0.0000 
      3 O2B        14.3280   15.2180   18.7590 O.co2     1 ADP400      0.0000 
      4 O3B        12.9940   14.0810   16.9340 O.co2     1 ADP400      0.0000 
      5 PA         12.0230   17.6210   18.4910 P.3       1 ADP400      0.0000 
      6 O1A        11.4900   17.0580   19.7870 O.co2     1 ADP400      0.0000 
      7 O2A        11.1480   18.5020   17.6300 O.co2     1 ADP400      0.0000 
      8 O3A        12.5360   16.4080   17.5590 O.3       1 ADP400      0.0000 
      9 O5'        13.3630   18.4580   18.8030 O.3       1 ADP400      0.0000 
     10 C5'        14.1660   18.2050   19.9550 C.3       1 ADP400      0.0000 
     11 C4'        15.2440   19.2800   20.0340 C.3       1 ADP400      0.0000 
     12 O4'        16.2370   19.0700   19.0250 O.3       1 ADP400      0.0000 
     13 C3'        14.6590   20.6650   19.8040 C.3       1 ADP400      0.0000 
     14 O3'        14.8390   21.4680   20.9750 O.3       1 ADP400      0.0000 
     15 C2'        15.4470   21.2660   18.6570 C.3       1 ADP400      0.0000 
     16 O2'        15.9200   22.5700   19.0070 O.3       1 ADP400      0.0000 
     17 C1'        16.6140   20.3190   18.4410 C.3       1 ADP400      0.0000 
     18 N9         16.9250   20.1660   16.9950 N.pl3     1 ADP400      0.0000 
     19 C8         16.1730   19.5270   16.0790 C.2       1 ADP400      0.0000 
     20 N7         16.7530   19.5770   14.8500 N.2       1 ADP400      0.0000 
     21 C5         17.9060   20.2610   14.9690 C.ar      1 ADP400      0.0000 
     22 C6         19.0040   20.6770   14.0630 C.ar      1 ADP400      0.0000 
     23 N6         18.9930   20.3690   12.7430 N.pl3     1 ADP400      0.0000 
     24 N1         20.0220   21.3810   14.6010 N.ar      1 ADP400      0.0000 
     25 C2         20.0530   21.7000   15.9100 C.ar      1 ADP400      0.0000 
     26 N3         19.0940   21.3540   16.7870 N.ar      1 ADP400      0.0000 
     27 C4         18.0120   20.6470   16.3850 C.ar      1 ADP400      0.0000 
     28 H          14.6619   17.2349   19.9005 H         1 ADP400      0.0000 
     29 H          13.5819   18.2463   20.8754 H         1 ADP400      0.0000 
     30 H          15.6856   19.2610   21.0156 H         1 ADP400      0.0000 
     31 H          13.6476   20.5696   19.5170 H         1 ADP400      0.0000 
     32 H          14.8400   21.2609   17.7871 H         1 ADP400      0.0000 
     33 H          17.4694   20.7325   18.9578 H         1 ADP400      0.0000 
     34 H          15.3188   19.0820   16.2659 H         1 ADP400      0.0000 
     35 H          19.4851   20.9973   12.1405 H         1 ADP400      0.0000 
     36 H          18.4937   19.5408   12.4885 H         1 ADP400      0.0000 
     37 H          20.8887   22.2605   16.2709 H         1 ADP400      0.0000 
     38 H          15.3414   22.2738   20.6614 H         1 ADP400      0.0000 
     39 H          15.4477   23.1926   18.3830 H         1 ADP400      0.0000 
@<TRIPOS>BOND
     1    2    1 ar   
     2    3    1 ar   
     3    4    1 ar   
     4    8    1 1    
     5    6    5 ar   
     6    7    5 ar   
     7    8    5 1    
     8    9    5 1    
     9   10    9 1    
    10   11   10 1    
    11   28   10 1    
    12   29   10 1    
    13   12   11 1    
    14   13   11 1    
    15   30   11 1    
    16   17   12 1    
    17   14   13 1    
    18   15   13 1    
    19   31   13 1    
    20   38   14 1    
    21   16   15 1    
    22   17   15 1    
    23   32   15 1    
    24   39   16 1    
    25   18   17 1    
    26   33   17 1    
    27   19   18 1    
    28   27   18 1    
    29   20   19 2    
    30   34   19 1    
    31   21   20 1    
    32   22   21 ar   
    33   27   21 ar   
    34   23   22 1    
    35   24   22 ar   
    36   35   23 1    
    37   36   23 1    
    38   25   24 ar   
    39   26   25 ar   
    40   37   25 1    
    41   27   26 ar   
@<TRIPOS>SUBSTRUCTURE
     1 ADP400      1 GROUP   
@<TRIPOS>SET

