#    Name: 3lfb_Z87_1_INTS_M
#    Modification time : Mon Mar 24 21:35:11 2014

@<TRIPOS>MOLECULE
3lfb_Z87_1_INTS_M
   63     0     9     0     0
SMALL
NO_CHARGES


@<TRIPOS>ATOM
      1 CA         12.4150   -9.0850  -20.0995 C.3       3 GLC5        0.0000 
      2 CA         14.0470   -7.9050  -19.1430 C.3       9 GLL5        0.0000 
      3 CA         10.7830  -10.2650  -21.0560 C.3       6 GLP5        0.0000 
      4 CA         12.5435   -7.0885  -20.1755 C.3       3 GLC5        0.0000 
      5 CA         11.0400   -6.2720  -21.2080 C.3       6 GLP5        0.0000 
      6 CA         14.5335   -6.2280  -19.9830 C.3       3 GLC5        0.0000 
      7 CA         15.0200   -4.5510  -20.8230 C.3       6 GLP5        0.0000 
      8 CA         15.8950  -11.8960  -18.0495 C.3       3 GLC5        0.0000 
      9 CA         15.2910  -10.0730  -19.0180 C.3       9 GLL5        0.0000 
     10 CA         16.4990  -13.7190  -17.0810 C.3       6 GLP5        0.0000 
     11 CA         17.4280   -9.6215  -19.4240 C.3       3 GLC5        0.0000 
     12 CA         19.5650   -9.1700  -19.8300 C.3       6 GLP5        0.0000 
     13 CA         16.0145  -11.5725  -19.9360 C.3       3 GLC5        0.0000 
     14 CA         16.7380  -13.0720  -20.8540 C.3       6 GLP5        0.0000 
     15 CA         14.9310  -10.2290  -21.0035 C.3       3 GLC5        0.0000 
     16 CA         14.5710  -10.3850  -22.9890 C.3       6 GLP5        0.0000 
     17 CA         15.1520  -10.6430  -16.2265 C.3       3 GLC5        0.0000 
     18 CA         13.8240   -9.3340  -17.1300 C.3       9 GLL5        0.0000 
     19 CA         16.4800  -11.9520  -15.3230 C.3       6 GLP5        0.0000 
     20 N          16.9785   -4.6080  -18.8840 N.am      2 SEC2        0.0000 
     21 N          18.2990   -5.2300  -19.2010 N.am      8 SEL2        0.0000 
     22 N          15.6580   -3.9860  -18.5670 N.am      5 SEP2        0.0000 
     23 CA         19.0005  -10.1495  -11.9105 C.3       3 GLC5        0.0000 
     24 CA         18.6990   -8.5660  -12.8520 C.3       9 GLL5        0.0000 
     25 CA         19.3020  -11.7330  -10.9690 C.3       6 GLP5        0.0000 
     26 CA         20.2430   -9.3240  -13.4805 C.3       3 GLC5        0.0000 
     27 CA         21.7870  -10.0820  -14.1090 C.3       6 GLP5        0.0000 
     28 CA         17.2965  -10.2940  -14.7185 C.3       3 GLC5        0.0000 
     29 CA         18.1130   -8.6360  -14.1140 C.3       9 GLL5        0.0000 
     30 CA         17.2885   -7.2385  -20.1700 C.3       3 GLC5        0.0000 
     31 CA         16.9080   -7.4450  -18.1700 C.3       9 GLL5        0.0000 
     32 CA         17.6690   -7.0320  -22.1700 C.3       6 GLP5        0.0000 
     33 CA         15.9640   -5.9980  -19.4965 C.3       3 GLC5        0.0000 
     34 CA         20.6365   -6.8315   -9.5445 C.3       3 GLC5        0.0000 
     35 CA         19.6810   -7.2460  -10.9130 C.3       9 GLL5        0.0000 
     36 CA         21.5920   -6.4170   -8.1760 C.3       6 GLP5        0.0000 
     37 O          19.9475   -5.9070  -16.4360 O.2       1 ALC1        0.0000 
     38 O          18.8260   -6.3110  -17.2990 O.2       7 ALL1        0.0000 
     39 O          21.0690   -5.5030  -15.5730 O.2       4 ALP1        0.0000 
     40 O          20.6890   -5.1880  -16.8895 O.2       1 ALC1        0.0000 
     41 O          20.3090   -4.8730  -18.2060 O.2       7 ALL1        0.0000 
     42 CA         18.1020   -3.3360  -20.8215 C.3       3 GLC5        0.0000 
     43 CA         20.0730   -3.0170  -20.2400 C.3       9 GLL5        0.0000 
     44 CA         16.1310   -3.6550  -21.4030 C.3       6 GLP5        0.0000 
     45 CA         22.8295   -2.3165  -18.3415 C.3       3 GLC5        0.0000 
     46 CA         22.5400   -2.9810  -20.2180 C.3       9 GLL5        0.0000 
     47 CA         23.1190   -1.6520  -16.4650 C.3       6 GLP5        0.0000 
     48 CA         22.5465   -4.4480  -21.8840 C.3       3 GLC5        0.0000 
     49 CA         22.5530   -5.9150  -23.5500 C.3       6 GLP5        0.0000 
     50 CA         19.6930   -7.4160  -16.1780 C.3       3 GLC5        0.0000 
     51 CA         17.7180   -7.0590  -17.1820 C.3       9 GLL5        0.0000 
     52 CA         21.6680   -7.7730  -15.1740 C.3       6 GLP5        0.0000 
     53 CA         20.0630   -6.9815  -14.4153 C.3       3 GLC5        0.0000 
     54 CA         18.1580   -6.2270  -14.2870 C.3       9 GLL5        0.0000 
     55 CA         16.4970   -5.7050  -15.4125 C.3       3 GLC5        0.0000 
     56 CA         14.9960   -4.5620  -16.2630 C.3       6 GLP5        0.0000 
     57 CA         19.8218   -7.9127  -14.8247 C.3       3 GLC5        0.0000 
     58 CA         17.8380   -7.4690  -14.8370 C.3       9 GLL5        0.0000 
     59 CA         18.4390   -8.2110  -18.7530 C.3       3 GLC5        0.0000 
     60 CA         16.1545   -5.9070  -16.9695 C.3       3 GLC5        0.0000 
     61 CA         20.7778   -7.9478  -12.8110 C.3       3 GLC5        0.0000 
     62 CA         19.0300   -7.3210  -12.3050 C.3       9 GLL5        0.0000 
     63 CA         22.2000   -8.6120  -14.0130 C.3       6 GLP5        0.0000 
@<TRIPOS>BOND
@<TRIPOS>SUBSTRUCTURE
     1 ALC1       37 GROUP        1 X    ALC  0     ROOT ALC X 1
     2 SEC2       20 GROUP        1 X    SEC  0     **** SEC X 2
     3 GLC5        1 GROUP        1 X    GLC  0     **** GLC X 6
     4 ALP1       39 GROUP        1 Y    ALP  0     ROOT ALP Y 8
     5 SEP2       22 GROUP        1 Y    SEP  0     **** SEP Y 9
     6 GLP5        3 GROUP        1 Y    GLP  0     **** GLP Y 13
     7 ALL1       38 GROUP        1 Z    ALL  0     ROOT ALL Z 15
     8 SEL2       21 GROUP        1 Z    SEL  0     **** SEL Z 16
     9 GLL5        2 GROUP        1 Z    GLL  0     **** GLL Z 20
@<TRIPOS>SET

