#    Name: 3lfb_Z87_1_ligand
#    Modification time : Mon Mar 24 21:35:12 2014

@<TRIPOS>MOLECULE
3lfb_Z87_1_ligand
   46    48     1     0     0
SMALL
NO_CHARGES


@<TRIPOS>ATOM
      1 CAA        14.0470   -7.9050  -19.1430 C.3       1 Z87361      0.0000 
      2 CAB        15.2910  -10.0730  -19.0180 C.3       1 Z87361      0.0000 
      3 CAC        13.8240   -9.3340  -17.1300 C.3       1 Z87361      0.0000 
      4 OAE        18.2990   -5.2300  -19.2010 O.2       1 Z87361      0.0000 
      5 CAL        18.7580   -6.1530  -13.0260 C.ar      1 Z87361      0.0000 
      6 CAM        18.6990   -8.5660  -12.8520 C.ar      1 Z87361      0.0000 
      7 CAN        18.1580   -6.2270  -14.2870 C.ar      1 Z87361      0.0000 
      8 CAO        18.1130   -8.6360  -14.1140 C.ar      1 Z87361      0.0000 
      9 CAP        21.5250   -2.3990  -20.8810 C.2       1 Z87361      0.0000 
     10 CAQ        16.9080   -7.4450  -18.1700 C.2       1 Z87361      0.0000 
     11 CAU        19.6810   -7.2460  -10.9130 C.3       1 Z87361      0.0000 
     12 NAV        22.1780   -3.8600  -19.2560 N.2       1 Z87361      0.0000 
     13 NAW        16.2440   -8.2510  -16.2580 N.2       1 Z87361      0.0000 
     14 NAX        18.8260   -6.3110  -17.2990 N.am      1 Z87361      0.0000 
     15 NAY        20.3090   -4.8730  -18.2060 N.am      1 Z87361      0.0000 
     16 SBA        20.0730   -3.0170  -20.2400 S.3       1 Z87361      0.0000 
     17 CBC        19.1010   -5.4560  -18.2910 C.2       1 Z87361      0.0000 
     18 CBE        19.0300   -7.3210  -12.3050 C.ar      1 Z87361      0.0000 
     19 CBF        22.5400   -2.9810  -20.2180 C.2       1 Z87361      0.0000 
     20 CBG        17.8380   -7.4690  -14.8370 C.ar      1 Z87361      0.0000 
     21 CBH        15.9800   -8.1830  -17.5590 C.2       1 Z87361      0.0000 
     22 CBI        17.7180   -7.0590  -17.1820 C.2       1 Z87361      0.0000 
     23 CBJ        20.8520   -4.0220  -19.1020 C.2       1 Z87361      0.0000 
     24 NBK        17.2700   -7.5920  -16.0450 N.pl3     1 Z87361      0.0000 
     25 CBL        14.7850   -8.8710  -18.2200 C.3       1 Z87361      0.0000 
     26 H          19.0002   -5.2378  -12.6271 H         1 Z87361      0.0000 
     27 H          18.8886   -9.4235  -12.3225 H         1 Z87361      0.0000 
     28 H          17.9533   -5.3662  -14.8075 H         1 Z87361      0.0000 
     29 H          17.8789   -9.5529  -14.5214 H         1 Z87361      0.0000 
     30 H          21.4198   -1.7932  -21.5474 H         1 Z87361      0.0000 
     31 H          16.9766   -7.2420  -19.0900 H         1 Z87361      0.0000 
     32 H          19.5702   -6.4102  -16.5122 H         1 Z87361      0.0000 
     33 H          20.9091   -5.1084  -17.3310 H         1 Z87361      0.0000 
     34 H          23.5099   -2.7777  -20.4221 H         1 Z87361      0.0000 
     35 H          14.6391   -7.5631  -19.8727 H         1 Z87361      0.0000 
     36 H          13.2607   -8.3390  -19.5827 H         1 Z87361      0.0000 
     37 H          13.7025   -7.1078  -18.6473 H         1 Z87361      0.0000 
     38 H          15.9230   -9.7983  -19.7426 H         1 Z87361      0.0000 
     39 H          15.7769  -10.7263  -18.4374 H         1 Z87361      0.0000 
     40 H          14.5418  -10.5704  -19.4555 H         1 Z87361      0.0000 
     41 H          14.2619   -9.9696  -16.4942 H         1 Z87361      0.0000 
     42 H          13.4802   -8.5673  -16.5878 H         1 Z87361      0.0000 
     43 H          13.0278   -9.8033  -17.5117 H         1 Z87361      0.0000 
     44 H          20.5767   -6.8026  -10.9453 H         1 Z87361      0.0000 
     45 H          19.1201   -6.7268  -10.2682 H         1 Z87361      0.0000 
     46 H          19.8176   -8.1542  -10.5175 H         1 Z87361      0.0000 
@<TRIPOS>BOND
     1   25    1 1    
     2   35    1 1    
     3   36    1 1    
     4   37    1 1    
     5   25    2 1    
     6   38    2 1    
     7   39    2 1    
     8   40    2 1    
     9   25    3 1    
    10   41    3 1    
    11   42    3 1    
    12   43    3 1    
    13   17    4 2    
    14    7    5 ar   
    15   18    5 ar   
    16   26    5 1    
    17    8    6 ar   
    18   18    6 ar   
    19   27    6 1    
    20   20    7 ar   
    21   28    7 1    
    22   20    8 ar   
    23   29    8 1    
    24   16    9 1    
    25   19    9 2    
    26   30    9 1    
    27   21   10 1    
    28   22   10 2    
    29   31   10 1    
    30   18   11 1    
    31   44   11 1    
    32   45   11 1    
    33   46   11 1    
    34   19   12 1    
    35   23   12 2    
    36   21   13 2    
    37   24   13 1    
    38   17   14 am   
    39   22   14 1    
    40   32   14 1    
    41   17   15 am   
    42   23   15 1    
    43   33   15 1    
    44   23   16 1    
    45   34   19 1    
    46   24   20 1    
    47   25   21 1    
    48   24   22 1    
@<TRIPOS>SUBSTRUCTURE
     1 Z87361      1 GROUP   
@<TRIPOS>SET

