#    Name: 2NVC_1_CAVITY_N1_6.mol2
#    Modification time : Tue Mar 11 00:56:37 2014

@<TRIPOS>MOLECULE
2NVC_1_CAVITY_N1_6.mol2
  100     0     5     0     0
SMALL
NO_CHARGES


@<TRIPOS>ATOM
      1 CA        -21.6364   13.0729   -4.9511 C.3       4 GLY6        0.0000 
      2 CA        -22.9930   18.7208   -7.5513 C.3       4 GLY6        0.0000 
      3 CA        -22.2043   17.5472   -7.0506 C.3       4 GLY6        0.0000 
      4 CA        -21.4156   16.3737   -6.5499 C.3       4 GLY6        0.0000 
      5 CA        -23.9667   17.7868   -8.2068 C.3       4 GLY6        0.0000 
      6 CA        -23.1779   16.6132   -7.7061 C.3       4 GLY6        0.0000 
      7 DU        -22.3892   15.4397   -7.2054 H         5 CUB7        0.0000 
      8 O         -21.6005   14.2661   -6.7046 O.2       2 ALA2        0.0000 
      9 OG        -20.8118   13.0926   -6.2039 O.2       1 SER1        0.0000 
     10 CZ        -22.5741   13.3321   -7.3601 C.ar      3 PHE5        0.0000 
     11 OG        -21.7854   12.1586   -6.8594 O.2       1 SER1        0.0000 
     12 OG        -20.9967   10.9850   -6.3587 O.2       1 SER1        0.0000 
     13 CZ        -23.5478   12.3981   -8.0156 C.ar      3 PHE5        0.0000 
     14 DU        -22.7591   11.2245   -7.5149 H         5 CUB7        0.0000 
     15 CZ        -21.9703   10.0510   -7.0141 C.ar      3 PHE5        0.0000 
     16 CA        -22.1684   18.7404   -8.8042 C.3       4 GLY6        0.0000 
     17 CA        -21.3797   17.5669   -8.3035 C.3       4 GLY6        0.0000 
     18 CA        -20.5910   16.3933   -7.8027 C.3       4 GLY6        0.0000 
     19 CA        -23.1421   17.8064   -9.4596 C.3       4 GLY6        0.0000 
     20 CA        -22.3534   16.6329   -8.9589 C.3       4 GLY6        0.0000 
     21 CZ        -21.5646   15.4593   -8.4582 C.ar      3 PHE5        0.0000 
     22 O         -20.7759   14.2858   -7.9575 O.2       2 ALA2        0.0000 
     23 O         -19.9872   13.1122   -7.4568 O.2       2 ALA2        0.0000 
     24 CZ        -22.5383   14.5253   -9.1137 C.ar      3 PHE5        0.0000 
     25 CZ        -21.7495   13.3517   -8.6130 C.ar      3 PHE5        0.0000 
     26 DU        -20.9608   12.1782   -8.1123 H         5 CUB7        0.0000 
     27 CZ        -20.1721   11.0047   -7.6115 C.ar      3 PHE5        0.0000 
     28 CZ        -21.9345   11.2442   -8.7677 C.ar      3 PHE5        0.0000 
     29 CZ        -21.1457   10.0706   -8.2670 C.ar      3 PHE5        0.0000 
     30 CZ        -22.9081   10.3101   -9.4232 C.ar      3 PHE5        0.0000 
     31 CZ        -22.1194    9.1366   -8.9225 C.ar      3 PHE5        0.0000 
     32 CA        -20.5551   17.5865   -9.5563 C.3       4 GLY6        0.0000 
     33 O         -19.7664   16.4130   -9.0556 O.2       2 ALA2        0.0000 
     34 O         -21.5288   16.6525  -10.2118 O.2       2 ALA2        0.0000 
     35 CZ        -20.7400   15.4790   -9.7111 C.ar      3 PHE5        0.0000 
     36 O         -19.9513   14.3054   -9.2104 O.2       2 ALA2        0.0000 
     37 CA        -19.1626   13.1319   -8.7096 C.3       4 GLY6        0.0000 
     38 CZ        -20.9250   13.3714   -9.8658 C.ar      3 PHE5        0.0000 
     39 CZ        -20.1362   12.1978   -9.3651 C.ar      3 PHE5        0.0000 
     40 CZ        -19.3475   11.0243   -8.8644 C.ar      3 PHE5        0.0000 
     41 CZ        -21.1099   11.2638  -10.0206 C.ar      3 PHE5        0.0000 
     42 CZ        -20.3211   10.0903   -9.5199 C.ar      3 PHE5        0.0000 
     43 CZ        -22.0835   10.3298  -10.6760 C.ar      3 PHE5        0.0000 
     44 CZ        -21.2948    9.1562  -10.1753 C.ar      3 PHE5        0.0000 
     45 CZ        -23.0571    9.3958  -11.3315 C.ar      3 PHE5        0.0000 
     46 CZ        -22.2684    8.2222  -10.8308 C.ar      3 PHE5        0.0000 
     47 CZ        -21.4797    7.0487  -10.3301 C.ar      3 PHE5        0.0000 
     48 CA        -24.8195    9.6353  -12.4877 C.3       4 GLY6        0.0000 
     49 DU        -23.2420    7.2882  -11.4863 H         5 CUB7        0.0000 
     50 CZ        -22.4533    6.1146  -10.9855 C.ar      3 PHE5        0.0000 
     51 CA        -21.6646    4.9411  -10.4848 C.3       4 GLY6        0.0000 
     52 DU        -25.0044    7.5277  -12.6424 H         5 CUB7        0.0000 
     53 DU        -24.2157    6.3542  -12.1417 H         5 CUB7        0.0000 
     54 DU        -23.4270    5.1806  -11.6410 H         5 CUB7        0.0000 
     55 O         -19.7305   17.6062  -10.8092 O.2       2 ALA2        0.0000 
     56 O         -19.9154   15.4986  -10.9639 O.2       2 ALA2        0.0000 
     57 O         -19.1267   14.3251  -10.4632 O.2       2 ALA2        0.0000 
     58 CA        -18.3380   13.1515   -9.9625 C.3       4 GLY6        0.0000 
     59 CZ        -19.3116   12.2175  -10.6180 C.ar      3 PHE5        0.0000 
     60 CA        -18.5229   11.0439  -10.1173 C.3       4 GLY6        0.0000 
     61 CZ        -20.2853   11.2835  -11.2734 C.ar      3 PHE5        0.0000 
     62 CZ        -19.4966   10.1099  -10.7727 C.ar      3 PHE5        0.0000 
     63 CZ        -21.2589   10.3494  -11.9289 C.ar      3 PHE5        0.0000 
     64 CZ        -20.4702    9.1759  -11.4282 C.ar      3 PHE5        0.0000 
     65 CZ        -19.6815    8.0023  -10.9275 C.ar      3 PHE5        0.0000 
     66 CZ        -22.2325    9.4154  -12.5844 C.ar      3 PHE5        0.0000 
     67 DU        -21.4438    8.2419  -12.0836 H         5 CUB7        0.0000 
     68 CZ        -20.6551    7.0683  -11.5829 C.ar      3 PHE5        0.0000 
     69 CZ        -19.8664    5.8948  -11.0822 C.ar      3 PHE5        0.0000 
     70 O         -22.4175    7.3078  -12.7391 O.2       2 ALA2        0.0000 
     71 CA        -21.6287    6.1343  -12.2384 C.3       4 GLY6        0.0000 
     72 O         -23.3911    6.3738  -13.3946 O.2       2 ALA2        0.0000 
     73 N         -22.6024    5.2003  -12.8939 N.2       2 ALA2        0.0000 
     74 CZ        -19.2758   13.4107  -12.3715 C.ar      3 PHE5        0.0000 
     75 CZ        -18.4870   12.2371  -11.8708 C.ar      3 PHE5        0.0000 
     76 CZ        -17.6983   11.0636  -11.3701 C.ar      3 PHE5        0.0000 
     77 CZ        -19.4607   11.3031  -12.5263 C.ar      3 PHE5        0.0000 
     78 CZ        -18.6720   10.1296  -12.0256 C.ar      3 PHE5        0.0000 
     79 CZ        -17.8832    8.9560  -11.5249 C.ar      3 PHE5        0.0000 
     80 CZ        -20.4343   10.3691  -13.1818 C.ar      3 PHE5        0.0000 
     81 DU        -19.6456    9.1955  -12.6810 H         5 CUB7        0.0000 
     82 CZ        -18.8569    8.0220  -12.1803 C.ar      3 PHE5        0.0000 
     83 O         -20.6192    8.2615  -13.3365 O.2       2 ALA2        0.0000 
     84 CA        -19.8305    7.0880  -12.8358 C.3       4 GLY6        0.0000 
     85 CA        -19.0418    5.9144  -12.3351 C.3       4 GLY6        0.0000 
     86 CA        -20.8041    6.1539  -13.4913 C.3       4 GLY6        0.0000 
     87 N         -21.7778    5.2199  -14.1467 N.2       2 ALA2        0.0000 
     88 CZ        -17.6624   12.2568  -13.1237 C.ar      3 PHE5        0.0000 
     89 CA        -18.6361   11.3228  -13.7792 C.3       4 GLY6        0.0000 
     90 CZ        -17.8474   10.1492  -13.2784 C.ar      3 PHE5        0.0000 
     91 CZ        -19.6097   10.3887  -14.4346 C.ar      3 PHE5        0.0000 
     92 DU        -18.8210    9.2152  -13.9339 H         5 CUB7        0.0000 
     93 CZ        -18.0323    8.0416  -13.4332 C.ar      3 PHE5        0.0000 
     94 O         -19.7946    8.2812  -14.5894 O.2       2 ALA2        0.0000 
     95 CA        -19.0059    7.1076  -14.0887 C.3       4 GLY6        0.0000 
     96 CA        -19.9795    6.1736  -14.7441 C.3       4 GLY6        0.0000 
     97 N         -17.0228   10.1688  -14.5313 N.2       2 ALA2        0.0000 
     98 CZ        -17.9964    9.2348  -15.1868 C.ar      3 PHE5        0.0000 
     99 N         -17.2077    8.0613  -14.6861 N.2       2 ALA2        0.0000 
    100 CZ        -18.9700    8.3008  -15.8422 C.ar      3 PHE5        0.0000 
@<TRIPOS>BOND
@<TRIPOS>SUBSTRUCTURE
     1 SER1        9 GROUP   
     2 ALA2        8 GROUP   
     3 PHE5       10 GROUP   
     4 GLY6        1 GROUP   
     5 CUB7        7 GROUP   
@<TRIPOS>SET

