#    Name: 2nvc_ITA_1_INTS_M
#    Modification time : Tue Mar 25 21:41:05 2014

@<TRIPOS>MOLECULE
2nvc_ITA_1_INTS_M
   29     0     6     0     0
SMALL
NO_CHARGES


@<TRIPOS>ATOM
      1 CA        -20.6395    9.4135  -15.6705 C.3       2 GLC5        0.0000 
      2 CA        -18.9530    9.3510  -15.1540 C.3       6 GLL5        0.0000 
      3 CA        -22.3260    9.4760  -16.1870 C.3       4 GLP5        0.0000 
      4 CA        -18.9980    7.5325  -16.2850 C.3       2 GLC5        0.0000 
      5 CA        -19.0430    5.7140  -17.4160 C.3       4 GLP5        0.0000 
      6 CA        -18.7450   11.5820  -15.2895 C.3       2 GLC5        0.0000 
      7 CA        -18.5370   13.8130  -15.4250 C.3       4 GLP5        0.0000 
      8 CA        -17.8945   10.2355  -16.3775 C.3       2 GLC5        0.0000 
      9 CA        -16.8360   11.1200  -17.6010 C.3       4 GLP5        0.0000 
     10 N         -15.8150    8.6240  -13.3685 N.am      1 SEC2        0.0000 
     11 N         -17.0350    8.2560  -14.2400 N.am      5 SEL2        0.0000 
     12 N         -14.5950    8.9920  -12.4970 N.am      3 SEP2        0.0000 
     13 N         -17.3650    7.5680  -17.6060 N.am      1 SEC2        0.0000 
     14 N         -17.2940    8.2300  -16.4610 N.am      5 SEL2        0.0000 
     15 N         -17.4360    6.9060  -18.7510 N.am      3 SEP2        0.0000 
     16 N         -16.2175    7.4750  -16.1310 N.am      1 SEC2        0.0000 
     17 N         -15.1410    6.7200  -15.8010 N.am      3 SEP2        0.0000 
     18 CA        -22.3350   12.6980   -9.8300 C.3       2 GLC5        0.0000 
     19 CA        -21.4220   12.5860   -8.2360 C.3       6 GLL5        0.0000 
     20 CA        -23.2480   12.8100  -11.4240 C.3       4 GLP5        0.0000 
     21 N         -19.2500   11.4435   -5.6910 N.am      1 SEC2        0.0000 
     22 N         -19.9650   11.4050   -6.7000 N.am      5 SEL2        0.0000 
     23 N         -18.5350   11.4820   -4.6820 N.am      3 SEP2        0.0000 
     24 N         -19.2520   13.9910   -5.4230 N.am      1 SEC2        0.0000 
     25 N         -20.0940   13.6080   -6.5380 N.am      5 SEL2        0.0000 
     26 N         -18.4100   14.3740   -4.3080 N.am      3 SEP2        0.0000 
     27 CA        -20.8175    4.2795  -12.0125 C.3       2 GLC5        0.0000 
     28 CA        -21.8780    5.8960  -12.3170 C.3       6 GLL5        0.0000 
     29 CA        -19.3440    3.1350  -12.0250 C.3       4 GLP5        0.0000 
@<TRIPOS>BOND
@<TRIPOS>SUBSTRUCTURE
     1 SEC2       10 GROUP        1 X    SEC  0     ROOT SEC X 2
     2 GLC5        1 GROUP        1 X    GLC  0     **** GLC X 6
     3 SEP2       12 GROUP        1 Y    SEP  0     ROOT SEP Y 9
     4 GLP5        3 GROUP        1 Y    GLP  0     **** GLP Y 13
     5 SEL2       11 GROUP        1 Z    SEL  0     ROOT SEL Z 16
     6 GLL5        2 GROUP        1 Z    GLL  0     **** GLL Z 20
@<TRIPOS>SET

