#    Name: 2nvc_ITA_1_ligand
#    Modification time : Tue Mar 25 21:41:05 2014

@<TRIPOS>MOLECULE
2nvc_ITA_1_ligand
   36    38     1     0     0
SMALL
NO_CHARGES


@<TRIPOS>ATOM
      1 C1        -22.2450    7.4240  -10.4400 C.ar      1 ITA600      0.0000 
      2 C2        -23.0640    6.4850   -9.8120 C.ar      1 ITA600      0.0000 
      3 C3        -23.2870    5.2500  -10.4490 C.ar      1 ITA600      0.0000 
      4 C4        -22.7040    4.9520  -11.6830 C.ar      1 ITA600      0.0000 
      5 C5        -21.8780    5.8960  -12.3170 C.ar      1 ITA600      0.0000 
      6 C6        -21.6620    7.1200  -11.6800 C.ar      1 ITA600      0.0000 
      7 C7        -20.8470    8.0900  -12.2640 C.ar      1 ITA600      0.0000 
      8 C8        -20.0900    8.0640  -13.5750 C.2       1 ITA600      0.0000 
      9 N9        -19.4190    9.2010  -13.7830 N.am      1 ITA600      0.0000 
     10 C10       -18.9530    9.3510  -15.1540 C.3       1 ITA600      0.0000 
     11 C11       -17.6810    8.5580  -15.3570 C.2       1 ITA600      0.0000 
     12 O12       -17.0350    8.2560  -14.2400 O.co2     1 ITA600      0.0000 
     13 O13       -17.2940    8.2300  -16.4610 O.co2     1 ITA600      0.0000 
     14 S14       -19.5330   10.2780  -12.7060 S.o2      1 ITA600      0.0000 
     15 O15       -20.0860   11.4900  -13.2370 O.2       1 ITA600      0.0000 
     16 O16       -18.2410   10.3200  -12.0370 O.2       1 ITA600      0.0000 
     17 C17       -20.6060    9.3230  -11.6720 C.ar      1 ITA600      0.0000 
     18 C18       -21.1880    9.6270  -10.4350 C.ar      1 ITA600      0.0000 
     19 C19       -20.9670   10.9440   -9.7370 C.2       1 ITA600      0.0000 
     20 O20       -21.7610   11.2750   -8.7020 O.3       1 ITA600      0.0000 
     21 C21       -21.4220   12.5860   -8.2360 C.3       1 ITA600      0.0000 
     22 C22       -20.4480   12.5730   -7.0990 C.2       1 ITA600      0.0000 
     23 O23       -19.9650   11.4050   -6.7000 O.co2     1 ITA600      0.0000 
     24 O24       -20.0940   13.6080   -6.5380 O.co2     1 ITA600      0.0000 
     25 O25       -20.0750   11.6890  -10.1190 O.2       1 ITA600      0.0000 
     26 C26       -22.0130    8.6650   -9.8230 C.ar      1 ITA600      0.0000 
     27 O27       -20.1370    7.0890  -14.3050 O.2       1 ITA600      0.0000 
     28 H         -23.4931    6.6834   -8.9134 H         1 ITA600      0.0000 
     29 H         -23.8961    4.5513   -9.9902 H         1 ITA600      0.0000 
     30 H         -22.8763    4.0456  -12.1294 H         1 ITA600      0.0000 
     31 H         -21.4523    5.6901  -13.2125 H         1 ITA600      0.0000 
     32 H         -18.7486   10.4022  -15.3832 H         1 ITA600      0.0000 
     33 H         -19.7055    8.9900  -15.8630 H         1 ITA600      0.0000 
     34 H         -22.3323   13.1353   -7.9068 H         1 ITA600      0.0000 
     35 H         -20.9871   13.1968   -9.0585 H         1 ITA600      0.0000 
     36 H         -22.4494    8.8730   -8.9163 H         1 ITA600      0.0000 
@<TRIPOS>BOND
     1    2    1 ar   
     2    6    1 ar   
     3   26    1 ar   
     4    3    2 ar   
     5   28    2 1    
     6    4    3 ar   
     7   29    3 1    
     8    5    4 ar   
     9   30    4 1    
    10    6    5 ar   
    11   31    5 1    
    12    7    6 ar   
    13    8    7 1    
    14   17    7 ar   
    15    9    8 am   
    16   27    8 2    
    17   10    9 1    
    18   14    9 1    
    19   11   10 1    
    20   32   10 1    
    21   33   10 1    
    22   12   11 ar   
    23   13   11 ar   
    24   15   14 2    
    25   16   14 2    
    26   17   14 1    
    27   18   17 ar   
    28   19   18 1    
    29   26   18 ar   
    30   20   19 1    
    31   25   19 2    
    32   21   20 1    
    33   22   21 1    
    34   34   21 1    
    35   35   21 1    
    36   23   22 ar   
    37   24   22 ar   
    38   36   26 1    
@<TRIPOS>SUBSTRUCTURE
     1 ITA600      1 GROUP   
@<TRIPOS>SET

