#    Name: 1OE0_3_CAVITY_N1_6.mol2
#    Modification time : Mon Mar 10 21:59:04 2014

@<TRIPOS>MOLECULE
1OE0_3_CAVITY_N1_6.mol2
   64     0     7     0     0
SMALL
NO_CHARGES


@<TRIPOS>ATOM
      1 CA         -6.9881  -17.1613   10.0092 C.3       6 GLY6        0.0000 
      2 OG         -5.6813  -18.8317    9.9649 O.2       1 SER1        0.0000 
      3 NZ         -6.9696  -18.5111   10.6631 N.2       4 LYS4        0.0000 
      4 NZ         -8.2578  -18.1906   11.3614 N.2       4 LYS4        0.0000 
      5 CA         -5.6627  -20.1815   10.6188 C.3       6 GLY6        0.0000 
      6 NZ         -6.9510  -19.8610   11.3171 N.2       4 LYS4        0.0000 
      7 CA         -6.9325  -21.2108   11.9710 C.3       6 GLY6        0.0000 
      8 N          -2.6459  -13.8509   13.2783 N.2       2 ALA2        0.0000 
      9 CA         -3.9342  -13.5304   13.9765 C.3       6 GLY6        0.0000 
     10 CZ         -2.6274  -15.2008   13.9322 C.ar      5 PHE5        0.0000 
     11 CZ         -3.9157  -14.8802   14.6305 C.ar      5 PHE5        0.0000 
     12 CZ         -2.6088  -16.5506   14.5862 C.ar      5 PHE5        0.0000 
     13 CZ         -3.8971  -16.2300   15.2844 C.ar      5 PHE5        0.0000 
     14 CZ         -1.8593  -14.6305   15.0875 C.ar      5 PHE5        0.0000 
     15 CA         -3.1476  -14.3099   15.7858 C.3       6 GLY6        0.0000 
     16 CZ         -1.8407  -15.9803   15.7415 C.ar      5 PHE5        0.0000 
     17 CA         -3.1290  -15.6597   16.4398 C.3       6 GLY6        0.0000 
     18 CZ         -3.4140  -14.4212   12.1229 C.ar      5 PHE5        0.0000 
     19 CZ         -4.7023  -14.1007   12.8212 C.ar      5 PHE5        0.0000 
     20 CZ         -3.3955  -15.7711   12.7769 C.ar      5 PHE5        0.0000 
     21 CZ         -4.6838  -15.4505   13.4751 C.ar      5 PHE5        0.0000 
     22 CZ         -3.3770  -17.1209   13.4308 C.ar      5 PHE5        0.0000 
     23 CZ         -4.6652  -16.8003   14.1291 C.ar      5 PHE5        0.0000 
     24 CZ         -3.3584  -18.4707   14.0848 C.ar      5 PHE5        0.0000 
     25 O          -4.6467  -18.1501   14.7831 O.2       2 ALA2        0.0000 
     26 CZ         -5.9350  -17.8295   15.4813 C.ar      5 PHE5        0.0000 
     27 CA         -7.2232  -17.5089   16.1796 C.3       6 GLY6        0.0000 
     28 O          -4.6281  -19.4999   15.4370 O.2       2 ALA2        0.0000 
     29 O          -5.9164  -19.1793   16.1353 O.2       2 ALA2        0.0000 
     30 NZ         -7.2047  -18.8587   16.8335 N.2       4 LYS4        0.0000 
     31 CZ         -2.8939  -15.3121   10.2694 C.ar      5 PHE5        0.0000 
     32 CZ         -4.1822  -14.9915   10.9676 C.ar      5 PHE5        0.0000 
     33 CZ         -5.4704  -14.6709   11.6659 C.ar      5 PHE5        0.0000 
     34 CZ         -2.8753  -16.6619   10.9233 C.ar      5 PHE5        0.0000 
     35 CZ         -4.1636  -16.3413   11.6216 C.ar      5 PHE5        0.0000 
     36 CZ         -5.4519  -16.0208   12.3198 C.ar      5 PHE5        0.0000 
     37 CZ         -4.1451  -17.6912   12.2755 C.ar      5 PHE5        0.0000 
     38 CZ         -5.4333  -17.3706   12.9738 C.ar      5 PHE5        0.0000 
     39 CZ         -6.7216  -17.0500   13.6720 C.ar      5 PHE5        0.0000 
     40 CA         -4.1265  -19.0410   12.9295 C.3       6 GLY6        0.0000 
     41 DU         -5.4148  -18.7204   13.6277 H         7 CUB7        0.0000 
     42 CA         -6.7031  -18.3998   14.3260 C.3       6 GLY6        0.0000 
     43 CA         -4.1080  -20.3908   13.5834 C.3       6 GLY6        0.0000 
     44 O          -5.3962  -20.0702   14.2817 O.2       2 ALA2        0.0000 
     45 CA         -6.6845  -19.7496   14.9799 C.3       6 GLY6        0.0000 
     46 CA         -7.9728  -19.4290   15.6782 C.3       6 GLY6        0.0000 
     47 OD1        -5.3777  -21.4200   14.9356 O.3       3 ASP3        0.0000 
     48 OD1        -6.6660  -21.0994   15.6339 O.3       3 ASP3        0.0000 
     49 OG         -3.6620  -15.8824    9.1140 O.2       1 SER1        0.0000 
     50 CA         -4.9503  -15.5618    9.8123 C.3       6 GLY6        0.0000 
     51 OG         -3.6434  -17.2322    9.7680 O.2       1 SER1        0.0000 
     52 OG         -4.9317  -16.9116   10.4662 O.2       1 SER1        0.0000 
     53 CA         -6.2200  -16.5910   11.1645 C.3       6 GLY6        0.0000 
     54 CA         -7.5083  -16.2705   11.8627 C.3       6 GLY6        0.0000 
     55 CA         -4.9132  -18.2614   11.1202 C.3       6 GLY6        0.0000 
     56 DU         -6.2014  -17.9409   11.8184 H         7 CUB7        0.0000 
     57 CA         -7.4897  -17.6203   12.5167 C.3       6 GLY6        0.0000 
     58 CA         -4.8946  -19.6113   11.7741 C.3       6 GLY6        0.0000 
     59 O          -6.1829  -19.2907   12.4724 O.2       2 ALA2        0.0000 
     60 O          -7.4712  -18.9701   13.1706 O.2       2 ALA2        0.0000 
     61 CA         -6.1644  -20.6405   13.1264 C.3       6 GLY6        0.0000 
     62 O          -7.4526  -20.3199   13.8246 O.2       2 ALA2        0.0000 
     63 CA         -6.1458  -21.9903   13.7803 C.3       6 GLY6        0.0000 
     64 OD1        -7.4341  -21.6697   14.4786 O.3       3 ASP3        0.0000 
@<TRIPOS>BOND
@<TRIPOS>SUBSTRUCTURE
     1 SER1        2 GROUP   
     2 ALA2        8 GROUP   
     3 ASP3       47 GROUP   
     4 LYS4        3 GROUP   
     5 PHE5       10 GROUP   
     6 GLY6        1 GROUP   
     7 CUB7       41 GROUP   
@<TRIPOS>SET

