#    Name: 1oe0_TTP_3_INTS_M
#    Modification time : Mon Mar 24 20:00:08 2014

@<TRIPOS>MOLECULE
1oe0_TTP_3_INTS_M
   99     0    15     0     0
SMALL
NO_CHARGES


@<TRIPOS>ATOM
      1 NZ         -4.0715  -18.7790   16.4400 N.4       3 LYC4        0.0000 
      2 NZ         -5.2680  -18.5500   15.7060 N.4      13 LYL4        0.0000 
      3 NZ         -1.8340  -19.7350   16.7920 N.4       8 LYP4        0.0000 
      4 N          -4.0715  -18.7790   16.4400 N.am      2 SEC2        0.0000 
      5 N          -5.2680  -18.5500   15.7060 N.am     12 SEL2        0.0000 
      6 N          -2.8750  -19.0080   17.1740 N.am      7 SEP2        0.0000 
      7 NZ         -4.4105  -21.7510   15.9070 N.4       3 LYC4        0.0000 
      8 NZ         -4.5360  -20.8130   14.8710 N.4      13 LYL4        0.0000 
      9 NZ         -4.2850  -22.6890   16.9430 N.4       8 LYP4        0.0000 
     10 NZ         -3.1995  -20.6010   15.2570 N.4       3 LYC4        0.0000 
     11 N          -4.4105  -21.7510   15.9070 N.am      2 SEC2        0.0000 
     12 N          -4.5360  -20.8130   14.8710 N.am     12 SEL2        0.0000 
     13 N          -4.2850  -22.6890   16.9430 N.am      7 SEP2        0.0000 
     14 N          -3.7055  -19.9105   16.0225 N.am      2 SEC2        0.0000 
     15 N          -3.1995  -20.6010   15.2570 N.am      2 SEC2        0.0000 
     16 N          -1.8630  -20.3890   15.6430 N.am      7 SEP2        0.0000 
     17 NZ        -10.1120  -21.3590   14.3305 N.4       3 LYC4        0.0000 
     18 NZ         -9.0890  -21.5250   15.2180 N.4      13 LYL4        0.0000 
     19 NZ        -10.8910  -20.9190   12.1710 N.4       8 LYP4        0.0000 
     20 Zn         -9.3945  -21.8290   16.1705 Zn        4 ZIC7        0.0000 
     21 Zn         -9.0890  -21.5250   15.2180 Zn       14 ZIL7        0.0000 
     22 Zn         -9.7000  -22.1330   17.1230 Zn        9 ZIP7        0.0000 
     23 N         -10.1120  -21.3590   14.3305 N.am      2 SEC2        0.0000 
     24 N          -9.0890  -21.5250   15.2180 N.am     12 SEL2        0.0000 
     25 N         -11.1350  -21.1930   13.4430 N.am      7 SEP2        0.0000 
     26 NZ         -8.5650  -22.9435   12.4925 N.4       3 LYC4        0.0000 
     27 NZ         -7.5300  -21.7280   13.2640 N.4      13 LYL4        0.0000 
     28 NZ         -9.6000  -24.1590   11.7210 N.4       8 LYP4        0.0000 
     29 NZ         -8.5850  -21.2345   12.5205 N.4       3 LYC4        0.0000 
     30 N          -8.5850  -21.2345   12.5205 N.am      2 SEC2        0.0000 
     31 N          -7.5300  -21.7280   13.2640 N.am     12 SEL2        0.0000 
     32 N          -9.6400  -20.7410   11.7770 N.am      7 SEP2        0.0000 
     33 N          -5.6280  -22.7550   16.2300 N.am      2 SEC2        0.0000 
     34 N          -6.9710  -22.8210   15.5170 N.am     12 SEL2        0.0000 
     35 NZ         -8.7465  -24.8180   14.0635 N.4       3 LYC4        0.0000 
     36 NZ         -7.9080  -25.1380   15.1260 N.4      13 LYL4        0.0000 
     37 N          -8.7465  -24.8180   14.0635 N.am      2 SEC2        0.0000 
     38 N          -7.9080  -25.1380   15.1260 N.am     12 SEL2        0.0000 
     39 N          -9.5850  -24.4980   13.0010 N.am      7 SEP2        0.0000 
     40 NZ         -5.2535  -23.7415   16.9360 N.4       3 LYC4        0.0000 
     41 NZ         -6.2220  -24.7940   16.9290 N.4      13 LYL4        0.0000 
     42 N          -6.1205  -26.2505   16.9850 N.am      2 SEC2        0.0000 
     43 N          -6.2220  -24.7940   16.9290 N.am     12 SEL2        0.0000 
     44 N          -6.0190  -27.7070   17.0410 N.am      7 SEP2        0.0000 
     45 N          -6.4685  -25.4020   18.0665 N.am      2 SEC2        0.0000 
     46 N          -6.7150  -26.0100   19.2040 N.am      7 SEP2        0.0000 
     47 N          -5.2535  -23.7415   16.9360 N.am      2 SEC2        0.0000 
     48 Zn         -9.1200  -23.0235   17.1740 Zn        4 ZIC7        0.0000 
     49 Zn         -8.5400  -23.9140   17.2250 Zn       14 ZIL7        0.0000 
     50 N          -8.8215  -24.3245   18.6265 N.am      2 SEC2        0.0000 
     51 N          -8.5400  -23.9140   17.2250 N.am     12 SEL2        0.0000 
     52 N          -9.1030  -24.7350   20.0280 N.am      7 SEP2        0.0000 
     53 CA         -8.4190  -18.2120   13.9045 C.3       5 GLC5        0.0000 
     54 CA         -6.9350  -18.6110   12.9260 C.3      15 GLL5        0.0000 
     55 CA         -9.9030  -17.8130   14.8830 C.3      10 GLP5        0.0000 
     56 CA         -6.9765  -16.6395   13.8285 C.3       5 GLC5        0.0000 
     57 CA         -7.0180  -14.6680   14.7310 C.3      10 GLP5        0.0000 
     58 CA         -8.5310  -17.3000   12.1125 C.3       5 GLC5        0.0000 
     59 CA         -6.7290  -17.9030   11.5600 C.3      15 GLL5        0.0000 
     60 CA        -10.3330  -16.6970   12.6650 C.3      10 GLP5        0.0000 
     61 CA         -7.2380  -16.3350   10.2060 C.3       5 GLC5        0.0000 
     62 CA         -7.7470  -14.7670    8.8520 C.3      10 GLP5        0.0000 
     63 N          -5.3650  -18.2545    8.3050 N.am      2 SEC2        0.0000 
     64 N          -6.2440  -18.4970    9.2810 N.am     12 SEL2        0.0000 
     65 N          -4.4860  -18.0120    7.3290 N.am      7 SEP2        0.0000 
     66 O          -7.4455  -19.2680    9.2925 O.2       1 ALC1        0.0000 
     67 O          -6.2440  -18.4970    9.2810 O.2      11 ALL1        0.0000 
     68 O          -8.6470  -20.0390    9.3040 O.2       6 ALP1        0.0000 
     69 CA         -6.3090  -15.6470   10.0310 C.3       5 GLC5        0.0000 
     70 CA         -4.8710  -16.5270   11.2100 C.3      15 GLL5        0.0000 
     71 CA         -5.4240  -14.3765   11.0385 C.3       5 GLC5        0.0000 
     72 CA         -5.9770  -12.2260   10.8670 C.3      10 GLP5        0.0000 
     73 O          -1.7625  -12.8935   11.8690 O.2       1 ALC1        0.0000 
     74 O          -2.3390  -14.0240   12.4120 O.2      11 ALL1        0.0000 
     75 O          -1.1860  -11.7630   11.3260 O.2       6 ALP1        0.0000 
     76 N          -1.0855  -12.0690   13.8400 N.am      2 SEC2        0.0000 
     77 N          -1.4800  -13.4370   14.4240 N.am     12 SEL2        0.0000 
     78 N          -0.6910  -10.7010   13.2560 N.am      7 SEP2        0.0000 
     79 CA         -1.3990  -15.8250   14.2575 C.3       5 GLC5        0.0000 
     80 CA         -3.1210  -15.2610   14.4050 C.3      15 GLL5        0.0000 
     81 CA          0.3230  -16.3890   14.1100 C.3      10 GLP5        0.0000 
     82 CA         -4.8570  -14.8830   15.9600 C.3       5 GLC5        0.0000 
     83 CA         -3.0680  -15.4800   15.8920 C.3      15 GLL5        0.0000 
     84 CA         -6.6460  -14.2860   16.0280 C.3      10 GLP5        0.0000 
     85 CA         -2.9945  -16.8755   17.1585 C.3       5 GLC5        0.0000 
     86 CA         -2.9210  -18.2710   18.4250 C.3      10 GLP5        0.0000 
     87 CA         -1.6775  -16.5520   15.0945 C.3       5 GLC5        0.0000 
     88 CA         -0.2870  -17.6240   14.2970 C.3      10 GLP5        0.0000 
     89 CA         -2.3820  -17.1365   13.4015 C.3       5 GLC5        0.0000 
     90 CA         -3.9340  -15.9800   13.5930 C.3      15 GLL5        0.0000 
     91 CA         -0.8300  -18.2930   13.2100 C.3      10 GLP5        0.0000 
     92 CA         -3.8738  -19.5553   10.3537 C.3       5 GLC5        0.0000 
     93 CA         -4.4000  -17.9380   10.8660 C.3      15 GLL5        0.0000 
     94 CA         -2.6660  -20.8300    9.9650 C.3      10 GLP5        0.0000 
     95 CA         -2.7023  -17.4813   11.4905 C.3       5 GLC5        0.0000 
     96 CA         -0.7690  -17.7300   11.9430 C.3      10 GLP5        0.0000 
     97 CA         -5.2728  -15.1442   14.3650 C.3       5 GLC5        0.0000 
     98 CA         -3.4497  -13.3252   15.6568 C.3       5 GLC5        0.0000 
     99 CA         -3.8050  -11.2800   16.1650 C.3      10 GLP5        0.0000 
@<TRIPOS>BOND
@<TRIPOS>SUBSTRUCTURE
     1 ALC1       66 GROUP        1 X    ALC  0     ROOT ALC X 1
     2 SEC2        4 GROUP        1 X    SEC  0     **** SEC X 2
     3 LYC4        1 GROUP        1 X    LYC  0     **** LYC X 4
     4 ZIC7       20 GROUP        1 X    ZIC  0     **** ZIC X 5
     5 GLC5       53 GROUP        1 X    GLC  0     **** GLC X 6
     6 ALP1       68 GROUP        1 Y    ALP  0     ROOT ALP Y 8
     7 SEP2        6 GROUP        1 Y    SEP  0     **** SEP Y 9
     8 LYP4        3 GROUP        1 Y    LYP  0     **** LYP Y 11
     9 ZIP7       22 GROUP        1 Y    ZIP  0     **** ZIP Y 12
    10 GLP5       55 GROUP        1 Y    GLP  0     **** GLP Y 13
    11 ALL1       67 GROUP        1 Z    ALL  0     ROOT ALL Z 15
    12 SEL2        5 GROUP        1 Z    SEL  0     **** SEL Z 16
    13 LYL4        2 GROUP        1 Z    LYL  0     **** LYL Z 18
    14 ZIL7       21 GROUP        1 Z    ZIL  0     **** ZIL Z 19
    15 GLL5       54 GROUP        1 Z    GLL  0     **** GLL Z 20
@<TRIPOS>SET

