#    Name: 1oe0_TTP_3_ligand
#    Modification time : Mon Mar 24 20:00:08 2014

@<TRIPOS>MOLECULE
1oe0_TTP_3_ligand
   42    43     1     0     0
SMALL
NO_CHARGES


@<TRIPOS>ATOM
      1 PA         -5.5430  -19.7260   14.8670 P.3       1 TTP300      0.0000 
      2 O1A        -5.2680  -18.5500   15.7060 O.co2     1 TTP300      0.0000 
      3 O2A        -4.5360  -20.8130   14.8710 O.co2     1 TTP300      0.0000 
      4 O3A        -6.9540  -20.3390   15.2810 O.3       1 TTP300      0.0000 
      5 PB         -7.7070  -21.6450   14.7390 P.3       1 TTP300      0.0000 
      6 O1B        -9.0890  -21.5250   15.2180 O.co2     1 TTP300      0.0000 
      7 O2B        -7.5300  -21.7280   13.2640 O.co2     1 TTP300      0.0000 
      8 O3B        -6.9710  -22.8210   15.5170 O.3       1 TTP300      0.0000 
      9 PG         -7.3910  -24.2750   16.1920 P.3       1 TTP300      0.0000 
     10 O1G        -7.9080  -25.1380   15.1260 O.co2     1 TTP300      0.0000 
     11 O2G        -6.2220  -24.7940   16.9290 O.co2     1 TTP300      0.0000 
     12 O3G        -8.5400  -23.9140   17.2250 O.co2     1 TTP300      0.0000 
     13 O5'        -5.7150  -19.3350   13.3280 O.3       1 TTP300      0.0000 
     14 C5'        -6.9350  -18.6110   12.9260 C.3       1 TTP300      0.0000 
     15 C4'        -6.7290  -17.9030   11.5600 C.3       1 TTP300      0.0000 
     16 O4'        -6.1300  -16.6510   11.8320 O.3       1 TTP300      0.0000 
     17 C3'        -5.7630  -18.6230   10.6190 C.3       1 TTP300      0.0000 
     18 O3'        -6.2440  -18.4970    9.2810 O.3       1 TTP300      0.0000 
     19 C2'        -4.4000  -17.9380   10.8660 C.3       1 TTP300      0.0000 
     20 C1'        -4.8710  -16.5270   11.2100 C.3       1 TTP300      0.0000 
     21 N1         -3.9820  -15.7900   12.2250 N.am      1 TTP300      0.0000 
     22 C2         -3.1660  -14.7720   11.5940 C.2       1 TTP300      0.0000 
     23 O2         -3.1790  -14.5740   10.3620 O.2       1 TTP300      0.0000 
     24 N3         -2.3390  -14.0240   12.4120 N.am      1 TTP300      0.0000 
     25 C4         -2.3140  -14.2200   13.7400 C.2       1 TTP300      0.0000 
     26 O4         -1.4800  -13.4370   14.4240 O.2       1 TTP300      0.0000 
     27 C5         -3.1210  -15.2610   14.4050 C.2       1 TTP300      0.0000 
     28 C5M        -3.0680  -15.4800   15.8920 C.3       1 TTP300      0.0000 
     29 C6         -3.9340  -15.9800   13.5930 C.2       1 TTP300      0.0000 
     30 H          -7.1963  -17.8478   13.6620 H         1 TTP300      0.0000 
     31 H          -7.7794  -19.2959   12.8236 H         1 TTP300      0.0000 
     32 H          -7.6702  -17.7844   11.0824 H         1 TTP300      0.0000 
     33 H          -5.6914  -19.6356   10.9511 H         1 TTP300      0.0000 
     34 H          -3.8484  -17.9292    9.9794 H         1 TTP300      0.0000 
     35 H          -3.9345  -18.3755   11.6921 H         1 TTP300      0.0000 
     36 H          -4.9387  -15.9433   10.3208 H         1 TTP300      0.0000 
     37 H          -1.7294  -13.2976   11.9716 H         1 TTP300      0.0000 
     38 H          -4.5604  -16.7179   14.0120 H         1 TTP300      0.0000 
     39 H          -2.1476  -15.7216   16.1992 H         1 TTP300      0.0000 
     40 H          -3.3405  -14.6616   16.3979 H         1 TTP300      0.0000 
     41 H          -3.6767  -16.2191   16.1805 H         1 TTP300      0.0000 
     42 H          -7.0754  -19.0519    9.2516 H         1 TTP300      0.0000 
@<TRIPOS>BOND
     1    2    1 ar   
     2    3    1 ar   
     3    4    1 1    
     4   13    1 1    
     5    5    4 1    
     6    6    5 ar   
     7    7    5 ar   
     8    8    5 1    
     9    9    8 1    
    10   10    9 ar   
    11   11    9 ar   
    12   12    9 ar   
    13   14   13 1    
    14   15   14 1    
    15   30   14 1    
    16   31   14 1    
    17   16   15 1    
    18   17   15 1    
    19   32   15 1    
    20   20   16 1    
    21   18   17 1    
    22   19   17 1    
    23   33   17 1    
    24   42   18 1    
    25   20   19 1    
    26   34   19 1    
    27   35   19 1    
    28   21   20 1    
    29   36   20 1    
    30   22   21 1    
    31   29   21 1    
    32   23   22 2    
    33   24   22 1    
    34   25   24 1    
    35   37   24 1    
    36   26   25 2    
    37   27   25 1    
    38   28   27 1    
    39   29   27 2    
    40   39   28 1    
    41   40   28 1    
    42   41   28 1    
    43   38   29 1    
@<TRIPOS>SUBSTRUCTURE
     1 TTP300      1 GROUP   
@<TRIPOS>SET

