#    Name: 4eyb_0WO_2_INTS_M
#    Modification time : Mon Mar 24 18:46:09 2014

@<TRIPOS>MOLECULE
4eyb_0WO_2_INTS_M
   75     0    15     0     0
SMALL
NO_CHARGES


@<TRIPOS>ATOM
      1 O          -0.8465   18.0330   40.3895 O.2       1 ALC1        0.0000 
      2 O          -0.1340   17.7520   41.5880 O.2      11 ALL1        0.0000 
      3 O          -1.5590   18.3140   39.1910 O.2       6 ALP1        0.0000 
      4 Zn          2.6075   20.7870   42.8275 Zn        4 ZIC7        0.0000 
      5 Zn          2.1970   20.5020   41.6780 Zn       14 ZIL7        0.0000 
      6 Zn          3.0180   21.0720   43.9770 Zn        9 ZIP7        0.0000 
      7 CA          0.8170   19.2210   43.9035 C.3       5 GLC5        0.0000 
      8 CA          1.1550   18.3870   41.9390 C.3      15 GLL5        0.0000 
      9 CA          0.4790   20.0550   45.8680 C.3      10 GLP5        0.0000 
     10 CA          1.7465   15.3535   41.7920 C.3       5 GLC5        0.0000 
     11 CA          2.2360   17.4770   41.3220 C.3      15 GLL5        0.0000 
     12 CA          1.2570   13.2300   42.2620 C.3      10 GLP5        0.0000 
     13 CA         -0.2425   15.1705   38.1985 C.3       5 GLC5        0.0000 
     14 CA         -1.2270   14.9580   40.1770 C.3      15 GLL5        0.0000 
     15 CA          0.7420   15.3830   36.2200 C.3      10 GLP5        0.0000 
     16 CA         -1.6290   13.8345   38.5715 C.3       5 GLC5        0.0000 
     17 CA         -2.0310   12.7110   36.9660 C.3      10 GLP5        0.0000 
     18 CA         -0.5140   14.2435   41.6440 C.3       5 GLC5        0.0000 
     19 CA          0.1990   13.5290   43.1110 C.3      10 GLP5        0.0000 
     20 CA          3.6050   17.9500   35.7705 C.3       5 GLC5        0.0000 
     21 CA          3.6320   17.6880   37.5410 C.3      15 GLL5        0.0000 
     22 CA          3.5780   18.2120   34.0000 C.3      10 GLP5        0.0000 
     23 CA          2.7420   16.2075   36.6235 C.3       5 GLC5        0.0000 
     24 CA          1.8520   14.7270   35.7060 C.3      10 GLP5        0.0000 
     25 CA          5.0880   18.9860   36.6645 C.3       5 GLC5        0.0000 
     26 CA          6.5440   20.2840   35.7880 C.3      10 GLP5        0.0000 
     27 CA          3.8760   13.9505   39.0830 C.3       5 GLC5        0.0000 
     28 CA          4.4500   16.0230   39.1780 C.3      15 GLL5        0.0000 
     29 CA          3.3020   11.8780   38.9880 C.3      10 GLP5        0.0000 
     30 CA          5.8690   15.8870   40.1460 C.3       5 GLC5        0.0000 
     31 CA          7.2880   15.7510   41.1140 C.3      10 GLP5        0.0000 
     32 NZ          7.1865   19.7350   39.2960 N.4       3 LYC4        0.0000 
     33 NZ          5.8210   19.5560   39.0330 N.4      13 LYL4        0.0000 
     34 NZ          8.5520   19.9140   39.5590 N.4       8 LYP4        0.0000 
     35 N           7.1865   19.7350   39.2960 N.am      2 SEC2        0.0000 
     36 N           5.8210   19.5560   39.0330 N.am     12 SEL2        0.0000 
     37 N           8.5520   19.9140   39.5590 N.am      7 SEP2        0.0000 
     38 N           5.1555   20.3275   37.9050 N.am      2 SEC2        0.0000 
     39 N           4.4900   21.0990   36.7770 N.am      7 SEP2        0.0000 
     40 N           0.0255   16.2875   45.0125 N.am      2 SEC2        0.0000 
     41 N          -0.6060   17.1160   43.6980 N.am     12 SEL2        0.0000 
     42 N           0.6570   15.4590   46.3270 N.am      7 SEP2        0.0000 
     43 NZ          7.3460   19.2200   40.2515 N.4       3 LYC4        0.0000 
     44 NZ          6.1400   18.5260   40.9440 N.4      13 LYL4        0.0000 
     45 Zn          5.6955   17.9530   41.7360 Zn        4 ZIC7        0.0000 
     46 Zn          6.1400   18.5260   40.9440 Zn       14 ZIL7        0.0000 
     47 Zn          5.2510   17.3800   42.5280 Zn        9 ZIP7        0.0000 
     48 CA         -4.2570   21.6980   46.6960 C.3       5 GLC5        0.0000 
     49 CA         -4.1300   20.2340   45.2090 C.3      15 GLL5        0.0000 
     50 CA         -4.3840   23.1620   48.1830 C.3      10 GLP5        0.0000 
     51 CA         -2.3745   16.1280   44.0795 C.3       5 GLC5        0.0000 
     52 CA         -2.2050   16.6350   42.0310 C.3      15 GLL5        0.0000 
     53 CA         -2.5440   15.6210   46.1280 C.3      10 GLP5        0.0000 
     54 CA          5.6370   17.0790   40.5435 C.3       5 GLC5        0.0000 
     55 CA          3.9860   18.4070   39.9730 C.3      15 GLL5        0.0000 
     56 N           0.0325   20.7795   39.3950 N.am      2 SEC2        0.0000 
     57 N           0.2530   20.2580   40.7570 N.am     12 SEL2        0.0000 
     58 N          -0.1880   21.3010   38.0330 N.am      7 SEP2        0.0000 
     59 CA         -2.1100   13.4733   40.9222 C.3       5 GLC5        0.0000 
     60 CA         -2.2670   15.6530   40.9980 C.3      15 GLL5        0.0000 
     61 CA         -2.4730   11.6410   41.2570 C.3      10 GLP5        0.0000 
     62 CA         -3.5978   18.7578   41.2200 C.3       5 GLC5        0.0000 
     63 CA         -3.6820   18.1200   43.4250 C.3      15 GLL5        0.0000 
     64 CA         -3.8580   18.7920   39.0930 C.3      10 GLP5        0.0000 
     65 CA         -1.9972   21.0594   44.6480 C.3       5 GLC5        0.0000 
     66 CA         -2.9930   19.3270   43.2690 C.3      15 GLL5        0.0000 
     67 CA         -0.6660   22.2990   45.3150 C.3      10 GLP5        0.0000 
     68 CA         -4.5286   18.2021   46.7391 C.3       5 GLC5        0.0000 
     69 CA         -4.5070   17.6210   48.6440 C.3      10 GLP5        0.0000 
     70 CA          1.7388   16.2495   37.7640 C.3       5 GLC5        0.0000 
     71 CA          1.8920   16.9870   39.5890 C.3      15 GLL5        0.0000 
     72 CA         -3.0470   17.4680   40.3038 C.3       5 GLC5        0.0000 
     73 CA         -3.3741   16.9604   45.1339 C.3       5 GLC5        0.0000 
     74 CA          2.9989   19.5834   38.3963 C.3       5 GLC5        0.0000 
     75 CA          2.2020   21.2300   37.6640 C.3      10 GLP5        0.0000 
@<TRIPOS>BOND
@<TRIPOS>SUBSTRUCTURE
     1 ALC1        1 GROUP        1 X    ALC  0     ROOT ALC X 1
     2 SEC2       35 GROUP        1 X    SEC  0     **** SEC X 2
     3 LYC4       32 GROUP        1 X    LYC  0     **** LYC X 4
     4 ZIC7        4 GROUP        1 X    ZIC  0     **** ZIC X 5
     5 GLC5        7 GROUP        1 X    GLC  0     **** GLC X 6
     6 ALP1        3 GROUP        1 Y    ALP  0     ROOT ALP Y 8
     7 SEP2       37 GROUP        1 Y    SEP  0     **** SEP Y 9
     8 LYP4       34 GROUP        1 Y    LYP  0     **** LYP Y 11
     9 ZIP7        6 GROUP        1 Y    ZIP  0     **** ZIP Y 12
    10 GLP5        9 GROUP        1 Y    GLP  0     **** GLP Y 13
    11 ALL1        2 GROUP        1 Z    ALL  0     ROOT ALL Z 15
    12 SEL2       36 GROUP        1 Z    SEL  0     **** SEL Z 16
    13 LYL4       33 GROUP        1 Z    LYL  0     **** LYL Z 18
    14 ZIL7        5 GROUP        1 Z    ZIL  0     **** ZIL Z 19
    15 GLL5        8 GROUP        1 Z    GLL  0     **** GLL Z 20
@<TRIPOS>SET

