#    Name: 4eyb_0WO_2_ligand
#    Modification time : Mon Mar 24 18:46:09 2014

@<TRIPOS>MOLECULE
4eyb_0WO_2_ligand
   47    49     1     0     0
SMALL
NO_CHARGES


@<TRIPOS>ATOM
      1 C           1.2310   19.7770   41.4270 C.2       1 0WO301      0.0000 
      2 N          -0.1340   17.7520   41.5880 N.am      1 0WO301      0.0000 
      3 O           2.1970   20.5020   41.6780 O.co2     1 0WO301      0.0000 
      4 CA          1.1550   18.3870   41.9390 C.3       1 0WO301      0.0000 
      5 CB          2.2360   17.4770   41.3220 C.3       1 0WO301      0.0000 
      6 CAA        -1.2270   14.9580   40.1770 C.3       1 0WO301      0.0000 
      7 CAB         3.6320   17.6880   37.5410 C.3       1 0WO301      0.0000 
      8 CAC         4.4500   16.0230   39.1780 C.3       1 0WO301      0.0000 
      9 OAE         5.8210   19.5560   39.0330 O.co2     1 0WO301      0.0000 
     10 OAF        -0.6060   17.1160   43.6980 O.2       1 0WO301      0.0000 
     11 OAH         6.1400   18.5260   40.9440 O.co2     1 0WO301      0.0000 
     12 CAI        -4.1300   20.2340   45.2090 C.ar      1 0WO301      0.0000 
     13 CAJ        -3.1980   20.3910   44.1770 C.ar      1 0WO301      0.0000 
     14 CAK        -4.8350   19.0190   45.2900 C.ar      1 0WO301      0.0000 
     15 CAL        -2.9930   19.3270   43.2690 C.ar      1 0WO301      0.0000 
     16 CAM        -4.6180   17.9400   44.4190 C.ar      1 0WO301      0.0000 
     17 NAN        -4.3620   16.2590   41.7660 N.2       1 0WO301      0.0000 
     18 NAP         3.5990   18.0620   41.3380 N.4       1 0WO301      0.0000 
     19 OAQ        -3.5990   15.4000   40.8470 O.3       1 0WO301      0.0000 
     20 SAR         1.8920   16.9870   39.5890 S.3       1 0WO301      0.0000 
     21 CAT         5.4430   18.8070   39.9640 C.2       1 0WO301      0.0000 
     22 CAU        -0.9230   17.1630   42.5000 C.2       1 0WO301      0.0000 
     23 CAV        -2.2670   15.6530   40.9980 C.2       1 0WO301      0.0000 
     24 CAW        -3.6820   18.1200   43.4250 C.ar      1 0WO301      0.0000 
     25 CAX        -3.4630   17.0270   42.4470 C.2       1 0WO301      0.0000 
     26 CAY        -2.2050   16.6350   42.0310 C.2       1 0WO301      0.0000 
     27 CBB         3.9860   18.4070   39.9730 C.3       1 0WO301      0.0000 
     28 CBC         3.5790   17.2450   39.0270 C.3       1 0WO301      0.0000 
     29 OXT         0.2530   20.2580   40.7570 O.co2     1 0WO301      0.0000 
     30 H          -0.3887   17.7937   40.5782 H         1 0WO301      0.0000 
     31 H           1.2822   18.3609   43.0064 H         1 0WO301      0.0000 
     32 H           2.2410   16.4981   41.8076 H         1 0WO301      0.0000 
     33 H          -4.2951   20.9722   45.8807 H         1 0WO301      0.0000 
     34 H          -2.6726   21.2552   44.0761 H         1 0WO301      0.0000 
     35 H          -5.5593   18.9158   46.0400 H         1 0WO301      0.0000 
     36 H          -2.3330   19.4477   42.4926 H         1 0WO301      0.0000 
     37 H          -5.1295   17.0794   44.5265 H         1 0WO301      0.0000 
     38 H           3.3867   19.2892   39.6710 H         1 0WO301      0.0000 
     39 H          -0.3035   15.2583   40.4158 H         1 0WO301      0.0000 
     40 H          -1.2549   13.9665   40.3042 H         1 0WO301      0.0000 
     41 H          -1.3482   15.1316   39.1997 H         1 0WO301      0.0000 
     42 H           4.5634   17.9099   37.2526 H         1 0WO301      0.0000 
     43 H           3.2981   16.9720   36.9279 H         1 0WO301      0.0000 
     44 H           3.0725   18.5001   37.3754 H         1 0WO301      0.0000 
     45 H           5.3988   16.2093   38.9228 H         1 0WO301      0.0000 
     46 H           4.4603   15.6884   40.1203 H         1 0WO301      0.0000 
     47 H           4.1344   15.2686   38.6025 H         1 0WO301      0.0000 
@<TRIPOS>BOND
     1    3    1 ar   
     2    4    1 1    
     3   29    1 ar   
     4    4    2 1    
     5   22    2 am   
     6   30    2 1    
     7    5    4 1    
     8   31    4 1    
     9   18    5 1    
    10   20    5 1    
    11   32    5 1    
    12   23    6 1    
    13   39    6 1    
    14   40    6 1    
    15   41    6 1    
    16   28    7 1    
    17   42    7 1    
    18   43    7 1    
    19   44    7 1    
    20   28    8 1    
    21   45    8 1    
    22   46    8 1    
    23   47    8 1    
    24   21    9 ar   
    25   22   10 2    
    26   21   11 ar   
    27   13   12 ar   
    28   14   12 ar   
    29   33   12 1    
    30   15   13 ar   
    31   34   13 1    
    32   16   14 ar   
    33   35   14 1    
    34   24   15 ar   
    35   36   15 1    
    36   24   16 ar   
    37   37   16 1    
    38   19   17 1    
    39   25   17 2    
    40   27   18 1    
    41   23   19 1    
    42   28   20 1    
    43   27   21 1    
    44   26   22 1    
    45   26   23 2    
    46   25   24 1    
    47   26   25 1    
    48   28   27 1    
    49   38   27 1    
@<TRIPOS>SUBSTRUCTURE
     1 0WO301      1 GROUP   
@<TRIPOS>SET

