#    Name: 3o9l_LPN_1_INTS_M
#    Modification time : Tue Mar 25 03:26:23 2014

@<TRIPOS>MOLECULE
3o9l_LPN_1_INTS_M
  115     0     6     0     0
SMALL
NO_CHARGES


@<TRIPOS>ATOM
      1 CA          4.8805    9.1585   -5.5920 C.3       2 GLC5        0.0000 
      2 CA          3.1700    8.5520   -5.8500 C.3       6 GLL5        0.0000 
      3 CA          6.5910    9.7650   -5.3340 C.3       4 GLP5        0.0000 
      4 CA          3.3055   10.4070   -6.6410 C.3       2 GLC5        0.0000 
      5 CA          3.4410   12.2620   -7.4320 C.3       4 GLP5        0.0000 
      6 CA          1.8420   10.0580   -6.6245 C.3       2 GLC5        0.0000 
      7 CA          0.5140   11.5640   -7.3990 C.3       4 GLP5        0.0000 
      8 CA          3.7565    7.8465   -7.1640 C.3       2 GLC5        0.0000 
      9 CA          4.3430    7.1410   -8.4780 C.3       4 GLP5        0.0000 
     10 CA          4.9090    8.7110   -4.2790 C.3       2 GLC5        0.0000 
     11 CA          3.2270    7.6570   -3.2240 C.3       6 GLL5        0.0000 
     12 CA          0.2675    9.4125   -5.8690 C.3       2 GLC5        0.0000 
     13 CA          1.0720    8.2840   -4.1490 C.3       6 GLL5        0.0000 
     14 CA         -0.5370   10.5410   -7.5890 C.3       4 GLP5        0.0000 
     15 CA          6.5100    7.7085   -4.6610 C.3       2 GLC5        0.0000 
     16 CA          5.2240    6.4650   -4.1440 C.3       6 GLL5        0.0000 
     17 CA          7.7960    8.9520   -5.1780 C.3       4 GLP5        0.0000 
     18 CA          4.7835    6.8030   -6.3110 C.3       2 GLC5        0.0000 
     19 CA          3.5900    5.6290   -4.7505 C.3       2 GLC5        0.0000 
     20 CA          1.9560    4.7930   -5.3570 C.3       4 GLP5        0.0000 
     21 CA          5.6860    8.1635   -2.8770 C.3       2 GLC5        0.0000 
     22 CA          6.1480    9.8620   -1.6100 C.3       4 GLP5        0.0000 
     23 CA          3.0130    5.2940   -1.2700 C.3       2 GLC5        0.0000 
     24 CA          3.5520    6.7760   -0.6740 C.3       6 GLL5        0.0000 
     25 CA          2.4740    3.8120   -1.8660 C.3       4 GLP5        0.0000 
     26 CA          4.8500    8.3190   -1.1420 C.3       2 GLC5        0.0000 
     27 CA         -2.9610    8.8315   -3.7700 C.3       2 GLC5        0.0000 
     28 CA         -1.0480    8.1600   -2.8380 C.3       6 GLL5        0.0000 
     29 CA         -4.8740    9.5030   -4.7020 C.3       4 GLP5        0.0000 
     30 CA         -1.9445    8.1290   -0.9900 C.3       2 GLC5        0.0000 
     31 CA         -2.8410    8.0980    0.8580 C.3       4 GLP5        0.0000 
     32 CA         -1.3510   10.2990   -3.0860 C.3       2 GLC5        0.0000 
     33 CA         -1.6540   12.4380   -3.3340 C.3       4 GLP5        0.0000 
     34 CA          7.2075    6.6990   -4.7530 C.3       2 GLC5        0.0000 
     35 CA          6.1690    5.4700   -3.4420 C.3       6 GLL5        0.0000 
     36 CA          8.2460    7.9280   -6.0640 C.3       4 GLP5        0.0000 
     37 CA          8.1045    4.7705   -3.3060 C.3       2 GLC5        0.0000 
     38 CA         10.0400    4.0710   -3.1700 C.3       4 GLP5        0.0000 
     39 CA          8.6555    5.1390   -1.7680 C.3       2 GLC5        0.0000 
     40 CA          7.2710    6.2070   -0.3660 C.3       6 GLL5        0.0000 
     41 CA          6.7095    8.0345   -0.9880 C.3       2 GLC5        0.0000 
     42 CA          9.6200    7.0725    1.3005 C.3       2 GLC5        0.0000 
     43 CA          7.7830    6.0590    0.9230 C.3       6 GLL5        0.0000 
     44 CA         11.4570    8.0860    1.6780 C.3       4 GLP5        0.0000 
     45 CA         10.3720    6.6455    2.5405 C.3       2 GLC5        0.0000 
     46 CA          9.2870    5.2050    3.4030 C.3       6 GLL5        0.0000 
     47 CA         11.0100    6.6225    5.4930 C.3       2 GLC5        0.0000 
     48 CA          9.6130    5.1650    4.9020 C.3       6 GLL5        0.0000 
     49 CA         12.4070    8.0800    6.0840 C.3       4 GLP5        0.0000 
     50 OD1         8.7740    7.5895    5.7705 O.co2     1 ASC3        0.0000 
     51 OD1         8.6090    5.8310    5.7490 O.co2     5 ASL3        0.0000 
     52 OD1         8.9390    9.3480    5.7920 O.co2     3 ASP3        0.0000 
     53 OD1         8.6300    7.0815    4.8105 O.co2     1 ASC3        0.0000 
     54 OD1         8.6510    8.3320    3.8720 O.co2     3 ASP3        0.0000 
     55 OD1         8.7385    6.9710    7.1065 O.co2     1 ASC3        0.0000 
     56 OD1         8.8680    8.1110    8.4640 O.co2     3 ASP3        0.0000 
     57 OD1         9.3555    6.0630    6.9890 O.co2     1 ASC3        0.0000 
     58 OD1        10.1020    6.2950    8.2290 O.co2     3 ASP3        0.0000 
     59 CA          4.7640   10.1435    4.2730 C.3       2 GLC5        0.0000 
     60 CA          5.2180    8.3370    3.4610 C.3       6 GLL5        0.0000 
     61 CA          4.3100   11.9500    5.0850 C.3       4 GLP5        0.0000 
     62 CA          7.0000    9.5290    3.6515 C.3       2 GLC5        0.0000 
     63 CA          8.7820   10.7210    3.8420 C.3       4 GLP5        0.0000 
     64 CA          6.1895    9.6135    1.9260 C.3       2 GLC5        0.0000 
     65 CA          7.1610   10.8900    0.3910 C.3       4 GLP5        0.0000 
     66 CA          5.7930    9.0610    5.4195 C.3       2 GLC5        0.0000 
     67 CA          6.3680    9.7850    7.3780 C.3       4 GLP5        0.0000 
     68 CA          3.5965   10.2440    3.3810 C.3       2 GLC5        0.0000 
     69 CA          3.8240    8.2940    2.8590 C.3       6 GLL5        0.0000 
     70 CA          3.3690   12.1940    3.9030 C.3       4 GLP5        0.0000 
     71 CA          1.9390    8.6995    2.6885 C.3       2 GLC5        0.0000 
     72 CA          0.0540    9.1050    2.5180 C.3       4 GLP5        0.0000 
     73 CA          0.3285    2.9805    1.6090 C.3       2 GLC5        0.0000 
     74 CA          0.5990    4.9490    1.4690 C.3       6 GLL5        0.0000 
     75 CA          0.0580    1.0120    1.7490 C.3       4 GLP5        0.0000 
     76 CA          0.8580    4.5370   -0.3185 C.3       2 GLC5        0.0000 
     77 CA          1.1170    4.1250   -2.1060 C.3       4 GLP5        0.0000 
     78 CA          0.3265    7.0270    1.9935 C.3       2 GLC5        0.0000 
     79 CA         -1.6375    7.6960    6.0395 C.3       2 GLC5        0.0000 
     80 CA         -0.2090    6.3160    5.1640 C.3       6 GLL5        0.0000 
     81 CA         -3.0660    9.0760    6.9150 C.3       4 GLP5        0.0000 
     82 CA          0.9800    6.4975    9.2125 C.3       2 GLC5        0.0000 
     83 CA          1.1730    7.0940    7.0750 C.3       6 GLL5        0.0000 
     84 CA          0.7870    5.9010   11.3500 C.3       4 GLP5        0.0000 
     85 CA          1.5015   10.2510    5.6285 C.3       2 GLC5        0.0000 
     86 CA          1.0700    8.6050    6.9450 C.3       6 GLL5        0.0000 
     87 CA          1.9330   11.8970    4.3120 C.3       4 GLP5        0.0000 
     88 CA          0.0650    9.1690    5.1050 C.3       2 GLC5        0.0000 
     89 CA         -0.9400    9.7330    3.2650 C.3       4 GLP5        0.0000 
     90 CA          3.5630    8.0930    8.8170 C.3       2 GLC5        0.0000 
     91 CA          1.9420    9.2500    8.0050 C.3       6 GLL5        0.0000 
     92 CA          5.1840    6.9360    9.6290 C.3       4 GLP5        0.0000 
     93 CA          1.9780    7.9880    9.8640 C.3       2 GLC5        0.0000 
     94 CA          2.0140    6.7260   11.7230 C.3       4 GLP5        0.0000 
     95 CA          0.0370   11.1890    8.6085 C.3       2 GLC5        0.0000 
     96 CA          2.1000   11.4500    8.8330 C.3       6 GLL5        0.0000 
     97 CA         -2.0260   10.9280    8.3840 C.3       4 GLP5        0.0000 
     98 CA          1.2785   13.0835    9.2140 C.3       2 GLC5        0.0000 
     99 CA          0.4570   14.7170    9.5950 C.3       4 GLP5        0.0000 
    100 CA          3.2050   11.7000    6.9590 C.3       2 GLC5        0.0000 
    101 CA          3.1275   12.9785    9.9360 C.3       2 GLC5        0.0000 
    102 CA          4.1550   14.5070   11.0390 C.3       4 GLP5        0.0000 
    103 CA          2.3830    6.5665   -5.2103 C.3       2 GLC5        0.0000 
    104 CA          2.4500    8.1280   -4.2770 C.3       6 GLL5        0.0000 
    105 CA          2.4838    9.8968   -3.3472 C.3       2 GLC5        0.0000 
    106 CA          2.1290   11.9010   -2.9440 C.3       4 GLP5        0.0000 
    107 CA          4.5240    8.6877   -2.1195 C.3       2 GLC5        0.0000 
    108 CA          0.5577    6.6303   -4.8355 C.3       2 GLC5        0.0000 
    109 CA          0.3620    5.1290   -6.1190 C.3       4 GLP5        0.0000 
    110 CA          1.4413   10.0162   -3.2480 C.3       2 GLC5        0.0000 
    111 CA          5.6867    4.8752   -5.3405 C.3       2 GLC5        0.0000 
    112 CA          5.6770    3.7830   -6.8880 C.3       4 GLP5        0.0000 
    113 CA          4.0853    4.8897   -2.8295 C.3       2 GLC5        0.0000 
    114 CA          2.0008    6.1549   -3.8055 C.3       2 GLC5        0.0000 
    115 CA         -0.2600    9.9277    7.9295 C.3       2 GLC5        0.0000 
@<TRIPOS>BOND
@<TRIPOS>SUBSTRUCTURE
     1 ASC3       50 GROUP        1 X    ASC  0     ROOT ASC X 3
     2 GLC5        1 GROUP        1 X    GLC  0     **** GLC X 6
     3 ASP3       52 GROUP        1 Y    ASP  0     ROOT ASP Y 10
     4 GLP5        3 GROUP        1 Y    GLP  0     **** GLP Y 13
     5 ASL3       51 GROUP        1 Z    ASL  0     ROOT ASL Z 17
     6 GLL5        2 GROUP        1 Z    GLL  0     **** GLL Z 20
@<TRIPOS>SET

