#    Name: 3o9l_LPN_1_ligand
#    Modification time : Tue Mar 25 03:26:23 2014

@<TRIPOS>MOLECULE
3o9l_LPN_1_ligand
   84    88     1     0     0
SMALL
NO_CHARGES


@<TRIPOS>ATOM
      1 CL1         3.1700    8.5520   -5.8500 Cl        1 LPN168      0.0000 
      2 C2          2.4500    8.1280   -4.2770 C.ar      1 LPN168      0.0000 
      3 C3          3.2270    7.6570   -3.2240 C.ar      1 LPN168      0.0000 
      4 C4          1.0720    8.2840   -4.1490 C.ar      1 LPN168      0.0000 
      5 O5          4.6050    7.4750   -3.3050 O.3       1 LPN168      0.0000 
      6 C6          2.5730    7.3700   -2.0340 C.ar      1 LPN168      0.0000 
      7 C7          0.4350    7.9790   -2.9550 C.ar      1 LPN168      0.0000 
      8 C8          5.2240    6.4650   -4.1440 C.3       1 LPN168      0.0000 
      9 CL9         3.5520    6.7760   -0.6740 Cl        1 LPN168      0.0000 
     10 C10         1.1910    7.5200   -1.8790 C.ar      1 LPN168      0.0000 
     11 C11        -1.0480    8.1600   -2.8380 C.3       1 LPN168      0.0000 
     12 C12         6.1690    5.4700   -3.4420 C.3       1 LPN168      0.0000 
     13 O13         5.7820    5.5460   -2.0930 O.3       1 LPN168      0.0000 
     14 C14         6.3280    5.3000   -0.8600 C.ar      1 LPN168      0.0000 
     15 C15         7.2710    6.2070   -0.3660 C.ar      1 LPN168      0.0000 
     16 C16         5.8430    4.2770   -0.0400 C.ar      1 LPN168      0.0000 
     17 C17         7.7830    6.0590    0.9230 C.ar      1 LPN168      0.0000 
     18 C18         6.3640    4.1240    1.2430 C.ar      1 LPN168      0.0000 
     19 C19         7.3400    5.0070    1.7380 C.ar      1 LPN168      0.0000 
     20 C20         7.8180    4.8410    3.1530 C.3       1 LPN168      0.0000 
     21 C21         6.8440    5.6500    4.0740 C.3       1 LPN168      0.0000 
     22 C22         9.2870    5.2050    3.4030 C.3       1 LPN168      0.0000 
     23 C23         5.4120    5.2200    3.7880 C.2       1 LPN168      0.0000 
     24 C24         7.1980    5.5210    5.5650 C.3       1 LPN168      0.0000 
     25 C25         9.6130    5.1650    4.9020 C.3       1 LPN168      0.0000 
     26 O26         5.0270    4.1390    4.1980 O.2       1 LPN168      0.0000 
     27 N27         4.5570    5.9740    3.0690 N.am      1 LPN168      0.0000 
     28 N28         8.6090    5.8310    5.7490 N.4       1 LPN168      0.0000 
     29 C29         4.8650    7.2730    2.4280 C.3       1 LPN168      0.0000 
     30 C30         3.2210    5.4900    2.7210 C.3       1 LPN168      0.0000 
     31 C31         5.2180    8.3370    3.4610 C.3       1 LPN168      0.0000 
     32 C32         3.8240    8.2940    2.8590 C.3       1 LPN168      0.0000 
     33 C33         2.0530    5.7930    3.6390 C.ar      1 LPN168      0.0000 
     34 C34         0.7790    5.5680    3.1300 C.ar      1 LPN168      0.0000 
     35 C35         2.2040    6.2880    4.9310 C.ar      1 LPN168      0.0000 
     36 CL36        0.5990    4.9490    1.4690 Cl        1 LPN168      0.0000 
     37 C37        -0.3620    5.8270    3.8720 C.ar      1 LPN168      0.0000 
     38 C38         1.0600    6.5430    5.6820 C.ar      1 LPN168      0.0000 
     39 C39        -0.2090    6.3160    5.1640 C.ar      1 LPN168      0.0000 
     40 C40         1.1730    7.0940    7.0750 C.3       1 LPN168      0.0000 
     41 C41         1.0700    8.6050    6.9450 C.3       1 LPN168      0.0000 
     42 C42         1.9420    9.2500    8.0050 C.3       1 LPN168      0.0000 
     43 O43         2.1120   10.6220    7.6730 O.3       1 LPN168      0.0000 
     44 C44         2.1000   11.4500    8.8330 C.3       1 LPN168      0.0000 
     45 H           0.5217    8.6299   -4.9513 H         1 LPN168      0.0000 
     46 H           5.8090    6.9455   -4.9713 H         1 LPN168      0.0000 
     47 H           4.4419    5.8587   -4.6716 H         1 LPN168      0.0000 
     48 H           0.7455    7.2956   -0.9892 H         1 LPN168      0.0000 
     49 H           7.1748    5.8036   -3.6120 H         1 LPN168      0.0000 
     50 H           6.0009    4.5027   -3.8755 H         1 LPN168      0.0000 
     51 H           7.5876    6.9867   -0.9575 H         1 LPN168      0.0000 
     52 H           5.1126    3.6479   -0.3807 H         1 LPN168      0.0000 
     53 H           8.4841    6.7182    1.2783 H         1 LPN168      0.0000 
     54 H           6.0323    3.3528    1.8436 H         1 LPN168      0.0000 
     55 H           7.6708    3.7795    3.4380 H         1 LPN168      0.0000 
     56 H           6.9416    6.7039    3.7869 H         1 LPN168      0.0000 
     57 H           9.4777    6.2057    3.0222 H         1 LPN168      0.0000 
     58 H           9.9254    4.4972    2.8793 H         1 LPN168      0.0000 
     59 H           6.9722    4.5027    5.8782 H         1 LPN168      0.0000 
     60 H           6.5653    6.2100    6.1225 H         1 LPN168      0.0000 
     61 H          10.6076    5.6307    5.0461 H         1 LPN168      0.0000 
     62 H           9.7223    4.1032    5.1979 H         1 LPN168      0.0000 
     63 H           5.1940    7.4899    1.6285 H         1 LPN168      0.0000 
     64 H           3.2540    4.3636    2.5755 H         1 LPN168      0.0000 
     65 H           2.9428    5.8633    1.6845 H         1 LPN168      0.0000 
     66 H           5.7040    9.0167    3.0170 H         1 LPN168      0.0000 
     67 H           5.1770    7.9315    4.3149 H         1 LPN168      0.0000 
     68 H           3.2506    7.8751    3.4856 H         1 LPN168      0.0000 
     69 H           3.7777    8.9603    2.1877 H         1 LPN168      0.0000 
     70 H           3.1290    6.4595    5.3177 H         1 LPN168      0.0000 
     71 H          -1.2876    5.6644    3.4836 H         1 LPN168      0.0000 
     72 H          -1.0410    6.5111    5.7403 H         1 LPN168      0.0000 
     73 H           2.1250    6.8358    7.4992 H         1 LPN168      0.0000 
     74 H           0.3656    6.7317    7.6831 H         1 LPN168      0.0000 
     75 H           0.0407    8.9098    7.0867 H         1 LPN168      0.0000 
     76 H           1.4102    8.9064    5.9622 H         1 LPN168      0.0000 
     77 H           2.8948    8.7158    8.0308 H         1 LPN168      0.0000 
     78 H           1.4497    9.1227    8.9721 H         1 LPN168      0.0000 
     79 H          -1.3825    7.9074   -1.9301 H         1 LPN168      0.0000 
     80 H          -1.3200    9.1091   -2.9970 H         1 LPN168      0.0000 
     81 H          -1.5441    7.5981   -3.4999 H         1 LPN168      0.0000 
     82 H           2.8299   11.2055    9.4714 H         1 LPN168      0.0000 
     83 H           2.2239   12.4150    8.6018 H         1 LPN168      0.0000 
     84 H           1.2369   11.3768    9.3327 H         1 LPN168      0.0000 
@<TRIPOS>BOND
     1    2    1 1    
     2    3    2 ar   
     3    4    2 ar   
     4    5    3 1    
     5    6    3 ar   
     6    7    4 ar   
     7   45    4 1    
     8    8    5 1    
     9    9    6 1    
    10   10    6 ar   
    11   10    7 ar   
    12   11    7 1    
    13   12    8 1    
    14   46    8 1    
    15   47    8 1    
    16   48   10 1    
    17   79   11 1    
    18   80   11 1    
    19   81   11 1    
    20   13   12 1    
    21   49   12 1    
    22   50   12 1    
    23   14   13 1    
    24   15   14 ar   
    25   16   14 ar   
    26   17   15 ar   
    27   51   15 1    
    28   18   16 ar   
    29   52   16 1    
    30   19   17 ar   
    31   53   17 1    
    32   19   18 ar   
    33   54   18 1    
    34   20   19 1    
    35   21   20 1    
    36   22   20 1    
    37   55   20 1    
    38   23   21 1    
    39   24   21 1    
    40   56   21 1    
    41   25   22 1    
    42   57   22 1    
    43   58   22 1    
    44   26   23 2    
    45   27   23 am   
    46   28   24 1    
    47   59   24 1    
    48   60   24 1    
    49   28   25 1    
    50   61   25 1    
    51   62   25 1    
    52   29   27 1    
    53   30   27 1    
    54   31   29 1    
    55   32   29 1    
    56   63   29 1    
    57   33   30 1    
    58   64   30 1    
    59   65   30 1    
    60   32   31 1    
    61   66   31 1    
    62   67   31 1    
    63   68   32 1    
    64   69   32 1    
    65   34   33 ar   
    66   35   33 ar   
    67   36   34 1    
    68   37   34 ar   
    69   38   35 ar   
    70   70   35 1    
    71   39   37 ar   
    72   71   37 1    
    73   39   38 ar   
    74   40   38 1    
    75   72   39 1    
    76   41   40 1    
    77   73   40 1    
    78   74   40 1    
    79   42   41 1    
    80   75   41 1    
    81   76   41 1    
    82   43   42 1    
    83   77   42 1    
    84   78   42 1    
    85   44   43 1    
    86   82   44 1    
    87   83   44 1    
    88   84   44 1    
@<TRIPOS>SUBSTRUCTURE
     1 LPN168      1 GROUP   
@<TRIPOS>SET

