#    Name: 2zla_VDB_1_INTS_M
#    Modification time : Tue Mar 25 10:49:26 2014

@<TRIPOS>MOLECULE
2zla_VDB_1_INTS_M
  139     0     9     0     0
SMALL
NO_CHARGES


@<TRIPOS>ATOM
      1 CA          7.6905   -1.2810   31.4035 C.3       3 GLC5        0.0000 
      2 CA          7.7080   -0.7030   29.6480 C.3       9 GLL5        0.0000 
      3 CA          7.6730   -1.8590   33.1590 C.3       6 GLP5        0.0000 
      4 CA          8.1870    2.2320   30.0610 C.3       3 GLC5        0.0000 
      5 CA          8.3390    0.4630   28.8660 C.3       9 GLL5        0.0000 
      6 CA          8.0350    4.0010   31.2560 C.3       6 GLP5        0.0000 
      7 CA         10.2965    0.3640   29.7100 C.3       3 GLC5        0.0000 
      8 CA          9.3880    0.1080   27.7760 C.3       9 GLL5        0.0000 
      9 CA         11.2050    0.6200   31.6440 C.3       6 GLP5        0.0000 
     10 CA          9.5035   -2.1485   25.1645 C.3       3 GLC5        0.0000 
     11 CA          8.7280   -0.6770   26.6030 C.3       9 GLL5        0.0000 
     12 CA         10.2790   -3.6200   23.7260 C.3       6 GLP5        0.0000 
     13 CA          6.3640    1.1775   25.1060 C.3       3 GLC5        0.0000 
     14 CA          7.5970    0.0120   25.8140 C.3       9 GLL5        0.0000 
     15 CA          5.1310    2.3430   24.3980 C.3       6 GLP5        0.0000 
     16 CA          5.6640   -0.7560   26.3310 C.3       3 GLC5        0.0000 
     17 CA          3.7310   -1.5240   26.8480 C.3       6 GLP5        0.0000 
     18 N          10.7270   -0.6150   29.6645 N.am      2 SEC2        0.0000 
     19 N          10.4170   -0.6760   28.3790 N.am      8 SEL2        0.0000 
     20 N          11.0370   -0.5540   30.9500 N.am      5 SEP2        0.0000 
     21 N          11.2830   -1.6095   28.0740 N.am      2 SEC2        0.0000 
     22 N          12.1490   -2.5430   27.7690 N.am      5 SEP2        0.0000 
     23 CA          8.8255    3.3935   27.0615 C.3       3 GLC5        0.0000 
     24 CA          9.9310    1.4700   27.3260 C.3       9 GLL5        0.0000 
     25 CA          7.7200    5.3170   26.7970 C.3       6 GLP5        0.0000 
     26 CA          9.8830    1.5945   25.4405 C.3       3 GLC5        0.0000 
     27 CA          9.8350    1.7190   23.5550 C.3       6 GLP5        0.0000 
     28 CA         10.0170    4.3775   28.5665 C.3       3 GLC5        0.0000 
     29 CA         11.0540    2.4000   28.4360 C.3       9 GLL5        0.0000 
     30 CA          8.9800    6.3550   28.6970 C.3       6 GLP5        0.0000 
     31 CA          9.5445    3.2005   29.8460 C.3       3 GLC5        0.0000 
     32 CA         13.3955    3.1400   30.6465 C.3       3 GLC5        0.0000 
     33 CA         13.7020    1.8980   29.3020 C.3       9 GLL5        0.0000 
     34 CA         13.0890    4.3820   31.9910 C.3       6 GLP5        0.0000 
     35 CA         12.4535    1.2590   30.4730 C.3       3 GLC5        0.0000 
     36 CA         14.3365    0.4640   30.5475 C.3       3 GLC5        0.0000 
     37 CA         14.9710   -0.9700   31.7930 C.3       6 GLP5        0.0000 
     38 CA         15.6485    2.4970   29.2745 C.3       3 GLC5        0.0000 
     39 CA         17.5950    3.0960   29.2470 C.3       6 GLP5        0.0000 
     40 CA         14.1885   -0.1475   25.3125 C.3       3 GLC5        0.0000 
     41 CA         14.1690    1.7960   25.9310 C.3       9 GLL5        0.0000 
     42 CA         14.2080   -2.0910   24.6940 C.3       6 GLP5        0.0000 
     43 CA         14.5825    2.3275   22.9325 C.3       3 GLC5        0.0000 
     44 CA         14.6420    2.7810   24.8370 C.3       9 GLL5        0.0000 
     45 CA         14.5230    1.8740   21.0280 C.3       6 GLP5        0.0000 
     46 CA         10.4750    5.7375   26.0290 C.3       3 GLC5        0.0000 
     47 CA         11.9060    4.0760   25.6320 C.3       9 GLL5        0.0000 
     48 CA          9.0440    7.3990   26.4260 C.3       6 GLP5        0.0000 
     49 CA         11.2460    5.6725   24.2015 C.3       3 GLC5        0.0000 
     50 CA         10.5860    7.2690   22.7710 C.3       6 GLP5        0.0000 
     51 CA         10.8705    2.8975   24.5935 C.3       3 GLC5        0.0000 
     52 CA         15.1095    7.6370   27.4735 C.3       3 GLC5        0.0000 
     53 CA         13.5390    6.4660   27.0870 C.3       9 GLL5        0.0000 
     54 CA         16.6800    8.8080   27.8600 C.3       6 GLP5        0.0000 
     55 CA         13.0515    8.6265   27.2720 C.3       3 GLC5        0.0000 
     56 CA         12.5640   10.7870   27.4570 C.3       6 GLP5        0.0000 
     57 CA         15.9525    7.5985   26.3190 C.3       3 GLC5        0.0000 
     58 CA         14.7020    6.5800   26.0650 C.3       9 GLL5        0.0000 
     59 CA         17.2030    8.6170   26.5730 C.3       6 GLP5        0.0000 
     60 CA         16.3495    6.4930   25.6800 C.3       3 GLC5        0.0000 
     61 CA         14.6260    5.4610   25.0140 C.3       9 GLL5        0.0000 
     62 CA         18.0730    7.5250   26.3460 C.3       6 GLP5        0.0000 
     63 CA         16.1420    7.6845   23.6015 C.3       3 GLC5        0.0000 
     64 CA         14.4590    6.7360   22.7790 C.3       9 GLL5        0.0000 
     65 CA         17.8250    8.6330   24.4240 C.3       6 GLP5        0.0000 
     66 CA         12.2915    6.1935   20.4085 C.3       3 GLC5        0.0000 
     67 CA         14.1860    5.7260   20.4430 C.3       9 GLL5        0.0000 
     68 CA         10.3970    6.6610   20.3740 C.3       6 GLP5        0.0000 
     69 CA         14.3545    3.8000   20.7355 C.3       3 GLC5        0.0000 
     70 CA         16.1330    4.8220   18.3210 C.3       3 GLC5        0.0000 
     71 CA         14.7600    6.0020   19.0460 C.3       9 GLL5        0.0000 
     72 CA         17.5060    3.6420   17.5960 C.3       6 GLP5        0.0000 
     73 CA         16.6900    6.1580   19.8960 C.3       3 GLC5        0.0000 
     74 CA         18.6200    6.3140   20.7460 C.3       6 GLP5        0.0000 
     75 N          14.7070    4.7840   16.9025 N.am      2 SEC2        0.0000 
     76 N          14.3860    4.9000   18.2230 N.am      8 SEL2        0.0000 
     77 N          15.0280    4.6680   15.5820 N.am      5 SEP2        0.0000 
     78 O          13.1440    4.4480   18.3485 O.2       1 ALC1        0.0000 
     79 O          14.3860    4.9000   18.2230 O.2       7 ALL1        0.0000 
     80 O          11.9020    3.9960   18.4740 O.2       4 ALP1        0.0000 
     81 CA         12.3425    7.5090   20.6290 C.3       3 GLC5        0.0000 
     82 CA         14.2880    8.3570   20.8840 C.3       9 GLL5        0.0000 
     83 CA         16.1290    8.8545   17.7105 C.3       3 GLC5        0.0000 
     84 CA         14.7180    8.5090   19.3980 C.3       9 GLL5        0.0000 
     85 CA         17.5400    9.2000   16.0230 C.3       6 GLP5        0.0000 
     86 CA         14.7125   10.1605   18.1685 C.3       3 GLC5        0.0000 
     87 CA         14.7070   11.8120   16.9390 C.3       6 GLP5        0.0000 
     88 N          16.8395    9.1325   18.3635 N.am      2 SEC2        0.0000 
     89 N          16.1420    8.5230   19.4250 N.am      8 SEL2        0.0000 
     90 N          17.5370    9.7420   17.3020 N.am      5 SEP2        0.0000 
     91 O          16.7100    9.4425   20.4100 O.2       1 ALC1        0.0000 
     92 O          16.1420    8.5230   19.4250 O.2       7 ALL1        0.0000 
     93 O          17.2780   10.3620   21.3950 O.2       4 ALP1        0.0000 
     94 CA         15.8525    7.5775   17.1635 C.3       3 GLC5        0.0000 
     95 CA         14.1950    7.3410   18.4730 C.3       9 GLL5        0.0000 
     96 CA         17.5100    7.8140   15.8540 C.3       6 GLP5        0.0000 
     97 CA         12.5710    8.7480   18.6515 C.3       3 GLC5        0.0000 
     98 CA         10.9470   10.1550   18.8300 C.3       6 GLP5        0.0000 
     99 CA         12.2960    7.0010   19.4235 C.3       3 GLC5        0.0000 
    100 CA         15.4795    8.0005   16.1065 C.3       3 GLC5        0.0000 
    101 CA         13.4490    8.1870   16.3590 C.3       9 GLL5        0.0000 
    102 CA         11.8850    9.2065   16.9745 C.3       3 GLC5        0.0000 
    103 CA         10.3210   10.2260   17.5900 C.3       6 GLP5        0.0000 
    104 CA         15.7280    7.7120   14.7420 C.3       3 GLC5        0.0000 
    105 CA         13.9670    8.1520   14.9150 C.3       9 GLL5        0.0000 
    106 CA         17.4890    7.2720   14.5690 C.3       6 GLP5        0.0000 
    107 N          14.3705    5.7835   14.9340 N.am      2 SEC2        0.0000 
    108 N          13.7130    6.8990   14.2860 N.am      8 SEL2        0.0000 
    109 N          13.0055    7.3690   13.1955 N.am      2 SEC2        0.0000 
    110 N          12.2980    7.8390   12.1050 N.am      5 SEP2        0.0000 
    111 O          14.0430    6.1590   12.8345 O.2       1 ALC1        0.0000 
    112 O          13.7130    6.8990   14.2860 O.2       7 ALL1        0.0000 
    113 O          14.3730    5.4190   11.3830 O.2       4 ALP1        0.0000 
    114 CA          6.3373    0.6255   29.2890 C.3       3 GLC5        0.0000 
    115 CA          4.6510    1.3710   29.3210 C.3       6 GLP5        0.0000 
    116 CA          9.6143    0.2500   30.4505 C.3       3 GLC5        0.0000 
    117 CA          8.9988    0.6933   24.8818 C.3       3 GLC5        0.0000 
    118 CA         11.5538    1.3435   29.9565 C.3       3 GLC5        0.0000 
    119 CA         13.2672   -0.3235   28.6040 C.3       3 GLC5        0.0000 
    120 CA         12.7510    1.7340   28.1020 C.3       9 GLL5        0.0000 
    121 CA         13.3080   -2.4630   28.5060 C.3       6 GLP5        0.0000 
    122 CA         16.2967    1.1953   25.1580 C.3       3 GLC5        0.0000 
    123 CA         18.1880    0.1020   24.9320 C.3       6 GLP5        0.0000 
    124 CA         13.4868    6.1575   29.1175 C.3       3 GLC5        0.0000 
    125 CA         13.3040    5.0020   27.6070 C.3       9 GLL5        0.0000 
    126 CA         13.5520    6.5810   30.8880 C.3       6 GLP5        0.0000 
    127 CA         16.2115    5.6878   23.1552 C.3       3 GLC5        0.0000 
    128 CA         17.8510    5.8220   21.9800 C.3       6 GLP5        0.0000 
    129 CA         12.4959    6.9080   22.5430 C.3       3 GLC5        0.0000 
    130 CA         14.3230    6.9030   21.4170 C.3       9 GLL5        0.0000 
    131 CA         16.0697    6.0474   21.6253 C.3       3 GLC5        0.0000 
    132 CA         12.7250    9.2940   19.4855 C.3       3 GLC5        0.0000 
    133 CA         16.0000    9.9575   20.3445 C.3       3 GLC5        0.0000 
    134 CA         17.4970   11.4820   20.5480 C.3       6 GLP5        0.0000 
    135 CA         14.1555   10.1325   20.5175 C.3       3 GLC5        0.0000 
    136 CA         13.8080   11.8320   20.8940 C.3       6 GLP5        0.0000 
    137 CA         14.2075    9.9907   16.2880 C.3       3 GLC5        0.0000 
    138 CA         11.8130    7.5362   15.1480 C.3       3 GLC5        0.0000 
    139 CA          9.9180    6.9030   14.6590 C.3       6 GLP5        0.0000 
@<TRIPOS>BOND
@<TRIPOS>SUBSTRUCTURE
     1 ALC1       78 GROUP        1 X    ALC  0     ROOT ALC X 1
     2 SEC2       18 GROUP        1 X    SEC  0     **** SEC X 2
     3 GLC5        1 GROUP        1 X    GLC  0     **** GLC X 6
     4 ALP1       80 GROUP        1 Y    ALP  0     ROOT ALP Y 8
     5 SEP2       20 GROUP        1 Y    SEP  0     **** SEP Y 9
     6 GLP5        3 GROUP        1 Y    GLP  0     **** GLP Y 13
     7 ALL1       79 GROUP        1 Z    ALL  0     ROOT ALL Z 15
     8 SEL2       19 GROUP        1 Z    SEL  0     **** SEL Z 16
     9 GLL5        2 GROUP        1 Z    GLL  0     **** GLL Z 20
@<TRIPOS>SET

