#    Name: 2zla_VDB_1_ligand
#    Modification time : Tue Mar 25 10:49:26 2014

@<TRIPOS>MOLECULE
2zla_VDB_1_ligand
   80    82     1     0     0
SMALL
NO_CHARGES


@<TRIPOS>ATOM
      1 C29         7.7080   -0.7030   29.6480 C.3       1 VDB500      0.0000 
      2 C26         8.3390    0.4630   28.8660 C.3       1 VDB500      0.0000 
      3 C25         9.3880    0.1080   27.7760 C.3       1 VDB500      0.0000 
      4 C27         8.7280   -0.6770   26.6030 C.3       1 VDB500      0.0000 
      5 C28         7.5970    0.0120   25.8140 C.3       1 VDB500      0.0000 
      6 O3         10.4170   -0.6760   28.3790 O.3       1 VDB500      0.0000 
      7 C23         9.9310    1.4700   27.3260 C.3       1 VDB500      0.0000 
      8 S22        11.0540    2.4000   28.4360 S.3       1 VDB500      0.0000 
      9 C20        12.7510    1.7340   28.1020 C.3       1 VDB500      0.0000 
     10 C21        13.7020    1.8980   29.3020 C.3       1 VDB500      0.0000 
     11 C17        13.3900    2.4290   26.8390 C.2       1 VDB500      0.0000 
     12 C16        14.1690    1.7960   25.9310 C.2       1 VDB500      0.0000 
     13 C15        14.6420    2.7810   24.8370 C.3       1 VDB500      0.0000 
     14 C14        14.6170    4.0420   25.7050 C.3       1 VDB500      0.0000 
     15 C13        13.2500    3.9330   26.4580 C.3       1 VDB500      0.0000 
     16 C18        11.9060    4.0760   25.6320 C.3       1 VDB500      0.0000 
     17 C12        13.3040    5.0020   27.6070 C.3       1 VDB500      0.0000 
     18 C11        13.5390    6.4660   27.0870 C.3       1 VDB500      0.0000 
     19 C9         14.7020    6.5800   26.0650 C.3       1 VDB500      0.0000 
     20 C8         14.6260    5.4610   25.0140 C.2       1 VDB500      0.0000 
     21 C7         14.5180    5.6460   23.6470 C.2       1 VDB500      0.0000 
     22 C6         14.4590    6.7360   22.7790 C.2       1 VDB500      0.0000 
     23 C5         14.3230    6.9030   21.4170 C.2       1 VDB500      0.0000 
     24 C10        14.1860    5.7260   20.4430 C.3       1 VDB500      0.0000 
     25 C1         14.7600    6.0020   19.0460 C.3       1 VDB500      0.0000 
     26 O1         14.3860    4.9000   18.2230 O.3       1 VDB500      0.0000 
     27 C4         14.2880    8.3570   20.8840 C.3       1 VDB500      0.0000 
     28 C3         14.7180    8.5090   19.3980 C.3       1 VDB500      0.0000 
     29 O2         16.1420    8.5230   19.4250 O.3       1 VDB500      0.0000 
     30 C2         14.1950    7.3410   18.4730 C.3       1 VDB500      0.0000 
     31 O4         14.5660    7.6240   17.0890 O.3       1 VDB500      0.0000 
     32 C30        13.4490    8.1870   16.3590 C.3       1 VDB500      0.0000 
     33 C31        13.9670    8.1520   14.9150 C.3       1 VDB500      0.0000 
     34 O5         13.7130    6.8990   14.2860 O.3       1 VDB500      0.0000 
     35 H           8.8167    1.1608   29.5911 H         1 VDB500      0.0000 
     36 H           7.5246    1.0503   28.3836 H         1 VDB500      0.0000 
     37 H           8.3406   -1.6418   27.0103 H         1 VDB500      0.0000 
     38 H           9.5344   -0.9678   25.8875 H         1 VDB500      0.0000 
     39 H           9.1356    2.2107   27.1452 H         1 VDB500      0.0000 
     40 H          10.5316    1.4093   26.4043 H         1 VDB500      0.0000 
     41 H          12.5620    0.7055   27.8899 H         1 VDB500      0.0000 
     42 H          14.4438    0.8919   25.8805 H         1 VDB500      0.0000 
     43 H          13.9270    2.8441   24.0949 H         1 VDB500      0.0000 
     44 H          15.6115    2.5552   24.5631 H         1 VDB500      0.0000 
     45 H          15.3699    3.9973   26.4570 H         1 VDB500      0.0000 
     46 H          14.1130    4.7404   28.2901 H         1 VDB500      0.0000 
     47 H          12.3616    4.9737   28.1553 H         1 VDB500      0.0000 
     48 H          13.7540    7.1062   27.9463 H         1 VDB500      0.0000 
     49 H          12.6160    6.8174   26.6191 H         1 VDB500      0.0000 
     50 H          15.6452    6.5102   26.5990 H         1 VDB500      0.0000 
     51 H          14.6397    7.5448   25.5701 H         1 VDB500      0.0000 
     52 H          14.4627    4.6505   23.0801 H         1 VDB500      0.0000 
     53 H          14.5445    7.7293   23.3359 H         1 VDB500      0.0000 
     54 H          13.1205    5.4667   20.3447 H         1 VDB500      0.0000 
     55 H          14.6960    4.8486   20.8699 H         1 VDB500      0.0000 
     56 H          15.8221    6.0919   19.1325 H         1 VDB500      0.0000 
     57 H          14.9492    8.9781   21.5054 H         1 VDB500      0.0000 
     58 H          13.2674    8.7507   20.9955 H         1 VDB500      0.0000 
     59 H          14.3268    9.4361   19.0336 H         1 VDB500      0.0000 
     60 H          13.1174    7.3257   18.6003 H         1 VDB500      0.0000 
     61 H          13.2659    9.1980   16.6272 H         1 VDB500      0.0000 
     62 H          12.5828    7.5760   16.4214 H         1 VDB500      0.0000 
     63 H          15.0481    8.3807   14.9479 H         1 VDB500      0.0000 
     64 H          13.4853    8.9863   14.3726 H         1 VDB500      0.0000 
     65 H           8.3966   -1.2367   30.1389 H         1 VDB500      0.0000 
     66 H           7.0481   -0.3809   30.3268 H         1 VDB500      0.0000 
     67 H           7.2225   -1.3354   29.0444 H         1 VDB500      0.0000 
     68 H           7.9079    0.8587   25.3821 H         1 VDB500      0.0000 
     69 H           7.2410   -0.5745   25.0865 H         1 VDB500      0.0000 
     70 H           6.8247    0.2498   26.4031 H         1 VDB500      0.0000 
     71 H          14.6120    1.5318   29.1075 H         1 VDB500      0.0000 
     72 H          13.8202    2.8586   29.5536 H         1 VDB500      0.0000 
     73 H          13.3619    1.4222   30.1132 H         1 VDB500      0.0000 
     74 H          11.7454    5.0202   25.3445 H         1 VDB500      0.0000 
     75 H          11.9175    3.5154   24.8040 H         1 VDB500      0.0000 
     76 H          11.1097    3.7929   26.1665 H         1 VDB500      0.0000 
     77 H          11.2516   -0.1363   28.2688 H         1 VDB500      0.0000 
     78 H          13.4311    4.7156   18.4558 H         1 VDB500      0.0000 
     79 H          16.3830    9.3486   19.9353 H         1 VDB500      0.0000 
     80 H          14.5086    6.7366   13.7023 H         1 VDB500      0.0000 
@<TRIPOS>BOND
     1    2    1 1    
     2   65    1 1    
     3   66    1 1    
     4   67    1 1    
     5    3    2 1    
     6   35    2 1    
     7   36    2 1    
     8    4    3 1    
     9    6    3 1    
    10    7    3 1    
    11    5    4 1    
    12   37    4 1    
    13   38    4 1    
    14   68    5 1    
    15   69    5 1    
    16   70    5 1    
    17   77    6 1    
    18    8    7 1    
    19   39    7 1    
    20   40    7 1    
    21    9    8 1    
    22   10    9 1    
    23   11    9 1    
    24   41    9 1    
    25   71   10 1    
    26   72   10 1    
    27   73   10 1    
    28   12   11 2    
    29   15   11 1    
    30   13   12 1    
    31   42   12 1    
    32   14   13 1    
    33   43   13 1    
    34   44   13 1    
    35   15   14 1    
    36   20   14 1    
    37   45   14 1    
    38   16   15 1    
    39   17   15 1    
    40   74   16 1    
    41   75   16 1    
    42   76   16 1    
    43   18   17 1    
    44   46   17 1    
    45   47   17 1    
    46   19   18 1    
    47   48   18 1    
    48   49   18 1    
    49   20   19 1    
    50   50   19 1    
    51   51   19 1    
    52   21   20 2    
    53   22   21 1    
    54   52   21 1    
    55   23   22 2    
    56   53   22 1    
    57   24   23 1    
    58   27   23 1    
    59   25   24 1    
    60   54   24 1    
    61   55   24 1    
    62   26   25 1    
    63   30   25 1    
    64   56   25 1    
    65   78   26 1    
    66   28   27 1    
    67   57   27 1    
    68   58   27 1    
    69   29   28 1    
    70   30   28 1    
    71   59   28 1    
    72   79   29 1    
    73   31   30 1    
    74   60   30 1    
    75   32   31 1    
    76   33   32 1    
    77   61   32 1    
    78   62   32 1    
    79   34   33 1    
    80   63   33 1    
    81   64   33 1    
    82   80   34 1    
@<TRIPOS>SUBSTRUCTURE
     1 VDB500      1 GROUP   
@<TRIPOS>SET

