#    Name: 3g42_792_2_INTS_M
#    Modification time : Tue Mar 25 07:02:26 2014

@<TRIPOS>MOLECULE
3g42_792_2_INTS_M
   66     0     9     0     0
SMALL
NO_CHARGES


@<TRIPOS>ATOM
      1 CA         19.8485   38.5535   66.7010 C.3       3 GLC5        0.0000 
      2 CA         21.8040   37.7080   66.0930 C.3       9 GLL5        0.0000 
      3 CA         17.8930   39.3990   67.3090 C.3       6 GLP5        0.0000 
      4 CA         14.4155   33.6770   71.4165 C.3       3 GLC5        0.0000 
      5 CA         16.4690   34.0940   71.9720 C.3       9 GLL5        0.0000 
      6 CA         12.3620   33.2600   70.8610 C.3       6 GLP5        0.0000 
      7 CA         17.3750   32.6675   73.4135 C.3       3 GLC5        0.0000 
      8 CA         18.2810   31.2410   74.8550 C.3       6 GLP5        0.0000 
      9 CA         13.7315   33.8400   72.4300 C.3       3 GLC5        0.0000 
     10 CA         15.1010   34.4200   73.9990 C.3       9 GLL5        0.0000 
     11 CA         14.6880   35.7485   72.6140 C.3       3 GLC5        0.0000 
     12 CA         14.2750   37.0770   71.2290 C.3       6 GLP5        0.0000 
     13 CA         16.8320   33.4810   74.8060 C.3       3 GLC5        0.0000 
     14 CA         18.5630   32.5420   75.6130 C.3       6 GLP5        0.0000 
     15 CA         12.6490   29.3725   75.2200 C.3       3 GLC5        0.0000 
     16 CA         14.0110   30.5680   74.9980 C.3       9 GLL5        0.0000 
     17 CA         11.2870   28.1770   75.4420 C.3       6 GLP5        0.0000 
     18 CA         13.5530   30.7180   73.0915 C.3       3 GLC5        0.0000 
     19 CA         13.0950   30.8680   71.1850 C.3       6 GLP5        0.0000 
     20 CA         16.1460   30.9045   74.9265 C.3       3 GLC5        0.0000 
     21 N          19.0015   30.2595   68.5715 N.am      1 SEC2        0.0000 
     22 N          19.7120   31.3700   68.8710 N.am      7 SEL2        0.0000 
     23 N          18.2910   29.1490   68.2720 N.am      4 SEP2        0.0000 
     24 CA         20.9485   32.1940   66.3025 C.3       3 GLC5        0.0000 
     25 CA         21.1890   34.3950   66.5330 C.3       9 GLL5        0.0000 
     26 CA         20.7080   29.9930   66.0720 C.3       6 GLP5        0.0000 
     27 Zn         20.2150   35.7300   69.1140 Zn        2 ZIC7        0.0000 
     28 Zn         20.9050   33.5790   68.8650 Zn        8 ZIL7        0.0000 
     29 Zn         19.5250   37.8810   69.3630 Zn        5 ZIP7        0.0000 
     30 Zn         19.8100   37.0335   69.2590 Zn        2 ZIC7        0.0000 
     31 Zn         20.0950   36.1860   69.1550 Zn        8 ZIL7        0.0000 
     32 Zn         19.1245   36.9705   68.4310 Zn        2 ZIC7        0.0000 
     33 Zn         18.7240   36.0600   67.4990 Zn        8 ZIL7        0.0000 
     34 N          17.5780   35.4740   67.3190 N.am      1 SEC2        0.0000 
     35 N          18.7240   36.0600   67.4990 N.am      7 SEL2        0.0000 
     36 N          16.4320   34.8880   67.1390 N.am      4 SEP2        0.0000 
     37 CA         20.6980   41.5975   64.8635 C.3       3 GLC5        0.0000 
     38 CA         21.4400   40.1190   65.5210 C.3       9 GLL5        0.0000 
     39 CA         19.9560   43.0760   64.2060 C.3       6 GLP5        0.0000 
     40 CA         19.6665   39.7590   66.4150 C.3       3 GLC5        0.0000 
     41 CA         21.3620   36.3625   64.5628 C.3       3 GLC5        0.0000 
     42 CA         20.4960   35.5450   62.7980 C.3       6 GLP5        0.0000 
     43 CA         16.5633   31.2703   69.9903 C.3       3 GLC5        0.0000 
     44 CA         17.4500   32.8820   70.0460 C.3       9 GLL5        0.0000 
     45 CA         16.2470   29.3980   69.5940 C.3       6 GLP5        0.0000 
     46 CA         15.0533   32.5318   69.6587 C.3       3 GLC5        0.0000 
     47 CA         13.2270   31.9210   68.9310 C.3       6 GLP5        0.0000 
     48 CA         16.7152   35.1902   70.1868 C.3       3 GLC5        0.0000 
     49 CA         16.3090   33.4030   70.7270 C.3       9 GLL5        0.0000 
     50 CA         16.5510   37.2380   69.9870 C.3       6 GLP5        0.0000 
     51 CA         16.4350   35.7617   71.6635 C.3       3 GLC5        0.0000 
     52 CA         15.7400   37.3410   71.0670 C.3       6 GLP5        0.0000 
     53 CA         18.4642   33.2750   73.9090 C.3       3 GLC5        0.0000 
     54 CA         17.7910   34.2710   72.5480 C.3       9 GLL5        0.0000 
     55 CA         13.0175   33.8118   74.6703 C.3       3 GLC5        0.0000 
     56 CA         11.1460   33.8930   75.1730 C.3       6 GLP5        0.0000 
     57 CA         13.8080   31.6770   72.8338 C.3       3 GLC5        0.0000 
     58 CA         14.6770   33.0410   74.3360 C.3       9 GLL5        0.0000 
     59 CA         16.4010   31.8635   74.6688 C.3       3 GLC5        0.0000 
     60 CA         14.3650   31.9310   74.6290 C.3       9 GLL5        0.0000 
     61 CA         15.2325   30.1778   73.4458 C.3       3 GLC5        0.0000 
     62 CA         16.2770   29.1060   72.0780 C.3       6 GLP5        0.0000 
     63 CA         12.6670   32.5712   74.9933 C.3       3 GLC5        0.0000 
     64 CA         14.7135   33.7629   76.2536 C.3       3 GLC5        0.0000 
     65 CA         14.8000   34.6950   78.1090 C.3       6 GLP5        0.0000 
     66 CA         21.1585   35.1773   64.7245 C.3       3 GLC5        0.0000 
@<TRIPOS>BOND
@<TRIPOS>SUBSTRUCTURE
     1 SEC2       21 GROUP        1 X    SEC  0     ROOT SEC X 2
     2 ZIC7       27 GROUP        1 X    ZIC  0     **** ZIC X 5
     3 GLC5        1 GROUP        1 X    GLC  0     **** GLC X 6
     4 SEP2       23 GROUP        1 Y    SEP  0     ROOT SEP Y 9
     5 ZIP7       29 GROUP        1 Y    ZIP  0     **** ZIP Y 12
     6 GLP5        3 GROUP        1 Y    GLP  0     **** GLP Y 13
     7 SEL2       22 GROUP        1 Z    SEL  0     ROOT SEL Z 16
     8 ZIL7       28 GROUP        1 Z    ZIL  0     **** ZIL Z 19
     9 GLL5        2 GROUP        1 Z    GLL  0     **** GLL Z 20
@<TRIPOS>SET

