#    Name: 3g42_792_2_ligand
#    Modification time : Tue Mar 25 07:02:26 2014

@<TRIPOS>MOLECULE
3g42_792_2_ligand
   51    53     1     0     0
SMALL
NO_CHARGES


@<TRIPOS>ATOM
      1 C1         24.5340   38.2980   66.8380 C.ar      1 7922        0.0000 
      2 C2         24.0260   36.9560   66.9310 C.ar      1 7922        0.0000 
      3 C3         22.6520   36.6520   66.5620 C.ar      1 7922        0.0000 
      4 C4         21.8040   37.7080   66.0930 C.ar      1 7922        0.0000 
      5 C5         22.3190   39.0420   66.0020 C.ar      1 7922        0.0000 
      6 C6         23.6730   39.3460   66.3690 C.ar      1 7922        0.0000 
      7 S7         20.1840   32.4010   69.7640 S.o2      1 7922        0.0000 
      8 C8         18.7590   33.0550   70.6150 C.ar      1 7922        0.0000 
      9 C9         17.4500   32.8820   70.0460 C.ar      1 7922        0.0000 
     10 C10        16.3090   33.4030   70.7270 C.ar      1 7922        0.0000 
     11 C11        16.4690   34.0940   71.9720 C.ar      1 7922        0.0000 
     12 C12        17.7910   34.2710   72.5480 C.ar      1 7922        0.0000 
     13 C13        18.9400   33.7450   71.8620 C.ar      1 7922        0.0000 
     14 O14        15.2780   34.5810   72.5750 O.3       1 7922        0.0000 
     15 C15        15.1010   34.4200   73.9990 C.3       1 7922        0.0000 
     16 C16        14.6770   33.0410   74.3360 C.1       1 7922        0.0000 
     17 C17        14.3650   31.9310   74.6290 C.1       1 7922        0.0000 
     18 C18        14.0110   30.5680   74.9980 C.3       1 7922        0.0000 
     19 O19        21.1310   31.9810   70.7470 O.2       1 7922        0.0000 
     20 O20        19.7120   31.3700   68.8710 O.2       1 7922        0.0000 
     21 N21        24.6020   35.7610   67.3390 N.pl3     1 7922        0.0000 
     22 C22        23.6890   34.7540   67.2440 C.2       1 7922        0.0000 
     23 C23        22.4530   35.2240   66.7690 C.2       1 7922        0.0000 
     24 C24        21.1890   34.3950   66.5330 C.3       1 7922        0.0000 
     25 C25        20.2210   34.2660   67.7530 C.3       1 7922        0.0000 
     26 C26        19.6330   35.6030   68.1700 C.2       1 7922        0.0000 
     27 N27        20.9050   33.5790   68.8650 N.pl3     1 7922        0.0000 
     28 O28        20.0950   36.1860   69.1550 O.co2     1 7922        0.0000 
     29 O29        18.7240   36.0600   67.4990 O.co2     1 7922        0.0000 
     30 C48        21.4400   40.1190   65.5210 C.3       1 7922        0.0000 
     31 H          25.4867   38.4996   67.1002 H         1 7922        0.0000 
     32 H          20.8478   37.5126   65.8279 H         1 7922        0.0000 
     33 H          24.0181   40.2935   66.2974 H         1 7922        0.0000 
     34 H          17.3431   32.3925   69.1668 H         1 7922        0.0000 
     35 H          15.3812   33.2851   70.3306 H         1 7922        0.0000 
     36 H          17.8949   34.7598   73.4221 H         1 7922        0.0000 
     37 H          19.8619   33.8594   72.2521 H         1 7922        0.0000 
     38 H          14.3439   35.1310   74.3772 H         1 7922        0.0000 
     39 H          16.0414   34.6472   74.5335 H         1 7922        0.0000 
     40 H          25.5131   35.6716   67.6419 H         1 7922        0.0000 
     41 H          23.8497   33.8220   67.4703 H         1 7922        0.0000 
     42 H          21.4770   33.3738   66.2173 H         1 7922        0.0000 
     43 H          20.6190   34.8320   65.6907 H         1 7922        0.0000 
     44 H          19.3859   33.6234   67.4078 H         1 7922        0.0000 
     45 H          21.8403   33.7856   69.1378 H         1 7922        0.0000 
     46 H          14.5792   29.8954   74.5239 H         1 7922        0.0000 
     47 H          14.1235   30.4076   75.9786 H         1 7922        0.0000 
     48 H          13.0594   30.3578   74.7739 H         1 7922        0.0000 
     49 H          21.9092   41.0019   65.5046 H         1 7922        0.0000 
     50 H          21.1121   39.9440   64.5926 H         1 7922        0.0000 
     51 H          20.6329   40.2268   66.1015 H         1 7922        0.0000 
@<TRIPOS>BOND
     1    2    1 ar   
     2    6    1 ar   
     3   31    1 1    
     4    3    2 ar   
     5   21    2 1    
     6    4    3 ar   
     7   23    3 1    
     8    5    4 ar   
     9   32    4 1    
    10    6    5 ar   
    11   30    5 1    
    12   33    6 1    
    13    8    7 1    
    14   19    7 2    
    15   20    7 2    
    16   27    7 1    
    17    9    8 ar   
    18   13    8 ar   
    19   10    9 ar   
    20   34    9 1    
    21   11   10 ar   
    22   35   10 1    
    23   12   11 ar   
    24   14   11 1    
    25   13   12 ar   
    26   36   12 1    
    27   37   13 1    
    28   15   14 1    
    29   16   15 1    
    30   38   15 1    
    31   39   15 1    
    32   17   16 3    
    33   18   17 1    
    34   46   18 1    
    35   47   18 1    
    36   48   18 1    
    37   22   21 1    
    38   40   21 1    
    39   23   22 2    
    40   41   22 1    
    41   24   23 1    
    42   25   24 1    
    43   42   24 1    
    44   43   24 1    
    45   26   25 1    
    46   27   25 1    
    47   44   25 1    
    48   28   26 ar   
    49   29   26 ar   
    50   45   27 1    
    51   49   30 1    
    52   50   30 1    
    53   51   30 1    
@<TRIPOS>SUBSTRUCTURE
     1 7922        1 GROUP   
@<TRIPOS>SET

