#    Name: 1e3k_R18_2_INTS_M
#    Modification time : Mon Mar 24 22:48:11 2014

@<TRIPOS>MOLECULE
1e3k_R18_2_INTS_M
   63     0     6     0     0
SMALL
NO_CHARGES


@<TRIPOS>ATOM
      1 CA         13.2590   14.9870   32.2150 C.3       2 GLC5        0.0000 
      2 CA         13.4560   16.6490   31.6890 C.3       6 GLL5        0.0000 
      3 CA         13.0620   13.3250   32.7410 C.3       4 GLP5        0.0000 
      4 CA          9.4330   16.7700   31.0085 C.3       2 GLC5        0.0000 
      5 CA         11.3230   16.2550   30.4110 C.3       6 GLL5        0.0000 
      6 CA          7.5430   17.2850   31.6060 C.3       4 GLP5        0.0000 
      7 CA          9.2780   14.0740   28.3495 C.3       2 GLC5        0.0000 
      8 CA         11.2940   14.7570   28.4590 C.3       6 GLL5        0.0000 
      9 CA          7.2620   13.3910   28.2400 C.3       4 GLP5        0.0000 
     10 CA         10.5455   15.6130   26.0625 C.3       2 GLC5        0.0000 
     11 CA         12.1440   14.8720   27.1870 C.3       6 GLL5        0.0000 
     12 CA          8.9470   16.3540   24.9380 C.3       4 GLP5        0.0000 
     13 CA         14.0260   14.3315   30.6415 C.3       2 GLC5        0.0000 
     14 CA         13.4840   15.9340   29.2730 C.3       6 GLL5        0.0000 
     15 CA         14.5680   12.7290   32.0100 C.3       4 GLP5        0.0000 
     16 CA         12.0705   17.5235   28.9440 C.3       2 GLC5        0.0000 
     17 CA         10.6570   19.1130   28.6150 C.3       4 GLP5        0.0000 
     18 CA         18.2425   16.0615   28.0320 C.3       2 GLC5        0.0000 
     19 CA         16.4660   15.2820   27.1940 C.3       6 GLL5        0.0000 
     20 CA         20.0190   16.8410   28.8700 C.3       4 GLP5        0.0000 
     21 CA         12.4980   14.8745   23.2310 C.3       2 GLC5        0.0000 
     22 CA         13.9330   14.1360   24.6930 C.3       6 GLL5        0.0000 
     23 CA         11.0630   15.6130   21.7690 C.3       4 GLP5        0.0000 
     24 CA         12.3525   12.5780   24.3740 C.3       2 GLC5        0.0000 
     25 CA         10.7720   11.0200   24.0550 C.3       4 GLP5        0.0000 
     26 CA         15.7690   12.2025   23.4590 C.3       2 GLC5        0.0000 
     27 CA         15.2490   14.1060   23.8100 C.3       6 GLL5        0.0000 
     28 CA         16.2890   10.2990   23.1080 C.3       4 GLP5        0.0000 
     29 CA         16.2525   11.3895   27.5940 C.3       2 GLC5        0.0000 
     30 CA         16.1420   12.8860   26.2960 C.3       6 GLL5        0.0000 
     31 CA         16.3630    9.8930   28.8920 C.3       4 GLP5        0.0000 
     32 CA         15.0920   11.1990   26.2080 C.3       2 GLC5        0.0000 
     33 CA         14.0420    9.5120   26.1200 C.3       4 GLP5        0.0000 
     34 CA         16.9340   11.5750   25.2855 C.3       2 GLC5        0.0000 
     35 CA         17.7260   10.2640   24.2750 C.3       4 GLP5        0.0000 
     36 CA         17.6600   12.0235   27.5735 C.3       2 GLC5        0.0000 
     37 CA         19.1780   11.1610   28.8510 C.3       4 GLP5        0.0000 
     38 CA         16.6860   17.5535   22.8935 C.3       2 GLC5        0.0000 
     39 CA         16.6770   16.1770   24.2930 C.3       6 GLL5        0.0000 
     40 CA         16.6950   18.9300   21.4940 C.3       4 GLP5        0.0000 
     41 CA         16.6050   17.7260   25.7365 C.3       2 GLC5        0.0000 
     42 CA         16.5330   19.2750   27.1800 C.3       4 GLP5        0.0000 
     43 O          18.6625   14.9410   25.4230 O.2       1 ALC1        0.0000 
     44 O          17.6670   14.1970   24.7660 O.2       5 ALL1        0.0000 
     45 O          19.6580   15.6850   26.0800 O.2       3 ALP1        0.0000 
     46 CA         13.9683   18.2365   28.9475 C.3       2 GLC5        0.0000 
     47 CA         14.1940   20.0170   28.1250 C.3       4 GLP5        0.0000 
     48 CA         14.1732   18.4748   31.8630 C.3       2 GLC5        0.0000 
     49 CA         14.0010   16.9780   30.2670 C.3       6 GLL5        0.0000 
     50 CA         14.6180   20.1360   32.7480 C.3       4 GLP5        0.0000 
     51 CA         12.4162   18.2308   30.3945 C.3       2 GLC5        0.0000 
     52 CA         11.1040   19.6480   29.8110 C.3       4 GLP5        0.0000 
     53 CA         11.6898   13.9686   30.6136 C.3       2 GLC5        0.0000 
     54 CA         11.9000   12.5770   32.0440 C.3       4 GLP5        0.0000 
     55 CA         11.0683   17.2366   28.8991 C.3       2 GLC5        0.0000 
     56 CA         12.8500   12.6640   27.0832 C.3       2 GLC5        0.0000 
     57 CA         12.8330   10.6740   26.8980 C.3       4 GLP5        0.0000 
     58 CA         16.3060   17.3873   27.4327 C.3       2 GLC5        0.0000 
     59 CA         15.6920   15.7170   28.1770 C.3       6 GLL5        0.0000 
     60 CA         13.4808   12.5720   26.1283 C.3       2 GLC5        0.0000 
     61 CA         14.3240   14.8040   26.0240 C.3       6 GLL5        0.0000 
     62 CA         14.4565   14.2635   22.2673 C.3       2 GLC5        0.0000 
     63 CA         14.3220   14.4060   20.2830 C.3       4 GLP5        0.0000 
@<TRIPOS>BOND
@<TRIPOS>SUBSTRUCTURE
     1 ALC1       43 GROUP        1 X    ALC  0     ROOT ALC X 1
     2 GLC5        1 GROUP        1 X    GLC  0     **** GLC X 6
     3 ALP1       45 GROUP        1 Y    ALP  0     ROOT ALP Y 8
     4 GLP5        3 GROUP        1 Y    GLP  0     **** GLP Y 13
     5 ALL1       44 GROUP        1 Z    ALL  0     ROOT ALL Z 15
     6 GLL5        2 GROUP        1 Z    GLL  0     **** GLL Z 20
@<TRIPOS>SET

