#    Name: 1e3k_R18_2_ligand
#    Modification time : Mon Mar 24 22:48:11 2014

@<TRIPOS>MOLECULE
1e3k_R18_2_ligand
   45    48     1     0     0
SMALL
NO_CHARGES


@<TRIPOS>ATOM
      1 C1         14.0010   16.9780   30.2670 C.3       1 R181000     0.0000 
      2 C2         13.4560   16.6490   31.6890 C.3       1 R181000     0.0000 
      3 C3         11.9850   16.7380   31.6220 C.2       1 R181000     0.0000 
      4 C4         11.3230   16.2550   30.4110 C.2       1 R181000     0.0000 
      5 C5         12.0070   15.6720   29.4040 C.2       1 R181000     0.0000 
      6 C6         11.2940   14.7570   28.4590 C.3       1 R181000     0.0000 
      7 C7         12.1440   14.8720   27.1870 C.3       1 R181000     0.0000 
      8 C8         13.5900   14.4360   27.3500 C.3       1 R181000     0.0000 
      9 C9         14.2450   15.3980   28.3140 C.2       1 R181000     0.0000 
     10 C10        13.4840   15.9340   29.2730 C.2       1 R181000     0.0000 
     11 C11        15.6920   15.7170   28.1770 C.2       1 R181000     0.0000 
     12 C12        16.4660   15.2820   27.1940 C.2       1 R181000     0.0000 
     13 C13        15.7930   14.4070   26.1600 C.3       1 R181000     0.0000 
     14 C14        14.3240   14.8040   26.0240 C.3       1 R181000     0.0000 
     15 C15        13.9330   14.1360   24.6930 C.3       1 R181000     0.0000 
     16 C16        15.2490   14.1060   23.8100 C.3       1 R181000     0.0000 
     17 C17        16.3280   14.7080   24.7230 C.3       1 R181000     0.0000 
     18 C18        16.1420   12.8860   26.2960 C.3       1 R181000     0.0000 
     19 C27        16.6770   16.1770   24.2930 C.3       1 R181000     0.0000 
     20 O83        11.2150   17.1290   32.4310 O.2       1 R181000     0.0000 
     21 O97        17.6670   14.1970   24.7660 O.3       1 R181000     0.0000 
     22 H          15.0790   16.9535   30.2949 H         1 R181000     0.0000 
     23 H          13.6535   17.9582   29.9811 H         1 R181000     0.0000 
     24 H          13.8617   17.3715   32.3763 H         1 R181000     0.0000 
     25 H          13.7774   15.6544   31.9467 H         1 R181000     0.0000 
     26 H          10.2930   16.3867   30.3700 H         1 R181000     0.0000 
     27 H          10.3174   15.1105   28.2588 H         1 R181000     0.0000 
     28 H          11.3230   13.7591   28.8086 H         1 R181000     0.0000 
     29 H          12.1187   15.9217   26.8408 H         1 R181000     0.0000 
     30 H          11.6705   14.2673   26.3917 H         1 R181000     0.0000 
     31 H          13.7209   13.4866   27.5879 H         1 R181000     0.0000 
     32 H          16.0660   16.3364   28.9482 H         1 R181000     0.0000 
     33 H          17.4337   15.4665   27.0627 H         1 R181000     0.0000 
     34 H          14.3221   15.8794   25.8868 H         1 R181000     0.0000 
     35 H          13.2038   14.7207   24.1885 H         1 R181000     0.0000 
     36 H          13.6195   13.1353   24.8620 H         1 R181000     0.0000 
     37 H          15.0981   14.7182   22.9648 H         1 R181000     0.0000 
     38 H          15.4765   13.1015   23.5836 H         1 R181000     0.0000 
     39 H          17.1233   12.7200   26.1985 H         1 R181000     0.0000 
     40 H          15.8699   12.5207   27.1862 H         1 R181000     0.0000 
     41 H          15.6810   12.3355   25.6000 H         1 R181000     0.0000 
     42 H          17.3897   16.5739   24.8714 H         1 R181000     0.0000 
     43 H          17.0073   16.2194   23.3501 H         1 R181000     0.0000 
     44 H          15.8817   16.7802   24.3524 H         1 R181000     0.0000 
     45 H          18.1879   14.8792   25.2791 H         1 R181000     0.0000 
@<TRIPOS>BOND
     1    2    1 1    
     2   10    1 1    
     3   22    1 1    
     4   23    1 1    
     5    3    2 1    
     6   24    2 1    
     7   25    2 1    
     8    4    3 1    
     9   20    3 2    
    10    5    4 2    
    11   26    4 1    
    12    6    5 1    
    13   10    5 1    
    14    7    6 1    
    15   27    6 1    
    16   28    6 1    
    17    8    7 1    
    18   29    7 1    
    19   30    7 1    
    20    9    8 1    
    21   14    8 1    
    22   31    8 1    
    23   10    9 2    
    24   11    9 1    
    25   12   11 2    
    26   32   11 1    
    27   13   12 1    
    28   33   12 1    
    29   14   13 1    
    30   17   13 1    
    31   18   13 1    
    32   15   14 1    
    33   34   14 1    
    34   16   15 1    
    35   35   15 1    
    36   36   15 1    
    37   17   16 1    
    38   37   16 1    
    39   38   16 1    
    40   19   17 1    
    41   21   17 1    
    42   39   18 1    
    43   40   18 1    
    44   41   18 1    
    45   42   19 1    
    46   43   19 1    
    47   44   19 1    
    48   45   21 1    
@<TRIPOS>SUBSTRUCTURE
     1 R181000     1 GROUP   
@<TRIPOS>SET

