#    Name: 4awp_99A_1_INTS_M
#    Modification time : Tue Mar 25 06:19:31 2014

@<TRIPOS>MOLECULE
4awp_99A_1_INTS_M
   95     0     9     0     0
SMALL
NO_CHARGES


@<TRIPOS>ATOM
      1 CA         -8.1040  -21.9155  -19.8970 C.3       3 GLC5        0.0000 
      2 CA         -9.8730  -21.9070  -19.5100 C.3       9 GLL5        0.0000 
      3 CA         -6.3350  -21.9240  -20.2840 C.3       6 GLP5        0.0000 
      4 CA         -9.9345  -23.5225  -20.6985 C.3       3 GLC5        0.0000 
      5 CA         -9.9960  -25.1380  -21.8870 C.3       6 GLP5        0.0000 
      6 CA         -9.3805  -23.8060  -18.6305 C.3       3 GLC5        0.0000 
      7 CA         -8.8880  -25.7050  -17.7510 C.3       6 GLP5        0.0000 
      8 CA        -11.7665  -23.3765  -17.1750 C.3       3 GLC5        0.0000 
      9 CA        -10.7150  -21.6760  -17.1640 C.3       9 GLL5        0.0000 
     10 CA        -12.8180  -25.0770  -17.1860 C.3       6 GLP5        0.0000 
     11 CA         -9.8015  -23.6905  -17.4575 C.3       3 GLC5        0.0000 
     12 O         -11.4110  -23.6695  -13.4310 O.2       1 ALC1        0.0000 
     13 O         -11.0600  -22.6620  -14.3070 O.2       7 ALL1        0.0000 
     14 O         -11.7620  -24.6770  -12.5550 O.2       4 ALP1        0.0000 
     15 CA         -9.5650  -19.2440  -14.4340 C.3       3 GLC5        0.0000 
     16 CA        -11.3330  -18.6370  -14.8370 C.3       9 GLL5        0.0000 
     17 CA         -7.7970  -19.8510  -14.0310 C.3       6 GLP5        0.0000 
     18 CA        -12.5230  -19.4260  -13.2980 C.3       3 GLC5        0.0000 
     19 CA        -13.7130  -20.2150  -11.7590 C.3       6 GLP5        0.0000 
     20 CA        -11.2020  -17.2865  -20.2680 C.3       3 GLC5        0.0000 
     21 CA        -10.4420  -18.5540  -21.9250 C.3       9 GLL5        0.0000 
     22 CA        -11.9620  -16.0190  -18.6110 C.3       6 GLP5        0.0000 
     23 CA        -12.3985  -17.0185  -21.1500 C.3       3 GLC5        0.0000 
     24 CA        -11.8180  -18.5430  -22.6700 C.3       9 GLL5        0.0000 
     25 CA        -12.9790  -15.4940  -19.6300 C.3       6 GLP5        0.0000 
     26 CA         -8.6555  -16.5335  -21.8320 C.3       3 GLC5        0.0000 
     27 CA         -9.1470  -18.2840  -22.6780 C.3       9 GLL5        0.0000 
     28 CA         -8.1640  -14.7830  -20.9860 C.3       6 GLP5        0.0000 
     29 CA         -7.5455  -19.3565  -22.3970 C.3       3 GLC5        0.0000 
     30 CA         -5.9440  -20.4290  -22.1160 C.3       6 GLP5        0.0000 
     31 CA         -9.7950  -23.0250  -22.5580 C.3       3 GLC5        0.0000 
     32 CA         -9.5940  -20.9120  -23.2290 C.3       9 GLL5        0.0000 
     33 CA        -12.4420  -20.6335  -21.4280 C.3       3 GLC5        0.0000 
     34 CA        -11.1310  -20.9770  -23.2140 C.3       9 GLL5        0.0000 
     35 CA        -13.7530  -20.2900  -19.6420 C.3       6 GLP5        0.0000 
     36 CA        -11.0430  -16.1850  -25.3750 C.3       3 GLC5        0.0000 
     37 CA        -10.4570  -18.2910  -25.6250 C.3       9 GLL5        0.0000 
     38 CA        -11.6290  -14.0790  -25.1250 C.3       6 GLP5        0.0000 
     39 CA        -13.6610  -18.6985  -25.7290 C.3       3 GLC5        0.0000 
     40 CA        -11.6770  -17.9900  -26.2420 C.3       9 GLL5        0.0000 
     41 CA        -15.6450  -19.4070  -25.2160 C.3       6 GLP5        0.0000 
     42 CA        -12.3405  -16.3225  -25.4765 C.3       3 GLC5        0.0000 
     43 CA        -13.0040  -14.6550  -24.7110 C.3       6 GLP5        0.0000 
     44 N          -8.2575  -17.1905  -25.4565 N.am      2 SEC2        0.0000 
     45 N          -9.3210  -17.6980  -26.0690 N.am      8 SEL2        0.0000 
     46 N          -7.1940  -16.6830  -24.8440 N.am      5 SEP2        0.0000 
     47 CA         -7.2000  -16.5235  -27.5235 C.3       3 GLC5        0.0000 
     48 CA         -9.3170  -16.9190  -27.1330 C.3       9 GLL5        0.0000 
     49 CA         -5.0830  -16.1280  -27.9140 C.3       6 GLP5        0.0000 
     50 N          -8.7415  -14.6160  -30.5760 N.am      2 SEC2        0.0000 
     51 N          -9.3920  -15.2130  -29.4260 N.am      8 SEL2        0.0000 
     52 N          -8.0910  -14.0190  -31.7260 N.am      5 SEP2        0.0000 
     53 O         -13.0260  -15.7245  -29.4490 O.2       1 ALC1        0.0000 
     54 O         -11.6490  -15.5220  -29.6860 O.2       7 ALL1        0.0000 
     55 O         -14.4030  -15.9270  -29.2120 O.2       4 ALP1        0.0000 
     56 CA         -9.8530  -15.5405  -31.6560 C.3       3 GLC5        0.0000 
     57 CA        -11.7970  -14.7440  -30.9350 C.3       9 GLL5        0.0000 
     58 CA         -7.9090  -16.3370  -32.3770 C.3       6 GLP5        0.0000 
     59 CA        -11.5115  -16.7110  -30.8685 C.3       3 GLC5        0.0000 
     60 CA        -11.2260  -18.6780  -30.8020 C.3       6 GLP5        0.0000 
     61 CA         -9.5570  -12.5625  -31.8485 C.3       3 GLC5        0.0000 
     62 CA        -11.4130  -12.5030  -32.0050 C.3       9 GLL5        0.0000 
     63 CA         -7.7010  -12.6220  -31.6920 C.3       6 GLP5        0.0000 
     64 CA         -9.6185  -11.5665  -31.1310 C.3       3 GLC5        0.0000 
     65 CA        -11.3080  -11.1210  -31.9570 C.3       9 GLL5        0.0000 
     66 CA         -7.9290  -12.0120  -30.3050 C.3       6 GLP5        0.0000 
     67 CA         -9.5995  -10.4885  -30.4995 C.3       3 GLC5        0.0000 
     68 CA        -11.5520  -10.4630  -30.7400 C.3       9 GLL5        0.0000 
     69 CA         -7.6470  -10.5140  -30.2590 C.3       6 GLP5        0.0000 
     70 CA        -13.7025  -13.1915  -28.5690 C.3       3 GLC5        0.0000 
     71 CA        -11.9490  -12.5590  -29.6060 C.3       9 GLL5        0.0000 
     72 CA        -15.4560  -13.8240  -27.5320 C.3       6 GLP5        0.0000 
     73 CA        -11.8375  -21.6833  -18.8725 C.3       3 GLC5        0.0000 
     74 CA        -13.6200  -21.8960  -18.8370 C.3       6 GLP5        0.0000 
     75 CA        -12.2535  -21.5980  -17.7190 C.3       3 GLC5        0.0000 
     76 CA         -9.2631  -19.7003  -15.3130 C.3       3 GLC5        0.0000 
     77 CA        -10.4540  -18.8820  -17.1540 C.3       9 GLL5        0.0000 
     78 CA        -12.0143  -19.7700  -18.6833 C.3       3 GLC5        0.0000 
     79 CA        -11.1807  -17.7130  -18.0278 C.3       3 GLC5        0.0000 
     80 CA        -10.0970  -19.6180  -18.2950 C.3       9 GLL5        0.0000 
     81 CA        -12.4415  -19.4192  -20.9697 C.3       3 GLC5        0.0000 
     82 CA         -7.5430  -17.9960  -23.8230 C.3       3 GLC5        0.0000 
     83 CA         -5.9160  -17.1210  -24.4400 C.3       6 GLP5        0.0000 
     84 CA         -7.7932  -20.8315  -23.2613 C.3       3 GLC5        0.0000 
     85 CA         -9.1930  -19.4580  -23.7340 C.3       9 GLL5        0.0000 
     86 CA         -6.1930  -21.4780  -23.0410 C.3       6 GLP5        0.0000 
     87 CA         -9.2048  -20.9435  -25.0943 C.3       3 GLC5        0.0000 
     88 CA         -9.0160  -21.7020  -26.7070 C.3       6 GLP5        0.0000 
     89 CA        -13.1730  -21.0267  -23.3470 C.3       3 GLC5        0.0000 
     90 CA        -14.9750  -21.7530  -23.2040 C.3       6 GLP5        0.0000 
     91 CA        -10.8790  -21.1527  -25.0460 C.3       3 GLC5        0.0000 
     92 CA        -10.3870  -22.0050  -26.6020 C.3       6 GLP5        0.0000 
     93 CA        -10.9191  -15.4906  -26.2435 C.3       3 GLC5        0.0000 
     94 CA        -11.7010  -17.1650  -27.3590 C.3       9 GLL5        0.0000 
     95 CA         -9.8839  -12.0191  -30.0964 C.3       3 GLC5        0.0000 
@<TRIPOS>BOND
@<TRIPOS>SUBSTRUCTURE
     1 ALC1       12 GROUP        1 X    ALC  0     ROOT ALC X 1
     2 SEC2       44 GROUP        1 X    SEC  0     **** SEC X 2
     3 GLC5        1 GROUP        1 X    GLC  0     **** GLC X 6
     4 ALP1       14 GROUP        1 Y    ALP  0     ROOT ALP Y 8
     5 SEP2       46 GROUP        1 Y    SEP  0     **** SEP Y 9
     6 GLP5        3 GROUP        1 Y    GLP  0     **** GLP Y 13
     7 ALL1       13 GROUP        1 Z    ALL  0     ROOT ALL Z 15
     8 SEL2       45 GROUP        1 Z    SEL  0     **** SEL Z 16
     9 GLL5        2 GROUP        1 Z    GLL  0     **** GLL Z 20
@<TRIPOS>SET

