#    Name: 4awp_99A_1_ligand
#    Modification time : Tue Mar 25 06:19:31 2014

@<TRIPOS>MOLECULE
4awp_99A_1_ligand
   71    75     1     0     0
SMALL
NO_CHARGES


@<TRIPOS>ATOM
      1 C15        -9.8730  -21.9070  -19.5100 C.3       1 99A1224     0.0000 
      2 C8        -10.2370  -21.0340  -18.3060 C.ar      1 99A1224     0.0000 
      3 C9        -10.7150  -21.6760  -17.1640 C.ar      1 99A1224     0.0000 
      4 C10       -11.0590  -20.9240  -16.0380 C.ar      1 99A1224     0.0000 
      5 C14       -11.6930  -21.6410  -14.8590 C.2       1 99A1224     0.0000 
      6 O2        -12.8380  -21.2720  -14.5610 O.2       1 99A1224     0.0000 
      7 N2        -11.0600  -22.6620  -14.3070 N.am      1 99A1224     0.0000 
      8 C11       -10.9500  -19.5100  -16.0340 C.ar      1 99A1224     0.0000 
      9 C13       -11.3330  -18.6370  -14.8370 C.3       1 99A1224     0.0000 
     10 C12       -10.4540  -18.8820  -17.1540 C.ar      1 99A1224     0.0000 
     11 C7        -10.0970  -19.6180  -18.2950 C.ar      1 99A1224     0.0000 
     12 C6         -9.6140  -18.8190  -19.5350 C.2       1 99A1224     0.0000 
     13 O1         -8.7160  -17.9980  -19.5620 O.2       1 99A1224     0.0000 
     14 N1        -10.4410  -19.0370  -20.5670 N.am      1 99A1224     0.0000 
     15 C5        -10.4420  -18.5540  -21.9250 C.3       1 99A1224     0.0000 
     16 C30       -11.8180  -18.5430  -22.6700 C.3       1 99A1224     0.0000 
     17 C4         -9.1470  -18.2840  -22.6780 C.3       1 99A1224     0.0000 
     18 C1         -9.1930  -19.4580  -23.7340 C.3       1 99A1224     0.0000 
     19 C2         -9.5940  -20.9120  -23.2290 C.3       1 99A1224     0.0000 
     20 C3        -11.1310  -20.9770  -23.2140 C.3       1 99A1224     0.0000 
     21 C29       -11.6110  -19.6240  -23.7660 C.3       1 99A1224     0.0000 
     22 N3        -10.4160  -19.1230  -24.4860 N.3       1 99A1224     0.0000 
     23 C16       -10.4570  -18.2910  -25.6250 C.ar      1 99A1224     0.0000 
     24 C17       -11.6770  -17.9900  -26.2420 C.ar      1 99A1224     0.0000 
     25 C18       -11.7010  -17.1650  -27.3590 C.ar      1 99A1224     0.0000 
     26 N5         -9.3210  -17.6980  -26.0690 N.ar      1 99A1224     0.0000 
     27 C28        -9.3170  -16.9190  -27.1330 C.ar      1 99A1224     0.0000 
     28 C19       -10.5020  -16.6060  -27.8230 C.ar      1 99A1224     0.0000 
     29 C20       -10.4630  -15.6920  -29.0500 C.2       1 99A1224     0.0000 
     30 O3         -9.3920  -15.2130  -29.4260 O.2       1 99A1224     0.0000 
     31 N4        -11.6490  -15.5220  -29.6860 N.am      1 99A1224     0.0000 
     32 C21       -11.7970  -14.7440  -30.9350 C.3       1 99A1224     0.0000 
     33 C22       -11.7020  -13.2200  -30.8190 C.ar      1 99A1224     0.0000 
     34 C23       -11.4130  -12.5030  -32.0050 C.ar      1 99A1224     0.0000 
     35 C24       -11.3080  -11.1210  -31.9570 C.ar      1 99A1224     0.0000 
     36 C25       -11.5520  -10.4630  -30.7400 C.ar      1 99A1224     0.0000 
     37 C26       -11.8520  -11.1630  -29.5630 C.ar      1 99A1224     0.0000 
     38 C27       -11.9490  -12.5590  -29.6060 C.ar      1 99A1224     0.0000 
     39 H         -10.8140  -22.6961  -17.1497 H         1 99A1224     0.0000 
     40 H         -10.1859  -22.9143  -14.7221 H         1 99A1224     0.0000 
     41 H         -11.5127  -23.0893  -13.5244 H         1 99A1224     0.0000 
     42 H         -10.3382  -17.8537  -17.1671 H         1 99A1224     0.0000 
     43 H         -11.3040  -19.7180  -20.3705 H         1 99A1224     0.0000 
     44 H         -10.5897  -17.2248  -21.5449 H         1 99A1224     0.0000 
     45 H         -11.9622  -17.6068  -23.1179 H         1 99A1224     0.0000 
     46 H         -12.5722  -18.8475  -22.0095 H         1 99A1224     0.0000 
     47 H          -8.3213  -18.4270  -22.0600 H         1 99A1224     0.0000 
     48 H          -9.1962  -17.3777  -23.1884 H         1 99A1224     0.0000 
     49 H          -8.3902  -19.4759  -24.3426 H         1 99A1224     0.0000 
     50 H          -9.2089  -21.0402  -22.2441 H         1 99A1224     0.0000 
     51 H          -9.2006  -21.6236  -23.9172 H         1 99A1224     0.0000 
     52 H         -11.4737  -21.0961  -22.2122 H         1 99A1224     0.0000 
     53 H         -11.4616  -21.7618  -23.8544 H         1 99A1224     0.0000 
     54 H         -12.4082  -19.7072  -24.3807 H         1 99A1224     0.0000 
     55 H         -12.5481  -18.3801  -25.8664 H         1 99A1224     0.0000 
     56 H         -12.5788  -16.9643  -27.8409 H         1 99A1224     0.0000 
     57 H          -8.4273  -16.5036  -27.5041 H         1 99A1224     0.0000 
     58 H         -12.5308  -15.9415  -29.3152 H         1 99A1224     0.0000 
     59 H         -12.7790  -14.9876  -31.4176 H         1 99A1224     0.0000 
     60 H         -11.0288  -15.0767  -31.6805 H         1 99A1224     0.0000 
     61 H         -11.2853  -13.0107  -32.8812 H         1 99A1224     0.0000 
     62 H         -11.0584  -10.5841  -32.7863 H         1 99A1224     0.0000 
     63 H         -11.5085   -9.4257  -30.7127 H         1 99A1224     0.0000 
     64 H         -11.9974  -10.6616  -28.6882 H         1 99A1224     0.0000 
     65 H         -12.1945  -13.0871  -28.7721 H         1 99A1224     0.0000 
     66 H          -9.5442  -21.3598  -20.2797 H         1 99A1224     0.0000 
     67 H          -9.1522  -22.5637  -19.2882 H         1 99A1224     0.0000 
     68 H         -10.6577  -22.4328  -19.8383 H         1 99A1224     0.0000 
     69 H         -10.7938  -18.8621  -14.0255 H         1 99A1224     0.0000 
     70 H         -11.1886  -17.6654  -15.0246 H         1 99A1224     0.0000 
     71 H         -12.2955  -18.7478  -14.5894 H         1 99A1224     0.0000 
@<TRIPOS>BOND
     1    2    1 1    
     2   66    1 1    
     3   67    1 1    
     4   68    1 1    
     5    3    2 ar   
     6   11    2 ar   
     7    4    3 ar   
     8   39    3 1    
     9    5    4 1    
    10    8    4 ar   
    11    6    5 2    
    12    7    5 am   
    13   40    7 1    
    14   41    7 1    
    15    9    8 1    
    16   10    8 ar   
    17   69    9 1    
    18   70    9 1    
    19   71    9 1    
    20   11   10 ar   
    21   42   10 1    
    22   12   11 1    
    23   13   12 2    
    24   14   12 am   
    25   15   14 1    
    26   43   14 1    
    27   16   15 1    
    28   17   15 1    
    29   44   15 1    
    30   21   16 1    
    31   45   16 1    
    32   46   16 1    
    33   18   17 1    
    34   47   17 1    
    35   48   17 1    
    36   19   18 1    
    37   22   18 1    
    38   49   18 1    
    39   20   19 1    
    40   50   19 1    
    41   51   19 1    
    42   21   20 1    
    43   52   20 1    
    44   53   20 1    
    45   22   21 1    
    46   54   21 1    
    47   23   22 1    
    48   24   23 ar   
    49   26   23 ar   
    50   25   24 ar   
    51   55   24 1    
    52   28   25 ar   
    53   56   25 1    
    54   27   26 ar   
    55   28   27 ar   
    56   57   27 1    
    57   29   28 1    
    58   30   29 2    
    59   31   29 am   
    60   32   31 1    
    61   58   31 1    
    62   33   32 1    
    63   59   32 1    
    64   60   32 1    
    65   34   33 ar   
    66   38   33 ar   
    67   35   34 ar   
    68   61   34 1    
    69   36   35 ar   
    70   62   35 1    
    71   37   36 ar   
    72   63   36 1    
    73   38   37 ar   
    74   64   37 1    
    75   65   38 1    
@<TRIPOS>SUBSTRUCTURE
     1 99A1224     1 GROUP   
@<TRIPOS>SET

