#    Name: 1ebz_BEC_1_INTS_M
#    Modification time : Mon Mar 24 23:24:52 2014

@<TRIPOS>MOLECULE
1ebz_BEC_1_INTS_M
  108     0     9     0     0
SMALL
NO_CHARGES


@<TRIPOS>ATOM
      1 CA         17.7085   24.3190    8.2610 C.3       3 GLC5        0.0000 
      2 CA         15.6530   23.4230    8.2230 C.3       9 GLL5        0.0000 
      3 CA         19.7640   25.2150    8.2990 C.3       6 GLP5        0.0000 
      4 CA         12.9510   26.4690    3.3365 C.3       3 GLC5        0.0000 
      5 CA         12.1520   24.6650    4.3340 C.3       9 GLL5        0.0000 
      6 CA         13.7500   28.2730    2.3390 C.3       6 GLP5        0.0000 
      7 O          10.9705   26.7910    4.3820 O.2       1 ALC1        0.0000 
      8 O          10.3370   25.8620    5.4890 O.2       7 ALL1        0.0000 
      9 O          11.6040   27.7200    3.2750 O.2       4 ALP1        0.0000 
     10 CA         11.8830   22.6925    1.1155 C.3       3 GLC5        0.0000 
     11 CA         11.2600   24.0120    2.1290 C.3       9 GLL5        0.0000 
     12 CA         12.5060   21.3730    0.1020 C.3       6 GLP5        0.0000 
     13 N          15.3590   26.3445    4.5240 N.am      2 SEC2        0.0000 
     14 N          14.6290   25.1940    4.3310 N.am      8 SEL2        0.0000 
     15 N          16.0890   27.4950    4.7170 N.am      5 SEP2        0.0000 
     16 O          14.6570   24.9590    3.0305 O.2       1 ALC1        0.0000 
     17 O          14.6290   25.1940    4.3310 O.2       7 ALL1        0.0000 
     18 O          14.6850   24.7240    1.7300 O.2       4 ALP1        0.0000 
     19 O          14.5865   23.7380    2.6505 O.2       1 ALC1        0.0000 
     20 O          14.4880   22.7520    3.5710 O.2       7 ALL1        0.0000 
     21 O          17.4045   21.9050    5.3485 O.2       1 ALC1        0.0000 
     22 O          16.4220   20.6990    5.5050 O.2       7 ALL1        0.0000 
     23 O          18.3870   23.1110    5.1920 O.2       4 ALP1        0.0000 
     24 CA         16.7910   15.8975    3.6070 C.3       3 GLC5        0.0000 
     25 CA         17.6880   17.8480    3.6580 C.3       9 GLL5        0.0000 
     26 CA         15.8940   13.9470    3.5560 C.3       6 GLP5        0.0000 
     27 CA         13.6425   19.2085    3.1055 C.3       3 GLC5        0.0000 
     28 CA         15.8680   19.3060    2.8900 C.3       9 GLL5        0.0000 
     29 CA         11.4170   19.1110    3.3210 C.3       6 GLP5        0.0000 
     30 N          19.7105   20.2395    4.0490 N.am      2 SEC2        0.0000 
     31 N          19.0750   19.8480    5.4190 N.am      8 SEL2        0.0000 
     32 N          20.3460   20.6310    2.6790 N.am      5 SEP2        0.0000 
     33 O          20.5560   19.1575    5.4760 O.2       1 ALC1        0.0000 
     34 O          19.0750   19.8480    5.4190 O.2       7 ALL1        0.0000 
     35 O          22.0370   18.4670    5.5330 O.2       4 ALP1        0.0000 
     36 CA         17.3985   15.4030    2.4590 C.3       3 GLC5        0.0000 
     37 CA         17.8370   17.2720    2.3640 C.3       9 GLL5        0.0000 
     38 CA         16.9600   13.5340    2.5540 C.3       6 GLP5        0.0000 
     39 CA         20.2580   18.2275    4.0645 C.3       3 GLC5        0.0000 
     40 CA         18.4690   17.5380    4.9150 C.3       9 GLL5        0.0000 
     41 CA         22.0470   18.9170    3.2140 C.3       6 GLP5        0.0000 
     42 CA         10.6210   27.6300    6.0115 C.3       3 GLC5        0.0000 
     43 CA          9.2230   26.0330    6.4170 C.3       9 GLL5        0.0000 
     44 CA         12.0190   29.2270    5.6060 C.3       6 GLP5        0.0000 
     45 CA          8.4255   29.6715    9.3300 C.3       3 GLC5        0.0000 
     46 CA          8.6010   27.6850    8.4190 C.3       9 GLL5        0.0000 
     47 CA          8.2500   31.6580   10.2410 C.3       6 GLP5        0.0000 
     48 CA          7.9820   26.8890   10.4030 C.3       3 GLC5        0.0000 
     49 CA          7.3630   26.0930   12.3870 C.3       6 GLP5        0.0000 
     50 CA         12.5960   25.9485    9.5895 C.3       3 GLC5        0.0000 
     51 CA         10.8780   26.5090    8.4220 C.3       9 GLL5        0.0000 
     52 CA         14.3140   25.3880   10.7570 C.3       6 GLP5        0.0000 
     53 CA         11.1270   24.6425    9.2605 C.3       3 GLC5        0.0000 
     54 CA         11.3760   22.7760   10.0990 C.3       6 GLP5        0.0000 
     55 N           9.3655   29.2850    5.3610 N.am      2 SEC2        0.0000 
     56 N           8.7460   28.0030    5.1260 N.am      8 SEL2        0.0000 
     57 N           9.9850   30.5670    5.5960 N.am      5 SEP2        0.0000 
     58 O           6.7090   25.2490    6.1570 O.2       1 ALC1        0.0000 
     59 O           6.9590   26.6040    5.6740 O.2       7 ALL1        0.0000 
     60 O           6.4590   23.8940    6.6400 O.2       4 ALP1        0.0000 
     61 CA          6.8665   29.5135    5.2145 C.3       3 GLC5        0.0000 
     62 CA          6.0160   27.4650    4.9860 C.3       9 GLL5        0.0000 
     63 CA          7.7170   31.5620    5.4430 C.3       6 GLP5        0.0000 
     64 CA          8.1420   24.3797    0.4965 C.3       3 GLC5        0.0000 
     65 CA          7.7780   25.6490    1.9890 C.3       9 GLL5        0.0000 
     66 CA          8.9170   23.6240   -1.2720 C.3       6 GLP5        0.0000 
     67 CA          8.1567   22.4857    4.6253 C.3       3 GLC5        0.0000 
     68 CA          7.5370   23.3920    2.9570 C.3       9 GLL5        0.0000 
     69 CA          8.0740   21.6790    6.3630 C.3       6 GLP5        0.0000 
     70 CA          8.5783   23.4582    0.8077 C.3       3 GLC5        0.0000 
     71 CA          6.9421   22.2125    1.8927 C.3       3 GLC5        0.0000 
     72 CA          8.9420   23.1930    2.8180 C.3       9 GLL5        0.0000 
     73 CA          5.7900   20.8250    1.0020 C.3       6 GLP5        0.0000 
     74 CA         15.1792   24.1043    9.6212 C.3       3 GLC5        0.0000 
     75 CA         16.4360   22.2180    8.7480 C.3       9 GLL5        0.0000 
     76 CA         14.6285   19.4010    8.8310 C.3       3 GLC5        0.0000 
     77 CA         16.4880   20.0480    9.9520 C.3       9 GLL5        0.0000 
     78 CA         13.1350   18.1860    7.9460 C.3       6 GLP5        0.0000 
     79 CA         17.4387   21.4935   10.9268 C.3       3 GLC5        0.0000 
     80 CA         17.6910   22.9890   12.0320 C.3       6 GLP5        0.0000 
     81 CA         16.0063   19.9495   11.4047 C.3       3 GLC5        0.0000 
     82 CA         17.8850   19.9480    9.6910 C.3       9 GLL5        0.0000 
     83 CA         15.0090   19.6170   13.1060 C.3       6 GLP5        0.0000 
     84 CA         18.9795   23.3760    8.5140 C.3       3 GLC5        0.0000 
     85 CA         18.5560   20.9680    8.9670 C.3       9 GLL5        0.0000 
     86 CA         17.9430   22.2630   10.3805 C.3       3 GLC5        0.0000 
     87 CA         17.8340   22.1060    8.4910 C.3       9 GLL5        0.0000 
     88 CA         16.7828   22.7755   10.3503 C.3       3 GLC5        0.0000 
     89 CA         15.7560   21.1840    9.4800 C.3       9 GLL5        0.0000 
     90 CA         10.9635   25.7349    0.7883 C.3       3 GLC5        0.0000 
     91 CA         11.5620   27.0460   -0.5170 C.3       6 GLP5        0.0000 
     92 CA          9.6410   24.0239    0.4107 C.3       3 GLC5        0.0000 
     93 CA          9.1790   25.4450    1.8530 C.3       9 GLL5        0.0000 
     94 CA         17.6462   20.6675    3.6065 C.3       3 GLC5        0.0000 
     95 CA         16.7260   18.8500    3.9360 C.3       9 GLL5        0.0000 
     96 CA         18.5410   22.2620    2.5530 C.3       6 GLP5        0.0000 
     97 CA         15.7890   17.5008    0.1075 C.3       3 GLC5        0.0000 
     98 CA         15.9940   18.7440    1.5810 C.3       9 GLL5        0.0000 
     99 CA         15.0920   16.7640   -1.2390 C.3       6 GLP5        0.0000 
    100 CA         15.4310   16.5427    1.5885 C.3       3 GLC5        0.0000 
    101 CA         16.9780   17.7310    1.3270 C.3       9 GLL5        0.0000 
    102 CA         14.3760   14.8480    1.7230 C.3       6 GLP5        0.0000 
    103 CA         17.0008   20.2790    1.5861 C.3       3 GLC5        0.0000 
    104 CA         17.5470   22.1800    1.3910 C.3       6 GLP5        0.0000 
    105 CA         18.6713   17.1668    0.6218 C.3       3 GLC5        0.0000 
    106 CA         19.9350   16.8320   -0.6020 C.3       6 GLP5        0.0000 
    107 CA         11.4458   27.7473    7.5580 C.3       3 GLC5        0.0000 
    108 CA         12.7570   29.0280    6.9280 C.3       6 GLP5        0.0000 
@<TRIPOS>BOND
@<TRIPOS>SUBSTRUCTURE
     1 ALC1        7 GROUP        1 X    ALC  0     ROOT ALC X 1
     2 SEC2       13 GROUP        1 X    SEC  0     **** SEC X 2
     3 GLC5        1 GROUP        1 X    GLC  0     **** GLC X 6
     4 ALP1        9 GROUP        1 Y    ALP  0     ROOT ALP Y 8
     5 SEP2       15 GROUP        1 Y    SEP  0     **** SEP Y 9
     6 GLP5        3 GROUP        1 Y    GLP  0     **** GLP Y 13
     7 ALL1        8 GROUP        1 Z    ALL  0     ROOT ALL Z 15
     8 SEL2       14 GROUP        1 Z    SEL  0     **** SEL Z 16
     9 GLL5        2 GROUP        1 Z    GLL  0     **** GLL Z 20
@<TRIPOS>SET

