#    Name: 1ebz_BEC_1_ligand
#    Modification time : Mon Mar 24 23:24:52 2014

@<TRIPOS>MOLECULE
1ebz_BEC_1_ligand
   89    92     1     0     0
SMALL
NO_CHARGES


@<TRIPOS>ATOM
      1 C23         9.7610   24.2260    2.2630 C.ar      1 BEC501      0.0000 
      2 C24         9.1790   25.4450    1.8530 C.ar      1 BEC501      0.0000 
      3 C25         7.7780   25.6490    1.9890 C.ar      1 BEC501      0.0000 
      4 C26         6.9560   24.6220    2.5410 C.ar      1 BEC501      0.0000 
      5 C27         7.5370   23.3920    2.9570 C.ar      1 BEC501      0.0000 
      6 C28         8.9420   23.1930    2.8180 C.ar      1 BEC501      0.0000 
      7 C33        16.4360   22.2180    8.7480 C.ar      1 BEC501      0.0000 
      8 C34        15.7560   21.1840    9.4800 C.ar      1 BEC501      0.0000 
      9 C35        16.4880   20.0480    9.9520 C.ar      1 BEC501      0.0000 
     10 C36        17.8850   19.9480    9.6910 C.ar      1 BEC501      0.0000 
     11 C37        18.5560   20.9680    8.9670 C.ar      1 BEC501      0.0000 
     12 C38        17.8340   22.1060    8.4910 C.ar      1 BEC501      0.0000 
     13 C32        15.6530   23.4230    8.2230 C.3       1 BEC501      0.0000 
     14 O31        14.6060   23.0810    7.2720 O.3       1 BEC501      0.0000 
     15 C9         15.0820   22.6700    5.9440 C.3       1 BEC501      0.0000 
     16 C7         13.9900   23.0200    4.9360 C.3       1 BEC501      0.0000 
     17 C5         13.5660   24.4580    4.9970 C.3       1 BEC501      0.0000 
     18 C4         12.1520   24.6650    4.3340 C.3       1 BEC501      0.0000 
     19 C2         11.0080   24.7130    5.3480 C.2       1 BEC501      0.0000 
     20 O3         10.7460   23.6860    5.9880 O.2       1 BEC501      0.0000 
     21 N1         10.3370   25.8620    5.4890 N.am      1 BEC501      0.0000 
     22 O21        11.8960   23.5860    3.3560 O.3       1 BEC501      0.0000 
     23 C22        11.2600   24.0120    2.1290 C.3       1 BEC501      0.0000 
     24 O6         14.6290   25.1940    4.3310 O.3       1 BEC501      0.0000 
     25 O8         14.4880   22.7520    3.5710 O.3       1 BEC501      0.0000 
     26 C10        15.2540   21.1910    5.8510 C.2       1 BEC501      0.0000 
     27 O11        14.2730   20.5030    6.1260 O.2       1 BEC501      0.0000 
     28 N12        16.4220   20.6990    5.5050 N.am      1 BEC501      0.0000 
     29 C51        16.7770   19.2960    5.3840 C.3       1 BEC501      0.0000 
     30 C52        16.7260   18.8500    3.9360 C.ar      1 BEC501      0.0000 
     31 C57        17.6880   17.8480    3.6580 C.ar      1 BEC501      0.0000 
     32 C53        15.8680   19.3060    2.8900 C.ar      1 BEC501      0.0000 
     33 C54        15.9940   18.7440    1.5810 C.ar      1 BEC501      0.0000 
     34 C55        16.9780   17.7310    1.3270 C.ar      1 BEC501      0.0000 
     35 C59        18.1720   18.8000    5.7720 C.3       1 BEC501      0.0000 
     36 O60        19.0750   19.8480    5.4190 O.3       1 BEC501      0.0000 
     37 C56        17.8370   17.2720    2.3640 C.ar      1 BEC501      0.0000 
     38 C58        18.4690   17.5380    4.9150 C.3       1 BEC501      0.0000 
     39 C41         9.2230   26.0330    6.4170 C.3       1 BEC501      0.0000 
     40 C42         9.3910   26.4240    7.9540 C.3       1 BEC501      0.0000 
     41 C43         8.6010   27.6850    8.4190 C.3       1 BEC501      0.0000 
     42 C44        10.8780   26.5090    8.4220 C.3       1 BEC501      0.0000 
     43 C45         8.2840   26.9760    5.6730 C.2       1 BEC501      0.0000 
     44 O46         8.7460   28.0030    5.1260 O.2       1 BEC501      0.0000 
     45 N47         6.9590   26.6040    5.6740 N.am      1 BEC501      0.0000 
     46 C48         6.0160   27.4650    4.9860 C.3       1 BEC501      0.0000 
     47 H           9.7607   26.1844    1.4576 H         1 BEC501      0.0000 
     48 H           7.3596   26.5280    1.6927 H         1 BEC501      0.0000 
     49 H           5.9544   24.7710    2.6364 H         1 BEC501      0.0000 
     50 H           6.9560   22.6593    3.3507 H         1 BEC501      0.0000 
     51 H           9.3640   22.3167    3.1131 H         1 BEC501      0.0000 
     52 H          14.7631   21.2617    9.6595 H         1 BEC501      0.0000 
     53 H          16.0109   19.3183   10.4703 H         1 BEC501      0.0000 
     54 H          18.4048   19.1365   10.0279 H         1 BEC501      0.0000 
     55 H          19.5551   20.8928    8.7838 H         1 BEC501      0.0000 
     56 H          18.3168   22.8319    7.9714 H         1 BEC501      0.0000 
     57 H          16.3819   24.1259    7.7665 H         1 BEC501      0.0000 
     58 H          15.2267   23.9560    9.0994 H         1 BEC501      0.0000 
     59 H          15.9661   23.1683    5.6662 H         1 BEC501      0.0000 
     60 H          13.1309   22.3882    5.1228 H         1 BEC501      0.0000 
     61 H          13.4991   24.7488    6.0326 H         1 BEC501      0.0000 
     62 H          12.1831   25.6195    3.8063 H         1 BEC501      0.0000 
     63 H          10.5860   26.7136    4.9260 H         1 BEC501      0.0000 
     64 H          11.7073   24.9607    1.7629 H         1 BEC501      0.0000 
     65 H          11.4261   23.2679    1.3209 H         1 BEC501      0.0000 
     66 H          17.2407   21.3676    5.2753 H         1 BEC501      0.0000 
     67 H          16.0573   18.6408    5.8999 H         1 BEC501      0.0000 
     68 H          15.1758   20.0211    3.0722 H         1 BEC501      0.0000 
     69 H          15.3889   19.0600    0.8308 H         1 BEC501      0.0000 
     70 H          17.0586   17.3376    0.3875 H         1 BEC501      0.0000 
     71 H          18.1861   18.5526    6.7821 H         1 BEC501      0.0000 
     72 H          18.5262   16.5649    2.1900 H         1 BEC501      0.0000 
     73 H          19.4977   17.4965    4.7127 H         1 BEC501      0.0000 
     74 H          18.0743   16.6951    5.3995 H         1 BEC501      0.0000 
     75 H           8.6330   25.0453    6.4147 H         1 BEC501      0.0000 
     76 H           8.9491   25.5563    8.5367 H         1 BEC501      0.0000 
     77 H           6.6218   25.7717    6.1255 H         1 BEC501      0.0000 
     78 H           8.7465   27.8774    9.3895 H         1 BEC501      0.0000 
     79 H           8.8761   28.5029    7.9136 H         1 BEC501      0.0000 
     80 H           7.6159   27.5759    8.2863 H         1 BEC501      0.0000 
     81 H          11.3548   25.6379    8.3043 H         1 BEC501      0.0000 
     82 H          11.3908   27.1958    7.9068 H         1 BEC501      0.0000 
     83 H          10.9496   26.7540    9.3889 H         1 BEC501      0.0000 
     84 H           6.0032   28.3866    5.3739 H         1 BEC501      0.0000 
     85 H           6.2382   27.5586    4.0155 H         1 BEC501      0.0000 
     86 H           5.0822   27.1112    5.0401 H         1 BEC501      0.0000 
     87 H          14.5263   24.9754    3.3606 H         1 BEC501      0.0000 
     88 H          14.4996   23.6445    3.1200 H         1 BEC501      0.0000 
     89 H          19.9806   19.4240    5.4305 H         1 BEC501      0.0000 
@<TRIPOS>BOND
     1    2    1 ar   
     2    6    1 ar   
     3   23    1 1    
     4    3    2 ar   
     5   47    2 1    
     6    4    3 ar   
     7   48    3 1    
     8    5    4 ar   
     9   49    4 1    
    10    6    5 ar   
    11   50    5 1    
    12   51    6 1    
    13    8    7 ar   
    14   12    7 ar   
    15   13    7 1    
    16    9    8 ar   
    17   52    8 1    
    18   10    9 ar   
    19   53    9 1    
    20   11   10 ar   
    21   54   10 1    
    22   12   11 ar   
    23   55   11 1    
    24   56   12 1    
    25   14   13 1    
    26   57   13 1    
    27   58   13 1    
    28   15   14 1    
    29   16   15 1    
    30   26   15 1    
    31   59   15 1    
    32   17   16 1    
    33   25   16 1    
    34   60   16 1    
    35   18   17 1    
    36   24   17 1    
    37   61   17 1    
    38   19   18 1    
    39   22   18 1    
    40   62   18 1    
    41   20   19 2    
    42   21   19 am   
    43   39   21 1    
    44   63   21 1    
    45   23   22 1    
    46   64   23 1    
    47   65   23 1    
    48   87   24 1    
    49   88   25 1    
    50   27   26 2    
    51   28   26 am   
    52   29   28 1    
    53   66   28 1    
    54   30   29 1    
    55   35   29 1    
    56   67   29 1    
    57   31   30 ar   
    58   32   30 ar   
    59   37   31 ar   
    60   38   31 1    
    61   33   32 ar   
    62   68   32 1    
    63   34   33 ar   
    64   69   33 1    
    65   37   34 ar   
    66   70   34 1    
    67   36   35 1    
    68   38   35 1    
    69   71   35 1    
    70   89   36 1    
    71   72   37 1    
    72   73   38 1    
    73   74   38 1    
    74   40   39 1    
    75   43   39 1    
    76   75   39 1    
    77   41   40 1    
    78   42   40 1    
    79   76   40 1    
    80   78   41 1    
    81   79   41 1    
    82   80   41 1    
    83   81   42 1    
    84   82   42 1    
    85   83   42 1    
    86   44   43 2    
    87   45   43 am   
    88   46   45 1    
    89   77   45 1    
    90   84   46 1    
    91   85   46 1    
    92   86   46 1    
@<TRIPOS>SUBSTRUCTURE
     1 BEC501      1 GROUP   
@<TRIPOS>SET

