#    Name: 3be2_RAJ_1_INTS_M
#    Modification time : Mon Mar 24 19:19:17 2014

@<TRIPOS>MOLECULE
3be2_RAJ_1_INTS_M
  106     0    12     0     0
SMALL
NO_CHARGES


@<TRIPOS>ATOM
      1 CA         38.5635   40.2015   13.6825 C.3       4 GLC5        0.0000 
      2 CA         37.7300   40.0880   15.3620 C.3      12 GLL5        0.0000 
      3 CA         39.3970   40.3150   12.0030 C.3       8 GLP5        0.0000 
      4 OD1        36.0675   39.5245   14.9255 O.co2     3 ASC3        0.0000 
      5 OD1        37.5900   38.7530   15.9600 O.co2    11 ASL3        0.0000 
      6 OD1        34.5450   40.2960   13.8910 O.co2     7 ASP3        0.0000 
      7 CA         38.8520   39.0325   13.5770 C.3       4 GLC5        0.0000 
      8 CA         38.3070   37.7500   15.1510 C.3      12 GLL5        0.0000 
      9 CA         35.1720   38.4240   14.2575 C.3       4 GLC5        0.0000 
     10 CA         36.1470   38.4420   16.0550 C.3      12 GLL5        0.0000 
     11 CA         34.1970   38.4060   12.4600 C.3       8 GLP5        0.0000 
     12 CA         33.3845   36.2130   18.9600 C.3       4 GLC5        0.0000 
     13 CA         34.4720   36.9410   17.1690 C.3      12 GLL5        0.0000 
     14 CA         32.2970   35.4850   20.7510 C.3       8 GLP5        0.0000 
     15 CA         36.3050   34.5225   16.3195 C.3       4 GLC5        0.0000 
     16 CA         34.9740   35.2590   15.2700 C.3      12 GLL5        0.0000 
     17 CA         37.6360   33.7860   17.3690 C.3       8 GLP5        0.0000 
     18 CA         28.6545   37.1500   13.5130 C.3       4 GLC5        0.0000 
     19 CA         30.7630   36.9920   13.0440 C.3      12 GLL5        0.0000 
     20 CA         26.5460   37.3080   13.9820 C.3       8 GLP5        0.0000 
     21 CA         30.1880   38.4430   12.4800 C.3       4 GLC5        0.0000 
     22 CA         29.6130   39.8940   11.9160 C.3       8 GLP5        0.0000 
     23 CA         29.5365   37.0110   11.5395 C.3       4 GLC5        0.0000 
     24 CA         28.3100   37.0300   10.0350 C.3       8 GLP5        0.0000 
     25 CA         29.6465   35.1810   16.4770 C.3       4 GLC5        0.0000 
     26 CA         29.9520   35.7200   14.5600 C.3      12 GLL5        0.0000 
     27 CA         29.3410   34.6420   18.3940 C.3       8 GLP5        0.0000 
     28 CA         28.2490   36.5140   14.2710 C.3       4 GLC5        0.0000 
     29 CA         31.4095   33.1105   11.9320 C.3       4 GLC5        0.0000 
     30 CA         30.5610   34.9300   12.7110 C.3      12 GLL5        0.0000 
     31 CA         32.2580   31.2910   11.1530 C.3       8 GLP5        0.0000 
     32 CA         29.4355   35.9800   11.3730 C.3       4 GLC5        0.0000 
     33 CA         32.7520   33.0190   12.3730 C.3       4 GLC5        0.0000 
     34 CA         33.2460   34.7470   13.5930 C.3      12 GLL5        0.0000 
     35 CA         32.7375   35.0730   11.5695 C.3       4 GLC5        0.0000 
     36 CA         32.2290   35.3990    9.5460 C.3       8 GLP5        0.0000 
     37 O          36.6850   33.7110   14.2515 O.2       1 ALC1        0.0000 
     38 O          35.4630   33.6860   13.4890 O.2       9 ALL1        0.0000 
     39 O          37.9070   33.7360   15.0140 O.2       5 ALP1        0.0000 
     40 N          34.3425   35.3600   10.9840 N.am      2 SEC2        0.0000 
     41 N          34.7740   33.9910   11.3270 N.am     10 SEL2        0.0000 
     42 N          33.9110   36.7290   10.6410 N.am      6 SEP2        0.0000 
     43 CA         35.9675   31.2930   14.5310 C.3       4 GLC5        0.0000 
     44 CA         37.1270   31.6410   12.7620 C.3      12 GLL5        0.0000 
     45 CA         34.8080   30.9450   16.3000 C.3       8 GLP5        0.0000 
     46 CA         38.2120   29.4650   14.1945 C.3       4 GLC5        0.0000 
     47 CA         38.0250   30.5840   12.3700 C.3      12 GLL5        0.0000 
     48 CA         38.3990   28.3460   16.0190 C.3       8 GLP5        0.0000 
     49 CA         40.5675   29.5445    9.2825 C.3       4 GLC5        0.0000 
     50 CA         39.0620   29.2380   10.5240 C.3      12 GLL5        0.0000 
     51 CA         42.0730   29.8510    8.0410 C.3       8 GLP5        0.0000 
     52 CA         38.8615   28.0560    9.0450 C.3       4 GLC5        0.0000 
     53 CA         38.6610   26.8740    7.5660 C.3       8 GLP5        0.0000 
     54 CA         40.5200   27.5405   10.5985 C.3       4 GLC5        0.0000 
     55 CA         41.9780   25.8430   10.6730 C.3       8 GLP5        0.0000 
     56 CA         41.6575   32.4825    8.4840 C.3       4 GLC5        0.0000 
     57 CA         40.2340   33.1760    7.7000 C.3      12 GLL5        0.0000 
     58 CA         43.0810   31.7890    9.2680 C.3       8 GLP5        0.0000 
     59 CA         40.9770   30.8655    4.7595 C.3       4 GLC5        0.0000 
     60 CA         39.5100   31.9450    5.6730 C.3      12 GLL5        0.0000 
     61 CA         42.4440   29.7860    3.8460 C.3       8 GLP5        0.0000 
     62 CA         34.9260   27.8605    3.1795 C.3       4 GLC5        0.0000 
     63 CA         36.8000   28.7880    3.8300 C.3      12 GLL5        0.0000 
     64 CA         33.0520   26.9330    2.5290 C.3       8 GLP5        0.0000 
     65 N          34.9635   27.2855    4.1045 N.am      2 SEC2        0.0000 
     66 N          35.9330   28.1540    4.6950 N.am     10 SEL2        0.0000 
     67 N          33.9940   26.4170    3.5140 N.am      6 SEP2        0.0000 
     68 CA         37.2615   27.6430    6.8000 C.3       4 GLC5        0.0000 
     69 CA         35.8620   28.4120    6.0340 C.3      12 GLL5        0.0000 
     70 CA         35.4320   26.6045    5.5210 C.3       4 GLC5        0.0000 
     71 CA         35.0020   24.7970    5.0080 C.3       8 GLP5        0.0000 
     72 CA         33.8025   28.3080    5.3375 C.3       4 GLC5        0.0000 
     73 CA         31.7430   28.2040    4.6410 C.3       8 GLP5        0.0000 
     74 CA         35.0265   29.9215    5.5875 C.3       4 GLC5        0.0000 
     75 CA         34.1910   31.4310    5.1410 C.3       8 GLP5        0.0000 
     76 CA         36.4180   35.4730   17.2555 C.3       4 GLC5        0.0000 
     77 CA         33.5307   33.8560   15.9355 C.3       4 GLC5        0.0000 
     78 CA         32.5430   32.0050   16.2700 C.3       8 GLP5        0.0000 
     79 CA         34.3577   37.0565   14.0305 C.3       4 GLC5        0.0000 
     80 CA         32.5270   33.9938   15.5408 C.3       4 GLC5        0.0000 
     81 CA         32.7310   36.3350   15.4060 C.3      12 GLL5        0.0000 
     82 CA         33.3540   37.1942   13.6357 C.3       4 GLC5        0.0000 
     83 CA         32.2910   35.6300   14.2170 C.3      12 GLL5        0.0000 
     84 CA         32.5042   37.4050   12.8968 C.3       4 GLC5        0.0000 
     85 CA         29.2698   33.8270   13.3966 C.3       4 GLC5        0.0000 
     86 CA         30.8600   35.8160   13.6230 C.3      12 GLL5        0.0000 
     87 CA         28.0560   32.3050   13.3920 C.3       8 GLP5        0.0000 
     88 CA         31.4576   35.5330   11.2841 C.3       4 GLC5        0.0000 
     89 CA         33.2260   33.3265   15.0572 C.3       4 GLC5        0.0000 
     90 CA         34.0530   36.5270   13.1523 C.3       4 GLC5        0.0000 
     91 CA         34.3683   31.7725   11.0983 C.3       4 GLC5        0.0000 
     92 CA         36.4170   32.3760   11.7510 C.3      12 GLL5        0.0000 
     93 CA         36.6485   29.5227   12.3830 C.3       4 GLC5        0.0000 
     94 CA         35.7210   27.9330   12.2000 C.3       8 GLP5        0.0000 
     95 CA         40.3010   29.9703   12.0140 C.3       4 GLC5        0.0000 
     96 CA         42.0280   30.0910   12.9310 C.3       8 GLP5        0.0000 
     97 CA         36.8716   29.1822   11.2790 C.3       4 GLC5        0.0000 
     98 CA         40.2918   30.5587    7.5702 C.3       4 GLC5        0.0000 
     99 CA         38.4860   31.4120    7.8070 C.3      12 GLL5        0.0000 
    100 CA         40.9997   31.1485    7.0107 C.3       4 GLC5        0.0000 
    101 CA         38.2829   28.5354    6.3645 C.3       4 GLC5        0.0000 
    102 CA         37.7120   29.7890    4.2760 C.3      12 GLL5        0.0000 
    103 CA         39.1040   28.6166    4.4180 C.3       4 GLC5        0.0000 
    104 CA         37.6600   30.0880    5.7080 C.3      12 GLL5        0.0000 
    105 CA         40.9650   27.8700    4.4250 C.3       8 GLP5        0.0000 
    106 CA         35.7170   30.3971    4.7760 C.3       4 GLC5        0.0000 
@<TRIPOS>BOND
@<TRIPOS>SUBSTRUCTURE
     1 ALC1       37 GROUP        1 X    ALC  0     ROOT ALC X 1
     2 SEC2       40 GROUP        1 X    SEC  0     **** SEC X 2
     3 ASC3        4 GROUP        1 X    ASC  0     **** ASC X 3
     4 GLC5        1 GROUP        1 X    GLC  0     **** GLC X 6
     5 ALP1       39 GROUP        1 Y    ALP  0     ROOT ALP Y 8
     6 SEP2       42 GROUP        1 Y    SEP  0     **** SEP Y 9
     7 ASP3        6 GROUP        1 Y    ASP  0     **** ASP Y 10
     8 GLP5        3 GROUP        1 Y    GLP  0     **** GLP Y 13
     9 ALL1       38 GROUP        1 Z    ALL  0     ROOT ALL Z 15
    10 SEL2       41 GROUP        1 Z    SEL  0     **** SEL Z 16
    11 ASL3        5 GROUP        1 Z    ASL  0     **** ASL Z 17
    12 GLL5        2 GROUP        1 Z    GLL  0     **** GLL Z 20
@<TRIPOS>SET

