#    Name: 3be2_RAJ_1_ligand
#    Modification time : Mon Mar 24 19:19:17 2014

@<TRIPOS>MOLECULE
3be2_RAJ_1_ligand
   69    72     1     0     0
SMALL
NO_CHARGES


@<TRIPOS>ATOM
      1 C28        37.7300   40.0880   15.3620 C.3       1 RAJ501      0.0000 
      2 N6         37.5900   38.7530   15.9600 N.4       1 RAJ501      0.0000 
      3 C29        38.3070   37.7500   15.1510 C.3       1 RAJ501      0.0000 
      4 C27        36.1470   38.4420   16.0550 C.3       1 RAJ501      0.0000 
      5 C26        35.9280   37.3790   17.1150 C.3       1 RAJ501      0.0000 
      6 C25        34.4720   36.9410   17.1690 C.3       1 RAJ501      0.0000 
      7 C20        34.0630   36.1550   15.9320 C.ar      1 RAJ501      0.0000 
      8 C19        34.9740   35.2590   15.2700 C.ar      1 RAJ501      0.0000 
      9 C21        32.7310   36.3350   15.4060 C.ar      1 RAJ501      0.0000 
     10 C22        32.2910   35.6300   14.2170 C.ar      1 RAJ501      0.0000 
     11 C24        30.8600   35.8160   13.6230 C.3       1 RAJ501      0.0000 
     12 F2         30.7630   36.9920   13.0440 F         1 RAJ501      0.0000 
     13 F3         29.9520   35.7200   14.5600 F         1 RAJ501      0.0000 
     14 F1         30.5610   34.9300   12.7110 F         1 RAJ501      0.0000 
     15 C23        33.2460   34.7470   13.5930 C.ar      1 RAJ501      0.0000 
     16 C18        34.5720   34.5490   14.0960 C.ar      1 RAJ501      0.0000 
     17 N5         35.4630   33.6860   13.4890 N.am      1 RAJ501      0.0000 
     18 C17        35.4810   33.4210   12.1550 C.2       1 RAJ501      0.0000 
     19 O1         34.7740   33.9910   11.3270 O.2       1 RAJ501      0.0000 
     20 C12        36.4170   32.3760   11.7510 C.ar      1 RAJ501      0.0000 
     21 C11        36.5400   32.1320   10.3360 C.ar      1 RAJ501      0.0000 
     22 C13        37.1270   31.6410   12.7620 C.ar      1 RAJ501      0.0000 
     23 C14        38.0250   30.5840   12.3700 C.ar      1 RAJ501      0.0000 
     24 C15        38.1470   30.3380   10.9700 C.ar      1 RAJ501      0.0000 
     25 C16        39.0620   29.2380   10.5240 C.3       1 RAJ501      0.0000 
     26 C10        37.4400   31.0750    9.9690 C.ar      1 RAJ501      0.0000 
     27 N4         37.6310   30.7570    8.6530 N.pl3     1 RAJ501      0.0000 
     28 C9         38.4860   31.4120    7.8070 C.ar      1 RAJ501      0.0000 
     29 N3         39.3130   32.3920    8.3640 N.ar      1 RAJ501      0.0000 
     30 C8         40.2340   33.1760    7.7000 C.ar      1 RAJ501      0.0000 
     31 C7         40.3430   32.9470    6.2880 C.ar      1 RAJ501      0.0000 
     32 C6         39.5100   31.9450    5.6730 C.ar      1 RAJ501      0.0000 
     33 C5         38.5350   31.1210    6.3920 C.ar      1 RAJ501      0.0000 
     34 C3         37.6600   30.0880    5.7080 C.ar      1 RAJ501      0.0000 
     35 C2         37.7120   29.7890    4.2760 C.ar      1 RAJ501      0.0000 
     36 C1         36.8000   28.7880    3.8300 C.ar      1 RAJ501      0.0000 
     37 N2         35.9330   28.1540    4.6950 N.ar      1 RAJ501      0.0000 
     38 C4         35.8620   28.4120    6.0340 C.ar      1 RAJ501      0.0000 
     39 N1         36.7220   29.3650    6.5070 N.ar      1 RAJ501      0.0000 
     40 H          38.0084   38.7751   16.9634 H         1 RAJ501      0.0000 
     41 H          35.7749   38.0702   15.1007 H         1 RAJ501      0.0000 
     42 H          35.5834   39.3337   16.3282 H         1 RAJ501      0.0000 
     43 H          36.2204   37.7748   18.0909 H         1 RAJ501      0.0000 
     44 H          36.5559   36.5121   16.8939 H         1 RAJ501      0.0000 
     45 H          33.8329   37.8265   17.2603 H         1 RAJ501      0.0000 
     46 H          34.3158   36.3197   18.0580 H         1 RAJ501      0.0000 
     47 H          35.9122   35.1324   15.6442 H         1 RAJ501      0.0000 
     48 H          32.0861   36.9676   15.8758 H         1 RAJ501      0.0000 
     49 H          32.9549   34.2345   12.7420 H         1 RAJ501      0.0000 
     50 H          36.1773   33.2019   14.1114 H         1 RAJ501      0.0000 
     51 H          36.0427   32.6528    9.6722 H         1 RAJ501      0.0000 
     52 H          36.9991   31.8616   13.7371 H         1 RAJ501      0.0000 
     53 H          38.5274   30.0604   13.0420 H         1 RAJ501      0.0000 
     54 H          37.0725   29.9372    8.2543 H         1 RAJ501      0.0000 
     55 H          40.7974   33.8613    8.1459 H         1 RAJ501      0.0000 
     56 H          40.9922   33.4780    5.7316 H         1 RAJ501      0.0000 
     57 H          39.5999   31.7886    4.6479 H         1 RAJ501      0.0000 
     58 H          38.3341   30.2527    3.6835 H         1 RAJ501      0.0000 
     59 H          36.8040   28.5433    2.8211 H         1 RAJ501      0.0000 
     60 H          35.2148   27.9296    6.6391 H         1 RAJ501      0.0000 
     61 H          38.6873   40.3717   15.3069 H         1 RAJ501      0.0000 
     62 H          37.3610   40.1194   14.4331 H         1 RAJ501      0.0000 
     63 H          37.2478   40.7851   15.8926 H         1 RAJ501      0.0000 
     64 H          39.2842   37.9529   15.0885 H         1 RAJ501      0.0000 
     65 H          38.2225   36.8317   15.5377 H         1 RAJ501      0.0000 
     66 H          37.9560   37.7076   14.2156 H         1 RAJ501      0.0000 
     67 H          40.0049   29.3977   10.8164 H         1 RAJ501      0.0000 
     68 H          38.7860   28.3517   10.8958 H         1 RAJ501      0.0000 
     69 H          39.0754   29.1468    9.5283 H         1 RAJ501      0.0000 
@<TRIPOS>BOND
     1    2    1 1    
     2   61    1 1    
     3   62    1 1    
     4   63    1 1    
     5    3    2 1    
     6    4    2 1    
     7   40    2 1    
     8   64    3 1    
     9   65    3 1    
    10   66    3 1    
    11    5    4 1    
    12   41    4 1    
    13   42    4 1    
    14    6    5 1    
    15   43    5 1    
    16   44    5 1    
    17    7    6 1    
    18   45    6 1    
    19   46    6 1    
    20    8    7 ar   
    21    9    7 ar   
    22   16    8 ar   
    23   47    8 1    
    24   10    9 ar   
    25   48    9 1    
    26   11   10 1    
    27   15   10 ar   
    28   12   11 1    
    29   13   11 1    
    30   14   11 1    
    31   16   15 ar   
    32   49   15 1    
    33   17   16 1    
    34   18   17 am   
    35   50   17 1    
    36   19   18 2    
    37   20   18 1    
    38   21   20 ar   
    39   22   20 ar   
    40   26   21 ar   
    41   51   21 1    
    42   23   22 ar   
    43   52   22 1    
    44   24   23 ar   
    45   53   23 1    
    46   25   24 1    
    47   26   24 ar   
    48   67   25 1    
    49   68   25 1    
    50   69   25 1    
    51   27   26 1    
    52   28   27 1    
    53   54   27 1    
    54   29   28 ar   
    55   33   28 ar   
    56   30   29 ar   
    57   31   30 ar   
    58   55   30 1    
    59   32   31 ar   
    60   56   31 1    
    61   33   32 ar   
    62   57   32 1    
    63   34   33 1    
    64   35   34 ar   
    65   39   34 ar   
    66   36   35 ar   
    67   58   35 1    
    68   37   36 ar   
    69   59   36 1    
    70   38   37 ar   
    71   39   38 ar   
    72   60   38 1    
@<TRIPOS>SUBSTRUCTURE
     1 RAJ501      1 GROUP   
@<TRIPOS>SET

