#    Name: 1so2_666_3_INTS_M
#    Modification time : Tue Mar 25 02:35:01 2014

@<TRIPOS>MOLECULE
1so2_666_3_INTS_M
   53     0     9     0     0
SMALL
NO_CHARGES


@<TRIPOS>ATOM
      1 CA         22.0820   49.6515   16.8475 C.3       3 GLC5        0.0000 
      2 CA         23.5820   49.0540   18.2990 C.3       9 GLL5        0.0000 
      3 CA         20.5820   50.2490   15.3960 C.3       6 GLP5        0.0000 
      4 CA         25.8395   55.8205   14.0070 C.3       3 GLC5        0.0000 
      5 CA         25.4330   53.7290   13.5320 C.3       9 GLL5        0.0000 
      6 CA         26.2460   57.9120   14.4820 C.3       6 GLP5        0.0000 
      7 N          25.6585   54.7935   10.6020 N.am      2 SEC2        0.0000 
      8 N          26.7100   53.6130   10.8640 N.am      8 SEL2        0.0000 
      9 N          24.6070   55.9740   10.3400 N.am      5 SEP2        0.0000 
     10 O          26.7175   54.7820    9.2265 O.2       1 ALC1        0.0000 
     11 O          27.3550   53.7620    9.7700 O.2       7 ALL1        0.0000 
     12 O          26.0800   55.8020    8.6830 O.2       4 ALP1        0.0000 
     13 CA         27.7380   49.7445   10.3995 C.3       3 GLC5        0.0000 
     14 CA         28.5150   51.6230   10.0610 C.3       9 GLL5        0.0000 
     15 CA         26.9610   47.8660   10.7380 C.3       6 GLP5        0.0000 
     16 CA         30.3930   51.8355    9.3155 C.3       3 GLC5        0.0000 
     17 CA         32.2710   52.0480    8.5700 C.3       6 GLP5        0.0000 
     18 CA         28.6330   50.4540    8.5720 C.3       3 GLC5        0.0000 
     19 CA         28.7510   49.2850    7.0830 C.3       6 GLP5        0.0000 
     20 CA         27.9580   49.7925   11.7960 C.3       3 GLC5        0.0000 
     21 CA         28.3160   51.8420   11.6020 C.3       9 GLL5        0.0000 
     22 CA         27.6000   47.7430   11.9900 C.3       6 GLP5        0.0000 
     23 N          29.1265   54.2190    7.1510 N.am      2 SEC2        0.0000 
     24 N          28.8520   53.1390    8.1990 N.am      8 SEL2        0.0000 
     25 N          29.4010   55.2990    6.1030 N.am      5 SEP2        0.0000 
     26 N          27.5220   53.6815    7.3490 N.am      2 SEC2        0.0000 
     27 N          26.1920   54.2240    6.4990 N.am      5 SEP2        0.0000 
     28 CA         30.9200   51.9420   13.2430 C.3       3 GLC5        0.0000 
     29 CA         29.5430   52.5690   12.2300 C.3       9 GLL5        0.0000 
     30 CA         32.2970   51.3150   14.2560 C.3       6 GLP5        0.0000 
     31 CA         29.0075   53.7535   13.6895 C.3       3 GLC5        0.0000 
     32 CA         28.4720   54.9380   15.1490 C.3       6 GLP5        0.0000 
     33 CA         21.2570   56.1230   15.4883 C.3       3 GLC5        0.0000 
     34 CA         21.5700   56.6980   17.2190 C.3       9 GLL5        0.0000 
     35 CA         21.2180   56.2170   13.7210 C.3       6 GLP5        0.0000 
     36 CA         25.4680   52.2865   19.4835 C.3       3 GLC5        0.0000 
     37 CA         23.6740   53.4620   19.5880 C.3       9 GLL5        0.0000 
     38 CA         27.3630   51.8130   19.6950 C.3       6 GLP5        0.0000 
     39 CA         22.3825   51.6972   16.9637 C.3       3 GLC5        0.0000 
     40 CA         23.4720   52.0580   18.9560 C.3       9 GLL5        0.0000 
     41 CA         20.9510   51.5940   15.4860 C.3       6 GLP5        0.0000 
     42 CA         25.8975   51.3152   18.8020 C.3       3 GLC5        0.0000 
     43 CA         24.1560   51.5430   17.9270 C.3       9 GLL5        0.0000 
     44 CA         21.4952   48.9295   19.4800 C.3       3 GLC5        0.0000 
     45 CA         19.6430   48.5430   19.8850 C.3       6 GLP5        0.0000 
     46 CA         24.2747   51.0590   13.9507 C.3       3 GLC5        0.0000 
     47 CA         24.9650   52.5000   15.6280 C.3       9 GLL5        0.0000 
     48 CA         23.1620   50.1490   12.4950 C.3       6 GLP5        0.0000 
     49 CA         24.7710   51.1120   13.0122 C.3       3 GLC5        0.0000 
     50 CA         26.4660   51.4990   13.9530 C.3       9 GLL5        0.0000 
     51 CA         24.1313   51.9205   13.3280 C.3       3 GLC5        0.0000 
     52 CA         30.1406   53.3249   10.7469 C.3       3 GLC5        0.0000 
     53 CA         31.3020   54.4990    9.9630 C.3       6 GLP5        0.0000 
@<TRIPOS>BOND
@<TRIPOS>SUBSTRUCTURE
     1 ALC1       10 GROUP        1 X    ALC  0     ROOT ALC X 1
     2 SEC2        7 GROUP        1 X    SEC  0     **** SEC X 2
     3 GLC5        1 GROUP        1 X    GLC  0     **** GLC X 6
     4 ALP1       12 GROUP        1 Y    ALP  0     ROOT ALP Y 8
     5 SEP2        9 GROUP        1 Y    SEP  0     **** SEP Y 9
     6 GLP5        3 GROUP        1 Y    GLP  0     **** GLP Y 13
     7 ALL1       11 GROUP        1 Z    ALL  0     ROOT ALL Z 15
     8 SEL2        8 GROUP        1 Z    SEL  0     **** SEL Z 16
     9 GLL5        2 GROUP        1 Z    GLL  0     **** GLL Z 20
@<TRIPOS>SET

