#    Name: 1so2_666_3_ligand
#    Modification time : Tue Mar 25 02:35:01 2014

@<TRIPOS>MOLECULE
1so2_666_3_ligand
   54    57     1     0     0
SMALL
NO_CHARGES


@<TRIPOS>ATOM
      1 C1         21.0220   55.3600   17.2920 C.ar      1 666463      0.0000 
      2 C2         21.6960   54.3310   18.0490 C.ar      1 666463      0.0000 
      3 C3         22.9470   54.5940   18.7600 C.ar      1 666463      0.0000 
      4 C4         23.4820   55.9640   18.6680 C.ar      1 666463      0.0000 
      5 C5         22.7950   57.0410   17.8920 C.ar      1 666463      0.0000 
      6 C6         21.5700   56.6980   17.2190 C.ar      1 666463      0.0000 
      7 C11        23.6740   53.4620   19.5880 C.3       1 666463      0.0000 
      8 C12        23.4720   52.0580   18.9560 C.2       1 666463      0.0000 
      9 C15        24.1560   51.5430   17.9270 C.2       1 666463      0.0000 
     10 C16        24.7080   50.0920   17.8910 C.3       1 666463      0.0000 
     11 C17        23.5820   49.0540   18.2990 C.3       1 666463      0.0000 
     12 C18        23.1130   49.5780   19.8510 C.3       1 666463      0.0000 
     13 C19        23.3200   51.0620   20.1780 C.2       1 666463      0.0000 
     14 N26        24.3460   52.5110   16.8230 N.pl3     1 666463      0.0000 
     15 C27        24.9650   52.5000   15.6280 C.ar      1 666463      0.0000 
     16 C28        25.8100   51.4380   15.1850 C.ar      1 666463      0.0000 
     17 C29        26.4660   51.4990   13.9530 C.ar      1 666463      0.0000 
     18 C30        26.2940   52.6510   13.1060 C.ar      1 666463      0.0000 
     19 C31        25.4330   53.7290   13.5320 C.ar      1 666463      0.0000 
     20 C32        24.7680   53.6550   14.7900 C.ar      1 666463      0.0000 
     21 C37        27.0390   52.7270   11.8520 C.2       1 666463      0.0000 
     22 N38        26.7100   53.6130   10.8640 N.2       1 666463      0.0000 
     23 N39        27.3550   53.7620    9.7700 N.am      1 666463      0.0000 
     24 C40        28.2670   52.9140    9.2290 C.2       1 666463      0.0000 
     25 C41        28.5150   51.6230   10.0610 C.3       1 666463      0.0000 
     26 C42        28.3160   51.8420   11.6020 C.3       1 666463      0.0000 
     27 O45        23.3690   51.3970   21.3190 O.2       1 666463      0.0000 
     28 O46        28.8520   53.1390    8.1990 O.2       1 666463      0.0000 
     29 C47        29.5430   52.5690   12.2300 C.3       1 666463      0.0000 
     30 H          20.1580   55.1450   16.8073 H         1 666463      0.0000 
     31 H          21.2955   53.3940   18.0938 H         1 666463      0.0000 
     32 H          24.3477   56.1932   19.1457 H         1 666463      0.0000 
     33 H          23.1869   57.9441   17.8582 H         1 666463      0.0000 
     34 H          21.0758   57.4085   16.6795 H         1 666463      0.0000 
     35 H          23.2711   53.4646   20.5960 H         1 666463      0.0000 
     36 H          24.7342   53.6922   19.6226 H         1 666463      0.0000 
     37 H          25.5249   49.9983   18.5902 H         1 666463      0.0000 
     38 H          25.0405   49.8561   16.8916 H         1 666463      0.0000 
     39 H          23.9783   48.1073   18.4222 H         1 666463      0.0000 
     40 H          22.7484   49.1562   17.6964 H         1 666463      0.0000 
     41 H          23.6761   48.9357   20.5432 H         1 666463      0.0000 
     42 H          22.0530   49.2970   19.9307 H         1 666463      0.0000 
     43 H          23.8284   53.4896   17.0865 H         1 666463      0.0000 
     44 H          25.9298   50.6165   15.7950 H         1 666463      0.0000 
     45 H          27.0680   50.7412   13.6376 H         1 666463      0.0000 
     46 H          25.3071   54.5349   12.9301 H         1 666463      0.0000 
     47 H          24.1622   54.4024   15.0979 H         1 666463      0.0000 
     48 H          27.1707   54.6730    9.1766 H         1 666463      0.0000 
     49 H          29.5352   51.2793    9.8890 H         1 666463      0.0000 
     50 H          27.8240   50.8477    9.7293 H         1 666463      0.0000 
     51 H          28.1771   50.9065   12.0789 H         1 666463      0.0000 
     52 H          30.3885   52.0512   12.0991 H         1 666463      0.0000 
     53 H          29.6867   53.4721   11.8253 H         1 666463      0.0000 
     54 H          29.4311   52.7035   13.2146 H         1 666463      0.0000 
@<TRIPOS>BOND
     1    2    1 ar   
     2    6    1 ar   
     3   30    1 1    
     4    3    2 ar   
     5   31    2 1    
     6    4    3 ar   
     7    7    3 1    
     8    5    4 ar   
     9   32    4 1    
    10    6    5 ar   
    11   33    5 1    
    12   34    6 1    
    13    8    7 1    
    14   35    7 1    
    15   36    7 1    
    16    9    8 2    
    17   13    8 1    
    18   10    9 1    
    19   14    9 1    
    20   11   10 1    
    21   37   10 1    
    22   38   10 1    
    23   12   11 1    
    24   39   11 1    
    25   40   11 1    
    26   13   12 1    
    27   41   12 1    
    28   42   12 1    
    29   27   13 2    
    30   15   14 1    
    31   43   14 1    
    32   16   15 ar   
    33   20   15 ar   
    34   17   16 ar   
    35   44   16 1    
    36   18   17 ar   
    37   45   17 1    
    38   19   18 ar   
    39   21   18 1    
    40   20   19 ar   
    41   46   19 1    
    42   47   20 1    
    43   22   21 2    
    44   26   21 1    
    45   23   22 1    
    46   24   23 am   
    47   48   23 1    
    48   25   24 1    
    49   28   24 2    
    50   26   25 1    
    51   49   25 1    
    52   50   25 1    
    53   29   26 1    
    54   51   26 1    
    55   52   29 1    
    56   53   29 1    
    57   54   29 1    
@<TRIPOS>SUBSTRUCTURE
     1 666463      1 GROUP   
@<TRIPOS>SET

