#    Name: 1QK3_1_CAVITY_N1_6.mol2
#    Modification time : Tue Mar 11 03:49:58 2014

@<TRIPOS>MOLECULE
1QK3_1_CAVITY_N1_6.mol2
  128     0     7     0     0
SMALL
NO_CHARGES


@<TRIPOS>ATOM
      1 OD1        66.0915   98.9224  118.0864 O.3       3 ASP3        0.0000 
      2 OD1        65.8685   98.5851  119.5309 O.3       3 ASP3        0.0000 
      3 NZ         65.5582   98.0290  116.2378 N.2       4 LYS4        0.0000 
      4 N          65.3352   97.6917  117.6823 N.2       2 ALA2        0.0000 
      5 N          64.5790   96.4609  117.2781 N.2       2 ALA2        0.0000 
      6 CA         63.5997   94.8929  118.3185 C.3       6 GLY6        0.0000 
      7 CA         58.3611  106.3461  115.5113 C.3       6 GLY6        0.0000 
      8 CZ         58.1382  106.0088  116.9558 C.ar      5 PHE5        0.0000 
      9 NZ         57.6049  105.1154  115.1072 N.2       4 LYS4        0.0000 
     10 CA         62.8717  107.9056  113.4564 C.3       6 GLY6        0.0000 
     11 OG         62.6488  107.5683  114.9009 O.2       1 SER1        0.0000 
     12 OG         62.2028  106.8937  117.7899 O.2       1 SER1        0.0000 
     13 N          61.9799  106.5564  119.2343 N.2       2 ALA2        0.0000 
     14 N          62.1155  106.6748  113.0523 N.2       2 ALA2        0.0000 
     15 N          61.8925  106.3375  114.4968 N.2       2 ALA2        0.0000 
     16 OG         61.6695  106.0002  115.9413 O.2       1 SER1        0.0000 
     17 DU         61.4466  105.6629  117.3857 H         7 CUB7        0.0000 
     18 N          61.1363  105.1068  114.0927 N.2       2 ALA2        0.0000 
     19 DU         60.9133  104.7695  115.5371 H         7 CUB7        0.0000 
     20 DU         60.6903  104.4322  116.9816 H         7 CUB7        0.0000 
     21 CA         60.4674  104.0949  118.4261 C.3       6 GLY6        0.0000 
     22 CA         60.3800  103.8760  113.6885 C.3       6 GLY6        0.0000 
     23 CA         60.1570  103.5387  115.1330 C.3       6 GLY6        0.0000 
     24 CZ         59.9341  103.2014  116.5775 C.ar      5 PHE5        0.0000 
     25 CZ         59.7111  102.8641  118.0220 C.ar      5 PHE5        0.0000 
     26 CA         59.4008  102.3080  114.7289 C.3       6 GLY6        0.0000 
     27 CZ         59.1778  101.9707  116.1733 C.ar      5 PHE5        0.0000 
     28 CA         58.8675  101.4145  112.8803 C.3       6 GLY6        0.0000 
     29 CA         58.6445  101.0772  114.3247 C.3       6 GLY6        0.0000 
     30 N          57.8883   99.8464  113.9206 N.2       2 ALA2        0.0000 
     31 CZ         57.6653   99.5091  115.3651 C.ar      5 PHE5        0.0000 
     32 OG         63.9248  106.7799  114.9138 O.2       1 SER1        0.0000 
     33 OG         63.7019  106.4426  116.3583 O.2       1 SER1        0.0000 
     34 N          63.4789  106.1053  117.8028 N.2       2 ALA2        0.0000 
     35 N          63.1686  105.5492  114.5097 N.2       2 ALA2        0.0000 
     36 DU         62.9456  105.2119  115.9541 H         7 CUB7        0.0000 
     37 CA         62.7227  104.8746  117.3986 C.3       6 GLY6        0.0000 
     38 N          62.4123  104.3184  114.1055 N.2       2 ALA2        0.0000 
     39 CA         62.1894  103.9811  115.5500 C.3       6 GLY6        0.0000 
     40 DU         61.9664  103.6438  116.9945 H         7 CUB7        0.0000 
     41 CA         61.7434  103.3065  118.4390 C.3       6 GLY6        0.0000 
     42 CA         61.4331  102.7504  115.1459 C.3       6 GLY6        0.0000 
     43 DU         61.2101  102.4131  116.5904 H         7 CUB7        0.0000 
     44 DU         60.9872  102.0758  118.0348 H         7 CUB7        0.0000 
     45 CA         60.7642  101.7385  119.4793 C.3       6 GLY6        0.0000 
     46 NZ         65.4978  103.6352  115.9799 N.2       4 LYS4        0.0000 
     47 NZ         64.9645  102.7418  114.1313 N.2       4 LYS4        0.0000 
     48 OD1        64.7415  102.4045  115.5758 O.3       3 ASP3        0.0000 
     49 CA         64.2082  101.5110  113.7272 C.3       6 GLY6        0.0000 
     50 CA         63.9853  101.1737  115.1717 C.3       6 GLY6        0.0000 
     51 OD1        63.7623  100.8364  116.6161 O.3       3 ASP3        0.0000 
     52 N          63.5393  100.4991  118.0606 N.2       2 ALA2        0.0000 
     53 N          63.3164  100.1618  119.5051 N.2       2 ALA2        0.0000 
     54 N          63.0934   99.8245  120.9496 N.2       2 ALA2        0.0000 
     55 CZ         63.2290   99.9430  114.7675 C.ar      5 PHE5        0.0000 
     56 DU         63.0060   99.6057  116.2120 H         7 CUB7        0.0000 
     57 DU         62.7831   99.2684  117.6565 H         7 CUB7        0.0000 
     58 DU         62.5601   98.9311  119.1010 H         7 CUB7        0.0000 
     59 DU         62.3371   98.5938  120.5455 H         7 CUB7        0.0000 
     60 CZ         62.2498   98.3749  115.8079 C.ar      5 PHE5        0.0000 
     61 O          62.0268   98.0376  117.2524 O.2       2 ALA2        0.0000 
     62 N          61.8039   97.7003  118.6968 N.2       2 ALA2        0.0000 
     63 N          61.5809   97.3630  120.1413 N.2       2 ALA2        0.0000 
     64 OD1        64.8154   99.7108  118.0735 O.3       3 ASP3        0.0000 
     65 N          64.5924   99.3735  119.5180 N.2       2 ALA2        0.0000 
     66 N          64.3695   99.0362  120.9625 N.2       2 ALA2        0.0000 
     67 NZ         64.2821   98.8173  116.2249 N.2       4 LYS4        0.0000 
     68 DU         64.0591   98.4800  117.6694 H         7 CUB7        0.0000 
     69 DU         63.8362   98.1427  119.1139 H         7 CUB7        0.0000 
     70 N          63.5259   97.5866  115.8208 N.2       2 ALA2        0.0000 
     71 N          63.3029   97.2493  117.2653 N.2       2 ALA2        0.0000 
     72 O          63.0799   96.9120  118.7097 O.2       2 ALA2        0.0000 
     73 CA         62.8570   96.5747  120.1542 C.3       6 GLY6        0.0000 
     74 O          61.5957  108.6939  113.4435 O.2       2 ALA2        0.0000 
     75 OG         61.3727  108.3566  114.8880 O.2       1 SER1        0.0000 
     76 OG         61.1497  108.0193  116.3325 O.2       1 SER1        0.0000 
     77 OG         60.9268  107.6820  117.7770 O.2       1 SER1        0.0000 
     78 O          60.8394  107.4632  113.0394 O.2       2 ALA2        0.0000 
     79 CA         60.6164  107.1259  114.4839 C.3       6 GLY6        0.0000 
     80 DU         60.3935  106.7886  115.9284 H         7 CUB7        0.0000 
     81 DU         60.1705  106.4513  117.3728 H         7 CUB7        0.0000 
     82 CA         59.8602  105.8951  114.0798 C.3       6 GLY6        0.0000 
     83 CA         59.6372  105.5578  115.5242 C.3       6 GLY6        0.0000 
     84 CZ         59.4143  105.2205  116.9687 C.ar      5 PHE5        0.0000 
     85 CA         59.1039  104.6643  113.6756 C.3       6 GLY6        0.0000 
     86 CZ         58.8810  104.3270  115.1201 C.ar      5 PHE5        0.0000 
     87 CZ         58.6580  103.9897  116.5646 C.ar      5 PHE5        0.0000 
     88 CA         58.3477  103.4336  113.2715 C.3       6 GLY6        0.0000 
     89 CZ         58.1247  103.0963  114.7160 C.ar      5 PHE5        0.0000 
     90 CZ         57.3685  101.8655  114.3119 C.ar      5 PHE5        0.0000 
     91 OG         57.8413  108.3652  115.9026 O.2       1 SER1        0.0000 
     92 NZ         57.0851  107.1345  115.4985 N.2       4 LYS4        0.0000 
     93 CA         60.6769  101.5196  114.7418 C.3       6 GLY6        0.0000 
     94 CZ         60.4539  101.1823  116.1862 C.ar      5 PHE5        0.0000 
     95 CZ         60.2309  100.8450  117.6307 C.ar      5 PHE5        0.0000 
     96 CZ         60.0080  100.5077  119.0752 C.ar      5 PHE5        0.0000 
     97 CA         59.9206  100.2889  114.3376 C.3       6 GLY6        0.0000 
     98 CZ         59.6976   99.9516  115.7821 C.ar      5 PHE5        0.0000 
     99 CZ         59.4747   99.6143  117.2266 C.ar      5 PHE5        0.0000 
    100 CZ         59.2517   99.2770  118.6711 C.ar      5 PHE5        0.0000 
    101 CZ         59.1644   99.0581  113.9335 C.ar      5 PHE5        0.0000 
    102 N          58.9414   98.7208  115.3780 N.2       2 ALA2        0.0000 
    103 O          58.7184   98.3835  116.8225 O.2       2 ALA2        0.0000 
    104 NZ         64.9780  105.6543  116.3712 N.2       4 LYS4        0.0000 
    105 N          64.7550  105.3170  117.8156 N.2       2 ALA2        0.0000 
    106 NZ         64.2217  104.4236  115.9670 N.2       4 LYS4        0.0000 
    107 N          63.9987  104.0863  117.4115 N.2       2 ALA2        0.0000 
    108 N          63.6884  103.5301  114.1184 N.2       2 ALA2        0.0000 
    109 DU         63.4654  103.1928  115.5629 H         7 CUB7        0.0000 
    110 N          63.2425  102.8555  117.0074 N.2       2 ALA2        0.0000 
    111 CA         62.7092  101.9620  115.1588 C.3       6 GLY6        0.0000 
    112 DU         62.4862  101.6247  116.6033 H         7 CUB7        0.0000 
    113 N          62.2633  101.2874  118.0477 N.2       2 ALA2        0.0000 
    114 CA         62.0403  100.9501  119.4922 C.3       6 GLY6        0.0000 
    115 CA         61.9529  100.7313  114.7547 C.3       6 GLY6        0.0000 
    116 DU         61.7300  100.3940  116.1991 H         7 CUB7        0.0000 
    117 DU         61.5070  100.0567  117.6436 H         7 CUB7        0.0000 
    118 DU         61.2840   99.7194  119.0881 H         7 CUB7        0.0000 
    119 DU         61.0611   99.3821  120.5326 H         7 CUB7        0.0000 
    120 CZ         60.9737   99.1632  115.7950 C.ar      5 PHE5        0.0000 
    121 N          60.7507   98.8259  117.2395 N.2       2 ALA2        0.0000 
    122 N          60.5278   98.4886  118.6840 N.2       2 ALA2        0.0000 
    123 N          60.3048   98.1513  120.1284 N.2       2 ALA2        0.0000 
    124 CA         60.2175   97.9325  115.3909 C.3       6 GLY6        0.0000 
    125 N          59.9945   97.5952  116.8354 N.2       2 ALA2        0.0000 
    126 O          59.3404  107.9142  114.4710 O.2       2 ALA2        0.0000 
    127 OG         59.1174  107.5769  115.9155 O.2       1 SER1        0.0000 
    128 DU         58.8944  107.2396  117.3600 H         7 CUB7        0.0000 
@<TRIPOS>BOND
@<TRIPOS>SUBSTRUCTURE
     1 SER1       11 GROUP   
     2 ALA2        4 GROUP   
     3 ASP3        1 GROUP   
     4 LYS4        3 GROUP   
     5 PHE5        8 GROUP   
     6 GLY6        6 GROUP   
     7 CUB7       17 GROUP   
@<TRIPOS>SET

