#    Name: 1qk3_5GP_1_INTS_M
#    Modification time : Mon Mar 24 23:36:03 2014

@<TRIPOS>MOLECULE
1qk3_5GP_1_INTS_M
   39     0     9     0     0
SMALL
NO_CHARGES


@<TRIPOS>ATOM
      1 N          58.4115  108.8780  113.4390 N.am      2 SEC2        0.0000 
      2 N          59.0930  108.5740  114.6540 N.am      8 SEL2        0.0000 
      3 N          57.7300  109.1820  112.2240 N.am      5 SEP2        0.0000 
      4 N          58.8115  109.7960  114.5210 N.am      2 SEC2        0.0000 
      5 N          58.5300  111.0180  114.3880 N.am      5 SEP2        0.0000 
      6 N          60.1450  107.6485  111.8925 N.am      2 SEC2        0.0000 
      7 N          60.8490  108.3850  112.8960 N.am      8 SEL2        0.0000 
      8 N          59.4410  106.9120  110.8890 N.am      5 SEP2        0.0000 
      9 N          60.3820  109.6350  112.3010 N.am      2 SEC2        0.0000 
     10 N          59.9150  110.8850  111.7060 N.am      5 SEP2        0.0000 
     11 N          62.3545  110.4935  115.1765 N.am      2 SEC2        0.0000 
     12 N          61.4530  109.2730  115.2070 N.am      8 SEL2        0.0000 
     13 N          63.2560  111.7140  115.1460 N.am      5 SEP2        0.0000 
     14 N          62.5475  109.2625  115.8445 N.am      2 SEC2        0.0000 
     15 N          63.6420  109.2520  116.4820 N.am      5 SEP2        0.0000 
     16 CA         63.0635  108.1815  115.8585 C.3       3 GLC5        0.0000 
     17 CA         61.5070  106.6510  116.1800 C.3       9 GLL5        0.0000 
     18 CA         64.6200  109.7120  115.5370 C.3       6 GLP5        0.0000 
     19 CA         58.7430  102.8505  116.7290 C.3       3 GLC5        0.0000 
     20 CA         60.8240  103.1110  116.2570 C.3       9 GLL5        0.0000 
     21 CA         56.6620  102.5900  117.2010 C.3       6 GLP5        0.0000 
     22 CA         57.0460  102.1340  112.7215 C.3       3 GLC5        0.0000 
     23 CA         58.2410  101.5220  114.2800 C.3       9 GLL5        0.0000 
     24 CA         55.8510  102.7460  111.1630 C.3       6 GLP5        0.0000 
     25 N          55.8825  101.4765  112.8190 N.am      2 SEC2        0.0000 
     26 N          56.5620  100.3110  113.1170 N.am      8 SEL2        0.0000 
     27 N          55.2030  102.6420  112.5210 N.am      5 SEP2        0.0000 
     28 N          55.8060   99.0030  113.0375 N.am      2 SEC2        0.0000 
     29 N          55.0500   97.6950  112.9580 N.am      5 SEP2        0.0000 
     30 O          57.5835   97.8225  114.4555 O.2       1 ALC1        0.0000 
     31 O          57.9230   99.2500  114.6210 O.2       7 ALL1        0.0000 
     32 O          57.2440   96.3950  114.2900 O.2       4 ALP1        0.0000 
     33 O          58.2100   97.2215  115.1945 O.2       1 ALC1        0.0000 
     34 O          59.1760   98.0480  116.0990 O.2       7 ALL1        0.0000 
     35 CA         61.4970  102.8115  113.9843 C.3       3 GLC5        0.0000 
     36 CA         62.2710  102.9660  115.7810 C.3       9 GLL5        0.0000 
     37 CA         61.3670  102.2270  112.0530 C.3       6 GLP5        0.0000 
     38 CA         60.0560  101.8528  113.3980 C.3       3 GLC5        0.0000 
     39 CA         59.2490  101.4350  115.2060 C.3       9 GLL5        0.0000 
@<TRIPOS>BOND
@<TRIPOS>SUBSTRUCTURE
     1 ALC1       30 GROUP        1 X    ALC  0     ROOT ALC X 1
     2 SEC2        1 GROUP        1 X    SEC  0     **** SEC X 2
     3 GLC5       16 GROUP        1 X    GLC  0     **** GLC X 6
     4 ALP1       32 GROUP        1 Y    ALP  0     ROOT ALP Y 8
     5 SEP2        3 GROUP        1 Y    SEP  0     **** SEP Y 9
     6 GLP5       18 GROUP        1 Y    GLP  0     **** GLP Y 13
     7 ALL1       31 GROUP        1 Z    ALL  0     ROOT ALL Z 15
     8 SEL2        2 GROUP        1 Z    SEL  0     **** SEL Z 16
     9 GLL5       17 GROUP        1 Z    GLL  0     **** GLL Z 20
@<TRIPOS>SET

