#    Name: 1qk3_5GP_1_ligand
#    Modification time : Mon Mar 24 23:36:03 2014

@<TRIPOS>MOLECULE
1qk3_5GP_1_ligand
   36    38     1     0     0
SMALL
NO_CHARGES


@<TRIPOS>ATOM
      1 P          60.5190  108.3350  114.3770 P.3       1 5GP300      0.0000 
      2 O1P        59.0930  108.5740  114.6540 O.co2     1 5GP300      0.0000 
      3 O2P        60.8490  108.3850  112.8960 O.co2     1 5GP300      0.0000 
      4 O3P        61.4530  109.2730  115.2070 O.co2     1 5GP300      0.0000 
      5 O5'        60.9550  106.8580  114.8660 O.3       1 5GP300      0.0000 
      6 C5'        61.5070  106.6510  116.1800 C.3       1 5GP300      0.0000 
      7 C4'        61.8940  105.2010  116.4460 C.3       1 5GP300      0.0000 
      8 O4'        60.6160  104.4950  116.6290 O.3       1 5GP300      0.0000 
      9 C3'        62.5890  104.3960  115.3670 C.3       1 5GP300      0.0000 
     10 O3'        63.9940  104.5490  115.3850 O.3       1 5GP300      0.0000 
     11 C2'        62.2710  102.9660  115.7810 C.3       1 5GP300      0.0000 
     12 O2'        63.1130  102.5420  116.8670 O.3       1 5GP300      0.0000 
     13 C1'        60.8240  103.1110  116.2570 C.3       1 5GP300      0.0000 
     14 N9         59.7550  102.7170  115.3190 N.pl3     1 5GP300      0.0000 
     15 C8         58.9860  103.4930  114.4960 C.2       1 5GP300      0.0000 
     16 N7         58.0820  102.8470  113.8100 N.2       1 5GP300      0.0000 
     17 C5         58.2410  101.5220  114.2800 C.2       1 5GP300      0.0000 
     18 C6         57.4920  100.3820  113.9100 C.2       1 5GP300      0.0000 
     19 O6         56.5620  100.3110  113.1170 O.2       1 5GP300      0.0000 
     20 N1         57.9230   99.2500  114.6210 N.am      1 5GP300      0.0000 
     21 C2         58.9540   99.2570  115.5350 C.2       1 5GP300      0.0000 
     22 N2         59.1760   98.0480  116.0990 N.pl3     1 5GP300      0.0000 
     23 N3         59.6720  100.3310  115.8870 N.2       1 5GP300      0.0000 
     24 C4         59.2490  101.4350  115.2060 C.2       1 5GP300      0.0000 
     25 H          60.7870  106.9570  116.9665 H         1 5GP300      0.0000 
     26 H          62.4115  107.2746  116.3341 H         1 5GP300      0.0000 
     27 H          62.4369  105.1258  117.3686 H         1 5GP300      0.0000 
     28 H          62.1333  104.5770  114.4424 H         1 5GP300      0.0000 
     29 H          62.2890  102.3519  114.9408 H         1 5GP300      0.0000 
     30 H          60.7261  102.5074  117.1833 H         1 5GP300      0.0000 
     31 H          59.1320  104.4953  114.4446 H         1 5GP300      0.0000 
     32 H          57.4174   98.3399  114.4355 H         1 5GP300      0.0000 
     33 H          58.5589   97.3123  115.8198 H         1 5GP300      0.0000 
     34 H          59.9375   97.9970  116.7452 H         1 5GP300      0.0000 
     35 H          64.3213  103.8574  116.0289 H         1 5GP300      0.0000 
     36 H          62.9889  101.5511  116.9189 H         1 5GP300      0.0000 
@<TRIPOS>BOND
     1    2    1 ar   
     2    3    1 ar   
     3    4    1 ar   
     4    5    1 1    
     5    6    5 1    
     6    7    6 1    
     7   25    6 1    
     8   26    6 1    
     9    8    7 1    
    10    9    7 1    
    11   27    7 1    
    12   13    8 1    
    13   10    9 1    
    14   11    9 1    
    15   28    9 1    
    16   35   10 1    
    17   12   11 1    
    18   13   11 1    
    19   29   11 1    
    20   36   12 1    
    21   14   13 1    
    22   30   13 1    
    23   15   14 1    
    24   24   14 1    
    25   16   15 2    
    26   31   15 1    
    27   17   16 1    
    28   18   17 1    
    29   24   17 2    
    30   19   18 2    
    31   20   18 am   
    32   21   20 1    
    33   32   20 1    
    34   22   21 1    
    35   23   21 2    
    36   33   22 1    
    37   34   22 1    
    38   24   23 1    
@<TRIPOS>SUBSTRUCTURE
     1 5GP300      1 GROUP   
@<TRIPOS>SET

