#    Name: 3uvr_06F_1_INTS_M
#    Modification time : Mon Mar 24 23:37:31 2014

@<TRIPOS>MOLECULE
3uvr_06F_1_INTS_M
  104     0     9     0     0
SMALL
NO_CHARGES


@<TRIPOS>ATOM
      1 CA         20.0210   -6.1170   -9.9055 C.3       3 GLC5        0.0000 
      2 CA         18.9520   -6.0910  -11.1570 C.3       9 GLL5        0.0000 
      3 CA         21.0900   -6.1430   -8.6540 C.3       6 GLP5        0.0000 
      4 CA         11.8620   -8.2505  -20.0175 C.3       3 GLC5        0.0000 
      5 CA         13.5020   -7.1100  -19.2050 C.3       9 GLL5        0.0000 
      6 CA         10.2220   -9.3910  -20.8300 C.3       6 GLP5        0.0000 
      7 CA         11.9700   -6.3270  -18.5020 C.3       3 GLC5        0.0000 
      8 CA         10.4380   -5.5440  -17.7990 C.3       6 GLP5        0.0000 
      9 CA         11.9695   -6.2515  -20.2645 C.3       3 GLC5        0.0000 
     10 CA         10.4370   -5.3930  -21.3240 C.3       6 GLP5        0.0000 
     11 CA         13.9600   -5.5385  -20.0550 C.3       3 GLC5        0.0000 
     12 CA         14.4180   -3.9670  -20.9050 C.3       6 GLP5        0.0000 
     13 CA         15.2375  -10.7030  -20.1180 C.3       3 GLC5        0.0000 
     14 CA         14.6980   -9.2750  -19.0900 C.3       9 GLL5        0.0000 
     15 CA         15.7770  -12.1310  -21.1460 C.3       6 GLP5        0.0000 
     16 CA         14.1655   -9.4770  -21.0325 C.3       3 GLC5        0.0000 
     17 CA         13.6330   -9.6790  -22.9750 C.3       6 GLP5        0.0000 
     18 CA         12.3925  -10.3340  -16.3145 C.3       3 GLC5        0.0000 
     19 CA         13.2680   -8.5100  -17.1700 C.3       9 GLL5        0.0000 
     20 CA         11.5170  -12.1580  -15.4590 C.3       6 GLP5        0.0000 
     21 CA         11.8530   -7.0270  -17.4845 C.3       3 GLC5        0.0000 
     22 N          18.2135    0.8140  -27.7685 N.am      2 SEC2        0.0000 
     23 N          17.8570    1.1270  -26.5080 N.am      8 SEL2        0.0000 
     24 N          18.5700    0.5010  -29.0290 N.am      5 SEP2        0.0000 
     25 N          16.4070   -3.8825  -18.9320 N.am      2 SEC2        0.0000 
     26 N          17.7520   -4.3130  -19.2270 N.am      8 SEL2        0.0000 
     27 N          15.0620   -3.4520  -18.6370 N.am      5 SEP2        0.0000 
     28 CA         21.6020   -5.5455  -19.3700 C.3       3 GLC5        0.0000 
     29 CA         21.6070   -3.5090  -19.6950 C.3       9 GLL5        0.0000 
     30 CA         21.5970   -7.5820  -19.0450 C.3       6 GLP5        0.0000 
     31 CA         22.4300    0.3530  -20.7920 C.3       3 GLC5        0.0000 
     32 CA         21.6410   -1.4590  -20.9250 C.3       9 GLL5        0.0000 
     33 CA         23.2190    2.1650  -20.6590 C.3       6 GLP5        0.0000 
     34 CA         17.6200   -8.8590  -11.4145 C.3       3 GLC5        0.0000 
     35 CA         17.9840   -7.4670  -12.8550 C.3       9 GLL5        0.0000 
     36 CA         17.2560  -10.2510   -9.9740 C.3       6 GLP5        0.0000 
     37 CA         17.5435   -0.9580  -22.4605 C.3       3 GLC5        0.0000 
     38 CA         19.5250   -0.3190  -23.1250 C.3       9 GLL5        0.0000 
     39 CA         15.5620   -1.5970  -21.7960 C.3       6 GLP5        0.0000 
     40 CA         19.9110    0.2135  -26.2430 C.3       3 GLC5        0.0000 
     41 CA         19.0230    0.2610  -24.3090 C.3       9 GLL5        0.0000 
     42 CA         20.7990    0.1660  -28.1770 C.3       6 GLP5        0.0000 
     43 CA         17.7150   -1.4205  -19.9975 C.3       3 GLC5        0.0000 
     44 CA         19.7360   -1.9920  -19.5080 C.3       9 GLL5        0.0000 
     45 CA         15.6940   -0.8490  -20.4870 C.3       6 GLP5        0.0000 
     46 CA         18.2520   -0.7920  -18.3235 C.3       3 GLC5        0.0000 
     47 CA         16.7680    0.4080  -17.1390 C.3       6 GLP5        0.0000 
     48 CA         16.7285   -6.5135  -20.1585 C.3       3 GLC5        0.0000 
     49 CA         16.3990   -6.6500  -18.2840 C.3       9 GLL5        0.0000 
     50 CA         17.0580   -6.3770  -22.0330 C.3       6 GLP5        0.0000 
     51 CA         15.4085   -5.3085  -19.5945 C.3       3 GLC5        0.0000 
     52 CA         17.8390    3.8555  -27.9070 C.3       3 GLC5        0.0000 
     53 CA         17.6260    3.2510  -25.9530 C.3       9 GLL5        0.0000 
     54 CA         18.0520    4.4600  -29.8610 C.3       6 GLP5        0.0000 
     55 CA         16.3145    4.4995  -26.9855 C.3       3 GLC5        0.0000 
     56 CA         15.0030    5.7480  -28.0180 C.3       6 GLP5        0.0000 
     57 CA         16.2405    1.6630  -25.9985 C.3       3 GLC5        0.0000 
     58 CA         14.8550    0.0750  -26.0440 C.3       6 GLP5        0.0000 
     59 CA         17.9050    4.0680  -21.0205 C.3       3 GLC5        0.0000 
     60 CA         17.7520    3.4420  -22.6940 C.3       9 GLL5        0.0000 
     61 CA         18.0580    4.6940  -19.3470 C.3       6 GLP5        0.0000 
     62 O          20.3025   -4.6375  -17.2290 O.2       1 ALC1        0.0000 
     63 O          19.8350   -4.0780  -18.3070 O.2       7 ALL1        0.0000 
     64 O          20.7700   -5.1970  -16.1510 O.2       4 ALP1        0.0000 
     65 O          19.5575   -5.3640  -16.7775 O.2       1 ALC1        0.0000 
     66 O          18.3450   -5.5310  -17.4040 O.2       7 ALL1        0.0000 
     67 CA         21.6870   -2.7110  -17.7230 C.3       3 GLC5        0.0000 
     68 CA         20.3450   -3.1960  -19.1710 C.3       9 GLL5        0.0000 
     69 CA         23.0290   -2.2260  -16.2750 C.3       6 GLP5        0.0000 
     70 CA         21.5850    0.1790  -19.3350 C.3       3 GLC5        0.0000 
     71 CA         20.3810   -1.1420  -20.4120 C.3       9 GLL5        0.0000 
     72 CA         22.7890    1.5000  -18.2580 C.3       6 GLP5        0.0000 
     73 CA         21.3110    1.2765  -21.2895 C.3       3 GLC5        0.0000 
     74 CA         19.4030    0.3880  -21.9200 C.3       9 GLL5        0.0000 
     75 CA         19.9195    2.2960  -25.4165 C.3       3 GLC5        0.0000 
     76 CA         18.3940    1.5240  -24.3110 C.3       9 GLL5        0.0000 
     77 CA         21.4450    3.0680  -26.5220 C.3       6 GLP5        0.0000 
     78 CA         16.6245    0.7995  -25.1775 C.3       3 GLC5        0.0000 
     79 CA         19.9778   -7.1080  -12.9047 C.3       3 GLC5        0.0000 
     80 CA         18.4070   -6.2210  -12.4260 C.3       9 GLL5        0.0000 
     81 CA         21.2760   -8.0600  -14.0180 C.3       6 GLP5        0.0000 
     82 CA         22.4070   -0.9195  -22.3708 C.3       3 GLC5        0.0000 
     83 CA         22.2630   -2.6590  -20.5860 C.3       9 GLL5        0.0000 
     84 CA         22.8620    0.2200  -23.9860 C.3       6 GLP5        0.0000 
     85 CA         23.2195   -2.0187  -19.3014 C.3       3 GLC5        0.0000 
     86 CA         24.6510   -1.7660  -18.0700 C.3       6 GLP5        0.0000 
     87 CA         21.8135   -3.8022  -21.7509 C.3       3 GLC5        0.0000 
     88 CA         21.8390   -5.3330  -22.9690 C.3       6 GLP5        0.0000 
     89 CA         19.4938   -7.8055  -13.7513 C.3       3 GLC5        0.0000 
     90 CA         17.4390   -7.6350  -14.1140 C.3       9 GLL5        0.0000 
     91 CA         16.1125   -4.9238  -15.4863 C.3       3 GLC5        0.0000 
     92 CA         17.7270   -5.2750  -14.5190 C.3       9 GLL5        0.0000 
     93 CA         14.7060   -3.9390  -16.2420 C.3       6 GLP5        0.0000 
     94 CA         17.3972    0.0808  -21.2050 C.3       3 GLC5        0.0000 
     95 CA         18.0517   -7.3197  -18.8002 C.3       3 GLC5        0.0000 
     96 CA         19.2990   -8.1970  -19.8070 C.3       6 GLP5        0.0000 
     97 CA         15.7553   -5.1907  -17.0177 C.3       3 GLC5        0.0000 
     98 CA         19.6822    3.4117  -25.9912 C.3       3 GLC5        0.0000 
     99 CA         21.1002    0.1997  -23.4023 C.3       3 GLC5        0.0000 
    100 CA         19.3815   -6.6141  -14.8745 C.3       3 GLC5        0.0000 
    101 CA         21.1030   -7.3620  -15.3340 C.3       6 GLP5        0.0000 
    102 CA         16.8816   -8.9393  -14.3391 C.3       3 GLC5        0.0000 
    103 CA         17.3110   -6.5420  -14.9420 C.3       9 GLL5        0.0000 
    104 CA         16.2520  -10.8320  -14.4650 C.3       6 GLP5        0.0000 
@<TRIPOS>BOND
@<TRIPOS>SUBSTRUCTURE
     1 ALC1       62 GROUP        1 X    ALC  0     ROOT ALC X 1
     2 SEC2       22 GROUP        1 X    SEC  0     **** SEC X 2
     3 GLC5        1 GROUP        1 X    GLC  0     **** GLC X 6
     4 ALP1       64 GROUP        1 Y    ALP  0     ROOT ALP Y 8
     5 SEP2       24 GROUP        1 Y    SEP  0     **** SEP Y 9
     6 GLP5        3 GROUP        1 Y    GLP  0     **** GLP Y 13
     7 ALL1       63 GROUP        1 Z    ALL  0     ROOT ALL Z 15
     8 SEL2       23 GROUP        1 Z    SEL  0     **** SEL Z 16
     9 GLL5        2 GROUP        1 Z    GLL  0     **** GLL Z 20
@<TRIPOS>SET

