#    Name: 3uvr_06F_1_ligand
#    Modification time : Mon Mar 24 23:37:32 2014

@<TRIPOS>MOLECULE
3uvr_06F_1_ligand
   74    78     1     0     0
SMALL
NO_CHARGES


@<TRIPOS>ATOM
      1 CAA        18.9520   -6.0910  -11.1570 C.3       1 06F361      0.0000 
      2 CAB        13.5020   -7.1100  -19.2050 C.3       1 06F361      0.0000 
      3 CAC        14.6980   -9.2750  -19.0900 C.3       1 06F361      0.0000 
      4 CAD        13.2680   -8.5100  -17.1700 C.3       1 06F361      0.0000 
      5 OAE        17.8570    1.1270  -26.5080 O.2       1 06F361      0.0000 
      6 OAF        17.7520   -4.3130  -19.2270 O.2       1 06F361      0.0000 
      7 CAG        22.2630   -2.6590  -20.5860 C.ar      1 06F361      0.0000 
      8 CAH        21.6070   -3.5090  -19.6950 C.ar      1 06F361      0.0000 
      9 CAI        21.6410   -1.4590  -20.9250 C.ar      1 06F361      0.0000 
     10 CAJ        18.2910   -5.1060  -13.2570 C.ar      1 06F361      0.0000 
     11 CAK        17.9840   -7.4670  -12.8550 C.ar      1 06F361      0.0000 
     12 CAL        19.5250   -0.3190  -23.1250 C.ar      1 06F361      0.0000 
     13 CAM        17.7270   -5.2750  -14.5190 C.ar      1 06F361      0.0000 
     14 CAN        17.4390   -7.6350  -14.1140 C.ar      1 06F361      0.0000 
     15 CAO        19.0230    0.2610  -24.3090 C.ar      1 06F361      0.0000 
     16 CAP        19.7360   -1.9920  -19.5080 C.ar      1 06F361      0.0000 
     17 CAQ        18.7980    1.6330  -21.9260 C.ar      1 06F361      0.0000 
     18 CAR        16.3990   -6.6500  -18.2840 C.2       1 06F361      0.0000 
     19 CAS        18.2130    4.2600  -24.9680 C.3       1 06F361      0.0000 
     20 CAT        17.2520    4.3270  -23.8000 C.3       1 06F361      0.0000 
     21 CAU        17.6260    3.2510  -25.9530 C.3       1 06F361      0.0000 
     22 CAV        17.7520    3.4420  -22.6940 C.3       1 06F361      0.0000 
     23 NAW        15.7630   -7.3700  -16.3580 N.2       1 06F361      0.0000 
     24 NAX        19.8350   -4.0780  -18.3070 N.am      1 06F361      0.0000 
     25 NAY        18.3450   -5.5310  -17.4040 N.am      1 06F361      0.0000 
     26 NAZ        19.8080    0.0080  -20.7070 N.pl3     1 06F361      0.0000 
     27 CBA        17.9590    1.9440  -25.5920 C.2       1 06F361      0.0000 
     28 CBB        18.5870   -4.6300  -18.3800 C.2       1 06F361      0.0000 
     29 CBC        18.4070   -6.2210  -12.4260 C.ar      1 06F361      0.0000 
     30 CBD        20.3450   -3.1960  -19.1710 C.ar      1 06F361      0.0000 
     31 CBE        20.3810   -1.1420  -20.4120 C.ar      1 06F361      0.0000 
     32 CBF        19.4030    0.3880  -21.9200 C.ar      1 06F361      0.0000 
     33 CBG        17.3110   -6.5420  -14.9420 C.ar      1 06F361      0.0000 
     34 CBH        18.2960    2.2000  -23.0880 C.ar      1 06F361      0.0000 
     35 CBI        17.2100   -6.2350  -17.3030 C.2       1 06F361      0.0000 
     36 CBJ        15.4760   -7.3670  -17.6510 C.2       1 06F361      0.0000 
     37 CBK        18.3940    1.5240  -24.3110 C.ar      1 06F361      0.0000 
     38 NBL        16.7720   -6.7200  -16.1450 N.pl3     1 06F361      0.0000 
     39 CBM        14.2500   -8.0670  -18.2730 C.3       1 06F361      0.0000 
     40 H          23.1652   -2.9077  -20.9747 H         1 06F361      0.0000 
     41 H          22.0630   -4.3970  -19.4109 H         1 06F361      0.0000 
     42 H          22.1136   -0.7985  -21.5598 H         1 06F361      0.0000 
     43 H          18.6110   -4.1925  -12.9472 H         1 06F361      0.0000 
     44 H          18.0774   -8.2837  -12.2237 H         1 06F361      0.0000 
     45 H          19.9664   -1.2327  -23.1488 H         1 06F361      0.0000 
     46 H          17.6146   -4.4666  -15.1450 H         1 06F361      0.0000 
     47 H          17.1340   -8.5640  -14.4260 H         1 06F361      0.0000 
     48 H          19.1187   -0.2543  -25.2012 H         1 06F361      0.0000 
     49 H          18.8376   -1.7311  -19.1062 H         1 06F361      0.0000 
     50 H          18.7166    2.1619  -21.0298 H         1 06F361      0.0000 
     51 H          16.4711   -6.4718  -19.2074 H         1 06F361      0.0000 
     52 H          19.1721    3.9161  -24.6341 H         1 06F361      0.0000 
     53 H          18.2833    5.2201  -25.4401 H         1 06F361      0.0000 
     54 H          16.2694    3.9934  -24.1229 H         1 06F361      0.0000 
     55 H          17.1840    5.3531  -23.4484 H         1 06F361      0.0000 
     56 H          18.0036    3.5194  -26.9573 H         1 06F361      0.0000 
     57 H          16.5326    3.4160  -25.9747 H         1 06F361      0.0000 
     58 H          16.8994    3.2953  -21.9699 H         1 06F361      0.0000 
     59 H          18.5027    4.0388  -22.0998 H         1 06F361      0.0000 
     60 H          20.4512   -4.3886  -17.4769 H         1 06F361      0.0000 
     61 H          19.1075   -5.6888  -16.6702 H         1 06F361      0.0000 
     62 H          19.6485    0.7138  -19.8937 H         1 06F361      0.0000 
     63 H          19.8911   -5.7488  -11.1894 H         1 06F361      0.0000 
     64 H          18.4276   -5.4549  -10.5910 H         1 06F361      0.0000 
     65 H          18.9751   -6.9649  -10.6714 H         1 06F361      0.0000 
     66 H          14.0818   -6.7941  -19.9561 H         1 06F361      0.0000 
     67 H          12.6999   -7.5431  -19.6161 H         1 06F361      0.0000 
     68 H          13.1800   -6.2963  -18.7211 H         1 06F361      0.0000 
     69 H          15.3009   -9.0112  -19.8430 H         1 06F361      0.0000 
     70 H          15.1989   -9.9361  -18.5314 H         1 06F361      0.0000 
     71 H          13.9215   -9.7599  -19.4923 H         1 06F361      0.0000 
     72 H          13.6960   -9.1415  -16.5235 H         1 06F361      0.0000 
     73 H          12.9296   -7.7325  -16.6399 H         1 06F361      0.0000 
     74 H          12.4688   -8.9761  -17.5496 H         1 06F361      0.0000 
@<TRIPOS>BOND
     1   29    1 1    
     2   63    1 1    
     3   64    1 1    
     4   65    1 1    
     5   39    2 1    
     6   66    2 1    
     7   67    2 1    
     8   68    2 1    
     9   39    3 1    
    10   69    3 1    
    11   70    3 1    
    12   71    3 1    
    13   39    4 1    
    14   72    4 1    
    15   73    4 1    
    16   74    4 1    
    17   27    5 2    
    18   28    6 2    
    19    8    7 ar   
    20    9    7 ar   
    21   40    7 1    
    22   30    8 ar   
    23   41    8 1    
    24   31    9 ar   
    25   42    9 1    
    26   13   10 ar   
    27   29   10 ar   
    28   43   10 1    
    29   14   11 ar   
    30   29   11 ar   
    31   44   11 1    
    32   15   12 ar   
    33   32   12 ar   
    34   45   12 1    
    35   33   13 ar   
    36   46   13 1    
    37   33   14 ar   
    38   47   14 1    
    39   37   15 ar   
    40   48   15 1    
    41   30   16 ar   
    42   31   16 ar   
    43   49   16 1    
    44   32   17 ar   
    45   34   17 ar   
    46   50   17 1    
    47   35   18 2    
    48   36   18 1    
    49   51   18 1    
    50   20   19 1    
    51   21   19 1    
    52   52   19 1    
    53   53   19 1    
    54   22   20 1    
    55   54   20 1    
    56   55   20 1    
    57   27   21 1    
    58   56   21 1    
    59   57   21 1    
    60   34   22 1    
    61   58   22 1    
    62   59   22 1    
    63   36   23 2    
    64   38   23 1    
    65   28   24 am   
    66   30   24 1    
    67   60   24 1    
    68   28   25 am   
    69   35   25 1    
    70   61   25 1    
    71   31   26 1    
    72   32   26 1    
    73   62   26 1    
    74   37   27 1    
    75   38   33 1    
    76   37   34 ar   
    77   38   35 1    
    78   39   36 1    
@<TRIPOS>SUBSTRUCTURE
     1 06F361      1 GROUP   
@<TRIPOS>SET

