#    Name: 1d0s_DMD_1_INTS_M
#    Modification time : Mon Mar 24 21:10:54 2014

@<TRIPOS>MOLECULE
1d0s_DMD_1_INTS_M
   24     0     6     0     0
SMALL
NO_CHARGES


@<TRIPOS>ATOM
      1 N          55.9800   41.8120   15.4495 N.am      1 SEC2        0.0000 
      2 N          56.7500   41.6980   14.4410 N.am      5 SEL2        0.0000 
      3 N          55.2100   41.9260   16.4580 N.am      3 SEP2        0.0000 
      4 CA         57.9160   40.5185   14.8075 C.3       2 GLC5        0.0000 
      5 CA         57.8100   42.5460   14.1350 C.3       6 GLL5        0.0000 
      6 CA         58.0220   38.4910   15.4800 C.3       4 GLP5        0.0000 
      7 CA         61.4665   43.5925   14.9230 C.3       2 GLC5        0.0000 
      8 CA         60.2480   45.3160   15.0820 C.3       6 GLL5        0.0000 
      9 CA         62.6850   41.8690   14.7640 C.3       4 GLP5        0.0000 
     10 CA         62.3640   43.5205   11.0830 C.3       2 GLC5        0.0000 
     11 CA         61.1710   44.6270   12.4110 C.3       6 GLL5        0.0000 
     12 CA         63.5570   42.4140    9.7550 C.3       4 GLP5        0.0000 
     13 CA         61.9280   43.2480   13.5875 C.3       2 GLC5        0.0000 
     14 CA         59.8670   40.8135   12.6485 C.3       2 GLC5        0.0000 
     15 CA         59.3270   42.8820   12.3000 C.3       6 GLL5        0.0000 
     16 CA         60.9510   39.0810   12.7100 C.3       4 GLP5        0.0000 
     17 CA         56.1037   43.2175   13.4443 C.3       2 GLC5        0.0000 
     18 CA         58.2390   42.2100   12.8740 C.3       6 GLL5        0.0000 
     19 CA         54.1830   44.0570   13.3840 C.3       4 GLP5        0.0000 
     20 CA         58.9393   42.4082   16.0418 C.3       2 GLC5        0.0000 
     21 CA         59.7430   41.7740   17.5880 C.3       4 GLP5        0.0000 
     22 CA         59.8208   43.2685   16.1400 C.3       2 GLC5        0.0000 
     23 CA         59.5490   44.2100   14.3020 C.3       6 GLL5        0.0000 
     24 CA         61.1158   42.6671   13.8709 C.3       2 GLC5        0.0000 
@<TRIPOS>BOND
@<TRIPOS>SUBSTRUCTURE
     1 SEC2        1 GROUP        1 X    SEC  0     ROOT SEC X 2
     2 GLC5        4 GROUP        1 X    GLC  0     **** GLC X 6
     3 SEP2        3 GROUP        1 Y    SEP  0     ROOT SEP Y 9
     4 GLP5        6 GROUP        1 Y    GLP  0     **** GLP Y 13
     5 SEL2        2 GROUP        1 Z    SEL  0     ROOT SEL Z 16
     6 GLL5        5 GROUP        1 Z    GLL  0     **** GLL Z 20
@<TRIPOS>SET

