#    Name: 1d0s_DMD_1_ligand
#    Modification time : Mon Mar 24 21:10:54 2014

@<TRIPOS>MOLECULE
1d0s_DMD_1_ligand
   21    22     1     0     0
SMALL
NO_CHARGES


@<TRIPOS>ATOM
      1 N3         56.7500   41.6980   14.4410 N.2       1 DMD999      0.0000 
      2 N1         57.4150   41.1780   12.3790 N.pl3     1 DMD999      0.0000 
      3 C2         56.5630   40.9320   13.3470 C.2       1 DMD999      0.0000 
      4 C7A        58.2390   42.2100   12.8740 C.ar      1 DMD999      0.0000 
      5 C3A        57.8100   42.5460   14.1350 C.ar      1 DMD999      0.0000 
      6 C4         58.4610   43.5390   14.8560 C.ar      1 DMD999      0.0000 
      7 C5         59.5490   44.2100   14.3020 C.ar      1 DMD999      0.0000 
      8 C6         59.9830   43.8870   13.0090 C.ar      1 DMD999      0.0000 
      9 C7         59.3270   42.8820   12.3000 C.ar      1 DMD999      0.0000 
     10 C8         60.2480   45.3160   15.0820 C.3       1 DMD999      0.0000 
     11 C9         61.1710   44.6270   12.4110 C.3       1 DMD999      0.0000 
     12 H          57.5058   40.7893   11.5280 H         1 DMD999      0.0000 
     13 H          55.8326   40.2410   13.2958 H         1 DMD999      0.0000 
     14 H          58.1395   43.7814   15.8039 H         1 DMD999      0.0000 
     15 H          59.6391   42.6307   11.3543 H         1 DMD999      0.0000 
     16 H          60.6225   44.9810   15.9466 H         1 DMD999      0.0000 
     17 H          61.0086   45.7105   14.5663 H         1 DMD999      0.0000 
     18 H          59.6242   46.0655   15.3036 H         1 DMD999      0.0000 
     19 H          61.9975   44.5087   12.9613 H         1 DMD999      0.0000 
     20 H          61.3840   44.3038   11.4890 H         1 DMD999      0.0000 
     21 H          61.0011   45.6102   12.3449 H         1 DMD999      0.0000 
@<TRIPOS>BOND
     1    3    1 2    
     2    5    1 1    
     3    3    2 1    
     4    4    2 1    
     5   12    2 1    
     6   13    3 1    
     7    5    4 ar   
     8    9    4 ar   
     9    6    5 ar   
    10    7    6 ar   
    11   14    6 1    
    12    8    7 ar   
    13   10    7 1    
    14    9    8 ar   
    15   11    8 1    
    16   15    9 1    
    17   16   10 1    
    18   17   10 1    
    19   18   10 1    
    20   19   11 1    
    21   20   11 1    
    22   21   11 1    
@<TRIPOS>SUBSTRUCTURE
     1 DMD999      1 GROUP   
@<TRIPOS>SET

