#    Name: 3f61_ADP_1_INTS_M
#    Modification time : Tue Mar 25 03:15:43 2014

@<TRIPOS>MOLECULE
3f61_ADP_1_INTS_M
   67     0    15     0     0
SMALL
NO_CHARGES


@<TRIPOS>ATOM
      1 NZ        -10.4545    9.3565  -12.6980 N.4       3 LYC4        0.0000 
      2 NZ        -10.8710   11.2850  -12.8800 N.4      13 LYL4        0.0000 
      3 NZ        -10.0380    7.4280  -12.5160 N.4       8 LYP4        0.0000 
      4 Zn        -10.0420   11.8705  -13.2210 Zn        4 ZIC7        0.0000 
      5 Zn        -10.8710   11.2850  -12.8800 Zn       14 ZIL7        0.0000 
      6 Zn         -9.2130   12.4560  -13.5620 Zn        9 ZIP7        0.0000 
      7 NZ        -11.1570    8.7620  -11.8025 N.4       3 LYC4        0.0000 
      8 NZ        -12.2760   10.0960  -11.0890 N.4      13 LYL4        0.0000 
      9 NZ         -9.9175    8.6480  -11.8335 N.4       3 LYC4        0.0000 
     10 NZ         -9.7970    9.8680  -11.1510 N.4      13 LYL4        0.0000 
     11 N          -9.9175    8.6480  -11.8335 N.am      2 SEC2        0.0000 
     12 N          -9.7970    9.8680  -11.1510 N.am     12 SEL2        0.0000 
     13 N         -10.0380    7.4280  -12.5160 N.am      7 SEP2        0.0000 
     14 NZ         -8.0895   14.2210  -10.3580 N.4       3 LYC4        0.0000 
     15 NZ         -9.4580   13.7180   -9.2310 N.4      13 LYL4        0.0000 
     16 NZ         -6.7210   14.7240  -11.4850 N.4       8 LYP4        0.0000 
     17 Zn         -9.4370   12.7170   -8.2935 Zn        4 ZIC7        0.0000 
     18 Zn         -9.4580   13.7180   -9.2310 Zn       14 ZIL7        0.0000 
     19 Zn         -9.4160   11.7160   -7.3560 Zn        9 ZIP7        0.0000 
     20 NZ         -7.8795   14.0070  -11.6120 N.4       3 LYC4        0.0000 
     21 NZ         -9.0380   13.2900  -11.7390 N.4      13 LYL4        0.0000 
     22 Zn         -9.1255   12.8730  -12.6505 Zn        4 ZIC7        0.0000 
     23 Zn         -9.0380   13.2900  -11.7390 Zn       14 ZIL7        0.0000 
     24 N          -7.8795   14.0070  -11.6120 N.am      2 SEC2        0.0000 
     25 N          -9.0380   13.2900  -11.7390 N.am     12 SEL2        0.0000 
     26 N          -6.7210   14.7240  -11.4850 N.am      7 SEP2        0.0000 
     27 CA        -12.3725   12.8770   -8.5985 C.3       5 GLC5        0.0000 
     28 CA        -12.2720   14.4260  -10.1030 C.3      15 GLL5        0.0000 
     29 CA        -12.4730   11.3280   -7.0940 C.3      10 GLP5        0.0000 
     30 CA        -14.5995   16.2770   -9.7540 C.3       5 GLC5        0.0000 
     31 CA        -13.4340   15.1160  -10.8090 C.3      15 GLL5        0.0000 
     32 CA        -15.7650   17.4380   -8.6990 C.3      10 GLP5        0.0000 
     33 CA        -14.7230   17.2420  -10.4080 C.3       5 GLC5        0.0000 
     34 CA        -13.6810   17.0460  -12.1170 C.3      15 GLL5        0.0000 
     35 CA        -12.5170   18.0805  -10.7215 C.3       5 GLC5        0.0000 
     36 CA        -11.3530   19.1150   -9.3260 C.3      10 GLP5        0.0000 
     37 CA        -10.3085   21.5650  -13.8620 C.3       5 GLC5        0.0000 
     38 CA        -10.9880   20.1380  -14.9860 C.3      15 GLL5        0.0000 
     39 CA         -9.6290   22.9920  -12.7380 C.3      10 GLP5        0.0000 
     40 O          -9.2155   21.4950  -16.0915 O.2       1 ALC1        0.0000 
     41 O          -9.7620   20.3540  -15.5120 O.2      11 ALL1        0.0000 
     42 O          -8.6690   22.6360  -16.6710 O.2       6 ALP1        0.0000 
     43 N         -12.0950   22.1445  -16.2365 N.am      2 SEC2        0.0000 
     44 N         -12.0100   20.9950  -15.1660 N.am     12 SEL2        0.0000 
     45 N         -12.1800   23.2940  -17.3070 N.am      7 SEP2        0.0000 
     46 CA        -13.5015   21.9950  -13.0840 C.3       5 GLC5        0.0000 
     47 CA        -13.2230   20.7800  -14.5930 C.3      15 GLL5        0.0000 
     48 CA        -13.7800   23.2100  -11.5750 C.3      10 GLP5        0.0000 
     49 CA        -13.1955   21.1340  -16.6460 C.3       5 GLC5        0.0000 
     50 CA        -13.1680   21.4880  -18.6990 C.3      10 GLP5        0.0000 
     51 CA        -14.4380   19.8400  -15.6730 C.3       5 GLC5        0.0000 
     52 CA        -15.6530   18.9000  -16.7530 C.3      10 GLP5        0.0000 
     53 CA        -13.4120   14.7565   -8.5715 C.3       5 GLC5        0.0000 
     54 CA        -13.9710   14.7420   -6.6870 C.3      10 GLP5        0.0000 
     55 CA        -11.6535   16.3120   -9.9630 C.3       5 GLC5        0.0000 
     56 CA        -10.4540   17.8530   -9.4700 C.3      10 GLP5        0.0000 
     57 CA        -14.9320   14.8740  -14.1375 C.3       5 GLC5        0.0000 
     58 CA        -13.5930   14.7080  -12.2540 C.3      15 GLL5        0.0000 
     59 CA        -15.9130   14.4520  -15.7240 C.3      10 GLP5        0.0000 
     60 CA        -11.4337   19.5048  -12.1258 C.3       5 GLC5        0.0000 
     61 CA        -12.5900   18.7640  -13.5790 C.3      15 GLL5        0.0000 
     62 CA        -10.9460   20.1560  -10.3890 C.3      10 GLP5        0.0000 
     63 CA        -10.6792   17.8702  -15.6140 C.3       5 GLC5        0.0000 
     64 CA        -11.2530   18.9430  -14.1460 C.3      15 GLL5        0.0000 
     65 CA        -10.2380   16.2000  -16.6620 C.3      10 GLP5        0.0000 
     66 CA        -12.9751   18.6081  -15.5753 C.3       5 GLC5        0.0000 
     67 CA        -14.0950   18.0640  -17.0780 C.3      10 GLP5        0.0000 
@<TRIPOS>BOND
@<TRIPOS>SUBSTRUCTURE
     1 ALC1       40 GROUP        1 X    ALC  0     ROOT ALC X 1
     2 SEC2       11 GROUP        1 X    SEC  0     **** SEC X 2
     3 LYC4        1 GROUP        1 X    LYC  0     **** LYC X 4
     4 ZIC7        4 GROUP        1 X    ZIC  0     **** ZIC X 5
     5 GLC5       27 GROUP        1 X    GLC  0     **** GLC X 6
     6 ALP1       42 GROUP        1 Y    ALP  0     ROOT ALP Y 8
     7 SEP2       13 GROUP        1 Y    SEP  0     **** SEP Y 9
     8 LYP4        3 GROUP        1 Y    LYP  0     **** LYP Y 11
     9 ZIP7        6 GROUP        1 Y    ZIP  0     **** ZIP Y 12
    10 GLP5       29 GROUP        1 Y    GLP  0     **** GLP Y 13
    11 ALL1       41 GROUP        1 Z    ALL  0     ROOT ALL Z 15
    12 SEL2       12 GROUP        1 Z    SEL  0     **** SEL Z 16
    13 LYL4        2 GROUP        1 Z    LYL  0     **** LYL Z 18
    14 ZIL7        5 GROUP        1 Z    ZIL  0     **** ZIL Z 19
    15 GLL5       28 GROUP        1 Z    GLL  0     **** GLL Z 20
@<TRIPOS>SET

