#    Name: 3f61_ADP_1_ligand
#    Modification time : Tue Mar 25 03:15:43 2014

@<TRIPOS>MOLECULE
3f61_ADP_1_ligand
   39    41     1     0     0
SMALL
NO_CHARGES


@<TRIPOS>ATOM
      1 PB        -10.9940   10.7540  -11.4670 P.3       1 ADP340      0.0000 
      2 O1B       -10.8710   11.2850  -12.8800 O.co2     1 ADP340      0.0000 
      3 O2B       -12.2760   10.0960  -11.0890 O.co2     1 ADP340      0.0000 
      4 O3B        -9.7970    9.8680  -11.1510 O.co2     1 ADP340      0.0000 
      5 PA         -9.9980   13.3260  -10.5700 P.3       1 ADP340      0.0000 
      6 O1A        -9.4580   13.7180   -9.2310 O.co2     1 ADP340      0.0000 
      7 O2A        -9.0380   13.2900  -11.7390 O.co2     1 ADP340      0.0000 
      8 O3A       -10.8820   11.9870  -10.4240 O.3       1 ADP340      0.0000 
      9 O5'       -11.1170   14.3920  -10.9460 O.3       1 ADP340      0.0000 
     10 C5'       -12.2720   14.4260  -10.1030 C.3       1 ADP340      0.0000 
     11 C4'       -13.4340   15.1160  -10.8090 C.3       1 ADP340      0.0000 
     12 O4'       -13.1320   16.4980  -10.9130 O.3       1 ADP340      0.0000 
     13 C3'       -13.5930   14.7080  -12.2540 C.3       1 ADP340      0.0000 
     14 O3'       -14.3720   13.5260  -12.4350 O.3       1 ADP340      0.0000 
     15 C2'       -14.3090   15.8840  -12.8480 C.3       1 ADP340      0.0000 
     16 O2'       -15.6820   15.8730  -12.4070 O.3       1 ADP340      0.0000 
     17 C1'       -13.6810   17.0460  -12.1170 C.3       1 ADP340      0.0000 
     18 N9        -12.5500   17.6110  -12.8940 N.pl3     1 ADP340      0.0000 
     19 C8        -11.3130   17.0700  -12.9890 C.2       1 ADP340      0.0000 
     20 N7        -10.5200   17.8770  -13.7420 N.2       1 ADP340      0.0000 
     21 C5        -11.2530   18.9430  -14.1460 C.ar      1 ADP340      0.0000 
     22 C6        -10.9880   20.1380  -14.9860 C.ar      1 ADP340      0.0000 
     23 N6         -9.7620   20.3540  -15.5120 N.pl3     1 ADP340      0.0000 
     24 N1        -12.0100   20.9950  -15.1660 N.ar      1 ADP340      0.0000 
     25 C2        -13.2230   20.7800  -14.5930 C.ar      1 ADP340      0.0000 
     26 N3        -13.5460   19.6940  -13.8330 N.ar      1 ADP340      0.0000 
     27 C4        -12.5900   18.7640  -13.5790 C.ar      1 ADP340      0.0000 
     28 H         -12.0747   14.9723   -9.1688 H         1 ADP340      0.0000 
     29 H         -12.6008   13.4133   -9.8266 H         1 ADP340      0.0000 
     30 H         -14.3363   14.9582  -10.2914 H         1 ADP340      0.0000 
     31 H         -12.6263   14.6534  -12.6999 H         1 ADP340      0.0000 
     32 H         -14.1693   15.9631  -13.8429 H         1 ADP340      0.0000 
     33 H         -14.4068   17.7776  -11.9131 H         1 ADP340      0.0000 
     34 H         -11.0323   16.2345  -12.5831 H         1 ADP340      0.0000 
     35 H          -9.0688   19.6617  -15.3112 H         1 ADP340      0.0000 
     36 H          -9.6568   21.1869  -16.0553 H         1 ADP340      0.0000 
     37 H         -13.9851   21.5178  -14.7484 H         1 ADP340      0.0000 
     38 H         -15.3198   13.8431  -12.4665 H         1 ADP340      0.0000 
     39 H         -16.1519   16.5196  -13.0079 H         1 ADP340      0.0000 
@<TRIPOS>BOND
     1    2    1 ar   
     2    3    1 ar   
     3    4    1 ar   
     4    8    1 1    
     5    6    5 ar   
     6    7    5 ar   
     7    8    5 1    
     8    9    5 1    
     9   10    9 1    
    10   11   10 1    
    11   28   10 1    
    12   29   10 1    
    13   12   11 1    
    14   13   11 1    
    15   30   11 1    
    16   17   12 1    
    17   14   13 1    
    18   15   13 1    
    19   31   13 1    
    20   38   14 1    
    21   16   15 1    
    22   17   15 1    
    23   32   15 1    
    24   39   16 1    
    25   18   17 1    
    26   33   17 1    
    27   19   18 1    
    28   27   18 1    
    29   20   19 2    
    30   34   19 1    
    31   21   20 1    
    32   22   21 ar   
    33   27   21 ar   
    34   23   22 1    
    35   24   22 ar   
    36   35   23 1    
    37   36   23 1    
    38   25   24 ar   
    39   26   25 ar   
    40   37   25 1    
    41   27   26 ar   
@<TRIPOS>SUBSTRUCTURE
     1 ADP340      1 GROUP   
@<TRIPOS>SET

