#    Name: 3NH8_1_CAVITY_N1_ALL.mol2
#    Modification time : Tue Mar 11 17:17:30 2014

@<TRIPOS>MOLECULE
3NH8_1_CAVITY_N1_ALL.mol2
   91     0     7     0     0
SMALL
NO_CHARGES


@<TRIPOS>ATOM
      1 CZ         -0.2357  -35.6370  -12.2820 C.ar      5 PHE5        0.0000 
      2 OG         -1.5184  -36.4212  -10.7854 O.2       1 SER1        0.0000 
      3 DU         -1.7126  -35.5959  -12.0228 H         7 CUB7        0.0000 
      4 CZ         -1.9067  -34.7705  -13.2601 C.ar      5 PHE5        0.0000 
      5 O          -3.1894  -35.5547  -11.7636 O.2       2 ALA2        0.0000 
      6 CA         -3.3836  -34.7293  -13.0009 C.3       6 GLY6        0.0000 
      7 OG         -4.4721  -36.3389  -10.2670 O.2       1 SER1        0.0000 
      8 O          -4.6663  -35.5135  -11.5044 O.2       2 ALA2        0.0000 
      9 O          -5.7548  -37.1231   -8.7704 O.2       2 ALA2        0.0000 
     10 CZ         -0.0591  -34.3852  -11.4747 C.ar      5 PHE5        0.0000 
     11 CZ         -0.2533  -33.5598  -12.7120 C.ar      5 PHE5        0.0000 
     12 CZ         -1.5360  -34.3440  -11.2155 C.ar      5 PHE5        0.0000 
     13 CZ         -1.7301  -33.5187  -12.4528 C.ar      5 PHE5        0.0000 
     14 CZ         -3.0128  -34.3029  -10.9562 C.ar      5 PHE5        0.0000 
     15 CZ         -3.2070  -33.4775  -12.1936 C.ar      5 PHE5        0.0000 
     16 CZ         -4.2955  -35.0871   -9.4597 C.ar      5 PHE5        0.0000 
     17 O          -4.4897  -34.2617  -10.6970 O.2       2 ALA2        0.0000 
     18 CA         -4.6839  -33.4363  -11.9344 C.3       6 GLY6        0.0000 
     19 CZ         -5.3841  -36.6966   -6.7258 C.ar      5 PHE5        0.0000 
     20 CZ         -5.5782  -35.8713   -7.9631 C.ar      5 PHE5        0.0000 
     21 O          -5.7724  -35.0459   -9.2005 O.2       2 ALA2        0.0000 
     22 OG         -6.8609  -36.6554   -6.4665 O.2       1 SER1        0.0000 
     23 OG         -7.0551  -35.8301   -7.7039 O.2       1 SER1        0.0000 
     24 OG        -10.2030  -34.9223   -8.4228 O.2       1 SER1        0.0000 
     25 O         -10.3971  -34.0969   -9.6602 O.2       2 ALA2        0.0000 
     26 O         -11.6798  -34.8811   -8.1636 O.2       2 ALA2        0.0000 
     27 CA          0.1175  -33.1334  -10.6674 C.3       6 GLY6        0.0000 
     28 CZ         -1.3594  -33.0922  -10.4081 C.ar      5 PHE5        0.0000 
     29 NZ         -1.5535  -32.2668  -11.6455 N.2       4 LYS4        0.0000 
     30 CZ         -2.8362  -33.0510  -10.1489 C.ar      5 PHE5        0.0000 
     31 NZ         -3.0304  -32.2257  -11.3863 N.2       4 LYS4        0.0000 
     32 CZ         -4.1189  -33.8352   -8.6524 C.ar      5 PHE5        0.0000 
     33 DU         -4.3131  -33.0099   -9.8897 H         7 CUB7        0.0000 
     34 NZ         -4.5072  -32.1845  -11.1271 N.2       4 LYS4        0.0000 
     35 CZ         -5.4016  -34.6194   -7.1558 C.ar      5 PHE5        0.0000 
     36 CZ         -5.5958  -33.7941   -8.3931 C.ar      5 PHE5        0.0000 
     37 O          -5.7899  -32.9687   -9.6305 O.2       2 ALA2        0.0000 
     38 O          -5.9841  -32.1433  -10.8679 O.2       2 ALA2        0.0000 
     39 OG         -6.6843  -35.4036   -5.6592 O.2       1 SER1        0.0000 
     40 OG         -6.8785  -34.5782   -6.8966 O.2       1 SER1        0.0000 
     41 O          -7.0726  -33.7529   -8.1339 O.2       2 ALA2        0.0000 
     42 O          -7.2668  -32.9275   -9.3713 O.2       2 ALA2        0.0000 
     43 OG         -8.3553  -34.5371   -6.6374 O.2       1 SER1        0.0000 
     44 OG         -8.5495  -33.7117   -7.8747 O.2       1 SER1        0.0000 
     45 O          -8.7437  -32.8863   -9.1121 O.2       2 ALA2        0.0000 
     46 OG        -10.0264  -33.6705   -7.6155 O.2       1 SER1        0.0000 
     47 O         -10.2205  -32.8451   -8.8529 O.2       2 ALA2        0.0000 
     48 OG        -11.3091  -34.4547   -6.1189 O.2       1 SER1        0.0000 
     49 OD1       -11.5032  -33.6293   -7.3563 O.3       3 ASP3        0.0000 
     50 OD1       -11.6974  -32.8039   -8.5936 O.3       3 ASP3        0.0000 
     51 NZ         -1.1828  -31.8404   -9.6008 N.2       4 LYS4        0.0000 
     52 NZ         -2.6596  -31.7992   -9.3416 N.2       4 LYS4        0.0000 
     53 CZ         -3.9423  -32.5834   -7.8450 C.ar      5 PHE5        0.0000 
     54 NZ         -4.1365  -31.7580   -9.0824 N.2       4 LYS4        0.0000 
     55 NZ         -4.3306  -30.9327  -10.3198 N.2       4 LYS4        0.0000 
     56 CA         -5.4192  -32.5422   -7.5858 C.3       6 GLY6        0.0000 
     57 DU         -5.6133  -31.7169   -8.8232 H         7 CUB7        0.0000 
     58 CA         -5.8075  -30.8915  -10.0605 C.3       6 GLY6        0.0000 
     59 CZ         -6.5077  -34.1518   -4.8519 C.ar      5 PHE5        0.0000 
     60 CA         -6.7019  -33.3264   -6.0893 C.3       6 GLY6        0.0000 
     61 CA         -6.8960  -32.5010   -7.3266 C.3       6 GLY6        0.0000 
     62 O          -7.0902  -31.6757   -8.5640 O.2       2 ALA2        0.0000 
     63 CA         -8.1787  -33.2852   -5.8300 C.3       6 GLY6        0.0000 
     64 DU         -8.3729  -32.4599   -7.0674 H         7 CUB7        0.0000 
     65 O          -8.5671  -31.6345   -8.3048 O.2       2 ALA2        0.0000 
     66 CA         -9.6556  -33.2441   -5.5708 C.3       6 GLY6        0.0000 
     67 CA         -9.8497  -32.4187   -6.8082 C.3       6 GLY6        0.0000 
     68 O         -10.0439  -31.5933   -8.0455 O.2       2 ALA2        0.0000 
     69 CA        -11.1324  -33.2029   -5.3116 C.3       6 GLY6        0.0000 
     70 CA        -11.3266  -32.3775   -6.5490 C.3       6 GLY6        0.0000 
     71 O         -11.5208  -31.5521   -7.7863 O.2       2 ALA2        0.0000 
     72 CA        -12.6093  -33.1617   -5.0524 C.3       6 GLY6        0.0000 
     73 OD1       -12.8035  -32.3363   -6.2898 O.3       3 ASP3        0.0000 
     74 CA         -3.7657  -31.3316   -7.0377 C.3       6 GLY6        0.0000 
     75 CA         -3.9599  -30.5062   -8.2751 C.3       6 GLY6        0.0000 
     76 CA         -5.2426  -31.2904   -6.7785 C.3       6 GLY6        0.0000 
     77 NZ         -5.4367  -30.4650   -8.0159 N.2       4 LYS4        0.0000 
     78 NZ         -5.6309  -29.6397   -9.2532 N.2       4 LYS4        0.0000 
     79 CA         -6.7194  -31.2492   -6.5193 C.3       6 GLY6        0.0000 
     80 CA         -6.9136  -30.4239   -7.7567 C.3       6 GLY6        0.0000 
     81 CA         -7.1077  -29.5985   -8.9940 C.3       6 GLY6        0.0000 
     82 CA         -8.1963  -31.2080   -6.2601 C.3       6 GLY6        0.0000 
     83 CA         -8.3904  -30.3827   -7.4974 C.3       6 GLY6        0.0000 
     84 CA         -9.6731  -31.1669   -6.0009 C.3       6 GLY6        0.0000 
     85 CA         -9.8673  -30.3415   -7.2382 C.3       6 GLY6        0.0000 
     86 CA        -10.9558  -31.9511   -4.5043 C.3       6 GLY6        0.0000 
     87 CA        -11.1500  -31.1257   -5.7417 C.3       6 GLY6        0.0000 
     88 CZ         -2.0834  -36.0223  -14.0675 C.ar      5 PHE5        0.0000 
     89 O          -3.3660  -36.8065  -12.5709 O.2       2 ALA2        0.0000 
     90 CA         -3.5602  -35.9811  -13.8082 C.3       6 GLY6        0.0000 
     91 O          -4.6487  -37.5907  -11.0743 O.2       2 ALA2        0.0000 
@<TRIPOS>BOND
@<TRIPOS>SUBSTRUCTURE
     1 SER1        2 GROUP   
     2 ALA2        5 GROUP   
     3 ASP3       49 GROUP   
     4 LYS4       29 GROUP   
     5 PHE5        1 GROUP   
     6 GLY6        6 GROUP   
     7 CUB7        3 GROUP   
@<TRIPOS>SET

