#    Name: 3nh8_DC2_1_INTS_M
#    Modification time : Tue Mar 25 01:34:01 2014

@<TRIPOS>MOLECULE
3nh8_DC2_1_INTS_M
   47     0    12     0     0
SMALL
NO_CHARGES


@<TRIPOS>ATOM
      1 NZ         -9.2770  -34.0295  -10.5855 N.4       2 LYC4        0.0000 
      2 NZ        -10.3030  -33.7700   -9.5750 N.4      10 LYL4        0.0000 
      3 NZ         -7.6770  -35.4920  -11.5670 N.4       6 LYP4        0.0000 
      4 N         -11.3410  -34.8340  -10.3570 N.am      1 SEC2        0.0000 
      5 N         -10.3030  -33.7700   -9.5750 N.am      9 SEL2        0.0000 
      6 N         -12.3790  -35.8980  -11.1390 N.am      5 SEP2        0.0000 
      7 N          -9.2770  -34.0295  -10.5855 N.am      1 SEC2        0.0000 
      8 N          -8.2510  -34.2890  -11.5960 N.am      5 SEP2        0.0000 
      9 CA         -6.1990  -29.5150  -10.0655 C.3       4 GLC5        0.0000 
     10 CA         -6.4240  -30.4500   -8.1260 C.3      12 GLL5        0.0000 
     11 CA         -5.9740  -28.5800  -12.0050 C.3       8 GLP5        0.0000 
     12 CA         -7.4965  -29.0950   -7.5940 C.3       4 GLC5        0.0000 
     13 CA         -8.5690  -27.7400   -7.0620 C.3       8 GLP5        0.0000 
     14 CA         -4.8745  -35.3310   -6.7250 C.3       4 GLC5        0.0000 
     15 CA         -6.8340  -34.6870   -6.9940 C.3      12 GLL5        0.0000 
     16 CA         -2.9150  -35.9750   -6.4560 C.3       8 GLP5        0.0000 
     17 CA        -12.2855  -31.5355   -7.2300 C.3       4 GLC5        0.0000 
     18 CA        -11.2210  -33.3560   -7.3920 C.3      12 GLL5        0.0000 
     19 CA        -13.3500  -29.7150   -7.0680 C.3       8 GLP5        0.0000 
     20 Zn        -13.9255  -33.5300   -8.3420 Zn        3 ZIC7        0.0000 
     21 Zn        -13.5720  -34.6040   -8.3510 Zn       11 ZIL7        0.0000 
     22 Zn        -14.2790  -32.4560   -8.3330 Zn        7 ZIP7        0.0000 
     23 N         -14.0395  -35.4105   -9.3635 N.am      1 SEC2        0.0000 
     24 N         -13.5720  -34.6040   -8.3510 N.am      9 SEL2        0.0000 
     25 N         -14.5070  -36.2170  -10.3760 N.am      5 SEP2        0.0000 
     26 N         -12.9755  -35.2510   -9.7450 N.am      1 SEC2        0.0000 
     27 CA        -13.4090  -38.0525   -6.2420 C.3       4 GLC5        0.0000 
     28 CA        -13.0250  -36.4780   -6.7340 C.3      12 GLL5        0.0000 
     29 CA        -13.7930  -39.6270   -5.7500 C.3       8 GLP5        0.0000 
     30 CA        -13.8785  -37.9085   -8.2140 C.3       4 GLC5        0.0000 
     31 CA        -14.7320  -39.3390   -9.6940 C.3       8 GLP5        0.0000 
     32 CA        -11.7540  -37.4725   -7.3890 C.3       4 GLC5        0.0000 
     33 CA        -10.4830  -38.4670   -8.0440 C.3       8 GLP5        0.0000 
     34 CA         -8.7510  -29.5895   -7.1155 C.3       4 GLC5        0.0000 
     35 CA         -8.9330  -31.4390   -7.1690 C.3      12 GLL5        0.0000 
     36 CA         -4.5905  -33.9280   -6.5130 C.3       4 GLC5        0.0000 
     37 CA         -6.3570  -33.0020   -7.3920 C.3      12 GLL5        0.0000 
     38 CA         -2.8240  -34.8540   -5.6340 C.3       8 GLP5        0.0000 
     39 N         -11.4825  -35.6930   -9.6640 N.am      1 SEC2        0.0000 
     40 N         -10.5860  -35.4880   -8.1890 N.am      9 SEL2        0.0000 
     41 CA        -10.8915  -30.5045   -7.0098 C.3       4 GLC5        0.0000 
     42 CA        -12.2350  -28.9580   -7.1810 C.3       8 GLP5        0.0000 
     43 CA         -9.2750  -31.6300   -4.9772 C.3       4 GLC5        0.0000 
     44 CA         -9.0020  -31.2090   -3.1160 C.3       8 GLP5        0.0000 
     45 CA         -6.1493  -31.2835   -6.0064 C.3       4 GLC5        0.0000 
     46 CA         -7.3720  -31.9980   -8.0210 C.3      12 GLL5        0.0000 
     47 CA         -5.6710  -30.4540   -4.2800 C.3       8 GLP5        0.0000 
@<TRIPOS>BOND
@<TRIPOS>SUBSTRUCTURE
     1 SEC2        4 GROUP        1 X    SEC  0     ROOT SEC X 2
     2 LYC4        1 GROUP        1 X    LYC  0     **** LYC X 4
     3 ZIC7       20 GROUP        1 X    ZIC  0     **** ZIC X 5
     4 GLC5        9 GROUP        1 X    GLC  0     **** GLC X 6
     5 SEP2        6 GROUP        1 Y    SEP  0     ROOT SEP Y 9
     6 LYP4        3 GROUP        1 Y    LYP  0     **** LYP Y 11
     7 ZIP7       22 GROUP        1 Y    ZIP  0     **** ZIP Y 12
     8 GLP5       11 GROUP        1 Y    GLP  0     **** GLP Y 13
     9 SEL2        5 GROUP        1 Z    SEL  0     ROOT SEL Z 16
    10 LYL4        2 GROUP        1 Z    LYL  0     **** LYL Z 18
    11 ZIL7       21 GROUP        1 Z    ZIL  0     **** ZIL Z 19
    12 GLL5       10 GROUP        1 Z    GLL  0     **** GLL Z 20
@<TRIPOS>SET

