#    Name: 3nh8_DC2_1_ligand
#    Modification time : Tue Mar 25 01:34:01 2014

@<TRIPOS>MOLECULE
3nh8_DC2_1_ligand
   24    23     1     0     0
SMALL
NO_CHARGES


@<TRIPOS>ATOM
      1 O1        -10.3030  -33.7700   -9.5750 O.co2     1 DC2322      0.0000 
      2 CL1        -6.4240  -30.4500   -8.1260 Cl        1 DC2322      0.0000 
      3 C2        -10.6520  -34.2800   -8.4760 C.2       1 DC2322      0.0000 
      4 CL2        -6.8340  -34.6870   -6.9940 Cl        1 DC2322      0.0000 
      5 C4        -11.2210  -33.3560   -7.3920 C.3       1 DC2322      0.0000 
      6 N         -12.0600  -34.1190   -6.4710 N.am      1 DC2322      0.0000 
      7 C6        -12.8670  -35.0530   -7.2190 C.2       1 DC2322      0.0000 
      8 O7        -13.5720  -34.6040   -8.3510 O.2       1 DC2322      0.0000 
      9 C8        -13.0250  -36.4780   -6.7340 C.3       1 DC2322      0.0000 
     10 C9        -10.1630  -32.6630   -6.5080 C.3       1 DC2322      0.0000 
     11 S10        -8.9330  -31.4390   -7.1690 S.3       1 DC2322      0.0000 
     12 C11        -7.3720  -31.9980   -8.0210 C.3       1 DC2322      0.0000 
     13 C12        -6.3570  -33.0020   -7.3920 C.3       1 DC2322      0.0000 
     14 OXT       -10.5860  -35.4880   -8.1890 O.co2     1 DC2322      0.0000 
     15 H         -11.8202  -32.5840   -7.8572 H         1 DC2322      0.0000 
     16 H         -12.0661  -34.0119   -5.5447 H         1 DC2322      0.0000 
     17 H          -9.4830  -33.3923   -6.0021 H         1 DC2322      0.0000 
     18 H         -10.6201  -32.0732   -5.6753 H         1 DC2322      0.0000 
     19 H          -7.6286  -32.1484   -9.0123 H         1 DC2322      0.0000 
     20 H          -5.4716  -33.1488   -8.0461 H         1 DC2322      0.0000 
     21 H          -5.9607  -32.6274   -6.4246 H         1 DC2322      0.0000 
     22 H         -12.1460  -36.9519   -6.6811 H         1 DC2322      0.0000 
     23 H         -13.4342  -36.5168   -5.8224 H         1 DC2322      0.0000 
     24 H         -13.6111  -37.0142   -7.3414 H         1 DC2322      0.0000 
@<TRIPOS>BOND
     1    3    1 ar   
     2   12    2 1    
     3    5    3 1    
     4   14    3 ar   
     5   13    4 1    
     6    6    5 1    
     7   10    5 1    
     8   15    5 1    
     9    7    6 am   
    10   16    6 1    
    11    8    7 2    
    12    9    7 1    
    13   22    9 1    
    14   23    9 1    
    15   24    9 1    
    16   11   10 1    
    17   17   10 1    
    18   18   10 1    
    19   12   11 1    
    20   13   12 1    
    21   19   12 1    
    22   20   13 1    
    23   21   13 1    
@<TRIPOS>SUBSTRUCTURE
     1 DC2322      1 GROUP   
@<TRIPOS>SET

