#    Name: 3rv8_RVC_3_INTS_M
#    Modification time : Tue Mar 25 12:02:37 2014

@<TRIPOS>MOLECULE
3rv8_RVC_3_INTS_M
   36     0     9     0     0
SMALL
NO_CHARGES


@<TRIPOS>ATOM
      1 NZ         49.6615  -14.7330   21.7345 N.4       2 LYC4        0.0000 
      2 NZ         50.0100  -16.0780   22.7860 N.4       8 LYL4        0.0000 
      3 NZ         49.3130  -13.3880   20.6830 N.4       5 LYP4        0.0000 
      4 N          44.7985  -14.0690   16.7140 N.am      1 SEC2        0.0000 
      5 N          46.0750  -14.7830   17.0390 N.am      7 SEL2        0.0000 
      6 N          43.5220  -13.3550   16.3890 N.am      4 SEP2        0.0000 
      7 N          46.4055  -13.3790   16.6105 N.am      1 SEC2        0.0000 
      8 N          46.7360  -11.9750   16.1820 N.am      4 SEP2        0.0000 
      9 CA         44.4240  -21.3840   24.0175 C.3       3 GLC5        0.0000 
     10 CA         46.0340  -20.0730   24.4090 C.3       9 GLL5        0.0000 
     11 CA         42.8140  -22.6950   23.6260 C.3       6 GLP5        0.0000 
     12 CA         45.6515  -17.5130   23.6565 C.3       3 GLC5        0.0000 
     13 CA         47.6120  -18.1640   23.9970 C.3       9 GLL5        0.0000 
     14 CA         43.5250  -17.3090   23.7620 C.3       6 GLP5        0.0000 
     15 CA         44.8310  -16.2542   22.5840 C.3       3 GLC5        0.0000 
     16 CA         46.4690  -15.6760   21.7740 C.3       9 GLL5        0.0000 
     17 CA         44.9745  -16.5843   20.4390 C.3       3 GLC5        0.0000 
     18 CA         43.8120  -17.9690   19.4720 C.3       6 GLP5        0.0000 
     19 CA         48.0745  -14.8463   20.7615 C.3       3 GLC5        0.0000 
     20 CA         45.8050  -14.7230   21.0380 C.3       9 GLL5        0.0000 
     21 CA         50.0120  -14.4930   20.1170 C.3       6 GLP5        0.0000 
     22 CA         44.9970  -16.6060   19.4050 C.3       3 GLC5        0.0000 
     23 CA         45.8340  -14.7540   19.6730 C.3       9 GLL5        0.0000 
     24 CA         48.0970  -14.8680   19.7275 C.3       3 GLC5        0.0000 
     25 CA         46.5300  -15.7320   19.0030 C.3       9 GLL5        0.0000 
     26 CA         46.5207  -21.1395   26.1060 C.3       3 GLC5        0.0000 
     27 CA         47.3710  -20.6590   24.3270 C.3       9 GLL5        0.0000 
     28 CA         46.3390  -21.9130   27.8440 C.3       6 GLP5        0.0000 
     29 CA         45.0310  -18.5403   23.8580 C.3       3 GLC5        0.0000 
     30 CA         45.4970  -17.3137   19.9513 C.3       3 GLC5        0.0000 
     31 CA         47.1630  -16.6520   21.1210 C.3       9 GLL5        0.0000 
     32 CA         48.5970  -15.5758   20.2737 C.3       3 GLC5        0.0000 
     33 CA         47.2010  -16.6650   19.7400 C.3       9 GLL5        0.0000 
     34 CA         46.6966  -21.0705   22.2933 C.3       3 GLC5        0.0000 
     35 CA         47.0400  -19.4700   23.4990 C.3       9 GLL5        0.0000 
     36 CA         46.5220  -22.2230   20.6530 C.3       6 GLP5        0.0000 
@<TRIPOS>BOND
@<TRIPOS>SUBSTRUCTURE
     1 SEC2        4 GROUP        1 X    SEC  0     ROOT SEC X 2
     2 LYC4        1 GROUP        1 X    LYC  0     **** LYC X 4
     3 GLC5        9 GROUP        1 X    GLC  0     **** GLC X 6
     4 SEP2        6 GROUP        1 Y    SEP  0     ROOT SEP Y 9
     5 LYP4        3 GROUP        1 Y    LYP  0     **** LYP Y 11
     6 GLP5       11 GROUP        1 Y    GLP  0     **** GLP Y 13
     7 SEL2        5 GROUP        1 Z    SEL  0     ROOT SEL Z 16
     8 LYL4        2 GROUP        1 Z    LYL  0     **** LYL Z 18
     9 GLL5       10 GROUP        1 Z    GLL  0     **** GLL Z 20
@<TRIPOS>SET

