#    Name: 3rv8_RVC_3_ligand
#    Modification time : Tue Mar 25 12:02:37 2014

@<TRIPOS>MOLECULE
3rv8_RVC_3_ligand
   29    30     1     0     0
SMALL
NO_CHARGES


@<TRIPOS>ATOM
      1 OB'        50.0100  -16.0780   22.7860 O.co2     1 RVC451      0.0000 
      2 OB         47.0760  -16.6150   17.0430 O.co2     1 RVC451      0.0000 
      3 OA'        48.9740  -15.7150   24.5980 O.co2     1 RVC451      0.0000 
      4 OA         46.0750  -14.7830   17.0390 O.co2     1 RVC451      0.0000 
      5 O2         47.8650  -17.6050   19.1040 O.3       1 RVC451      0.0000 
      6 C8         47.6120  -18.1640   23.9970 C.2       1 RVC451      0.0000 
      7 C5         45.8050  -14.7230   21.0380 C.ar      1 RVC451      0.0000 
      8 C4         46.4690  -15.6760   21.7740 C.ar      1 RVC451      0.0000 
      9 C6         45.8340  -14.7540   19.6730 C.ar      1 RVC451      0.0000 
     10 C10        46.0340  -20.0730   24.4090 C.3       1 RVC451      0.0000 
     11 C11        47.3710  -20.6590   24.3270 C.3       1 RVC451      0.0000 
     12 O3         47.8150  -17.5910   21.8040 O.3       1 RVC451      0.0000 
     13 C'         49.0550  -16.3080   23.5290 C.2       1 RVC451      0.0000 
     14 C          46.5440  -15.7220   17.6420 C.2       1 RVC451      0.0000 
     15 C7         47.9440  -17.2700   23.1050 C.2       1 RVC451      0.0000 
     16 C2         47.2010  -16.6650   19.7400 C.ar      1 RVC451      0.0000 
     17 C3         47.1630  -16.6520   21.1210 C.ar      1 RVC451      0.0000 
     18 C1         46.5300  -15.7320   19.0030 C.ar      1 RVC451      0.0000 
     19 C9         47.0400  -19.4700   23.4990 C.3       1 RVC451      0.0000 
     20 H          47.6963  -18.0784   24.9995 H         1 RVC451      0.0000 
     21 H          45.2775  -13.9742   21.5288 H         1 RVC451      0.0000 
     22 H          46.4397  -15.6489   22.8019 H         1 RVC451      0.0000 
     23 H          45.3229  -14.0282   19.1283 H         1 RVC451      0.0000 
     24 H          45.9695  -19.5316   25.1961 H         1 RVC451      0.0000 
     25 H          45.4233  -20.5947   23.8878 H         1 RVC451      0.0000 
     26 H          47.3461  -21.4360   23.7687 H         1 RVC451      0.0000 
     27 H          47.8923  -20.3730   25.0770 H         1 RVC451      0.0000 
     28 H          46.8675  -19.7320   22.6259 H         1 RVC451      0.0000 
     29 H          48.1123  -17.1974   18.2250 H         1 RVC451      0.0000 
@<TRIPOS>BOND
     1   13    1 ar   
     2   14    2 ar   
     3   13    3 ar   
     4   14    4 ar   
     5   16    5 1    
     6   29    5 1    
     7   15    6 2    
     8   19    6 1    
     9   20    6 1    
    10    8    7 ar   
    11    9    7 ar   
    12   21    7 1    
    13   17    8 ar   
    14   22    8 1    
    15   18    9 ar   
    16   23    9 1    
    17   11   10 1    
    18   19   10 1    
    19   24   10 1    
    20   25   10 1    
    21   19   11 1    
    22   26   11 1    
    23   27   11 1    
    24   15   12 1    
    25   17   12 1    
    26   15   13 1    
    27   18   14 1    
    28   17   16 ar   
    29   18   16 ar   
    30   28   19 1    
@<TRIPOS>SUBSTRUCTURE
     1 RVC451      1 GROUP   
@<TRIPOS>SET

