#    Name: 1jnz_FAD_2_INTS_M
#    Modification time : Tue Mar 25 09:12:49 2014

@<TRIPOS>MOLECULE
1jnz_FAD_2_INTS_M
  139     0     9     0     0
SMALL
NO_CHARGES


@<TRIPOS>ATOM
      1 N          43.3410    1.0595   79.6045 N.am      2 SEC2        0.0000 
      2 N          42.9970    0.7600   81.2080 N.am      8 SEL2        0.0000 
      3 N          43.6850    1.3590   78.0010 N.am      5 SEP2        0.0000 
      4 N          43.5335    1.1325   82.8305 N.am      2 SEC2        0.0000 
      5 N          44.0700    1.5050   84.4530 N.am      5 SEP2        0.0000 
      6 N          42.8845    1.0070   83.8090 N.am      2 SEC2        0.0000 
      7 N          41.6990    0.5090   83.1650 N.am      8 SEL2        0.0000 
      8 N          40.7560    0.2245   84.0425 N.am      2 SEC2        0.0000 
      9 N          39.8130   -0.0600   84.9200 N.am      5 SEP2        0.0000 
     10 CA         38.5805    0.6860   81.7540 C.3       3 GLC5        0.0000 
     11 CA         39.6220    2.2510   81.2290 C.3       9 GLL5        0.0000 
     12 CA         37.5390   -0.8790   82.2790 C.3       6 GLP5        0.0000 
     13 CA         38.2755    4.5155   79.4900 C.3       3 GLC5        0.0000 
     14 CA         39.3990    3.7750   80.9670 C.3       9 GLL5        0.0000 
     15 CA         37.1520    5.2560   78.0130 C.3       6 GLP5        0.0000 
     16 CA         41.4940    4.0225   80.3405 C.3       3 GLC5        0.0000 
     17 CA         40.3860    4.6400   81.9340 C.3       9 GLL5        0.0000 
     18 CA         42.6020    3.4050   78.7470 C.3       6 GLP5        0.0000 
     19 CA         41.7290    6.2150   82.0560 C.3       3 GLC5        0.0000 
     20 CA         43.0720    7.7900   82.1780 C.3       6 GLP5        0.0000 
     21 N          42.1145    6.5115   80.9605 N.am      2 SEC2        0.0000 
     22 N          41.0880    5.5990   81.1190 N.am      8 SEL2        0.0000 
     23 N          43.1410    7.4240   80.8020 N.am      5 SEP2        0.0000 
     24 O          40.5700    7.0220   81.4985 O.2       1 ALC1        0.0000 
     25 O          41.0880    5.5990   81.1190 O.2       7 ALL1        0.0000 
     26 O          40.0520    8.4450   81.8780 O.2       4 ALP1        0.0000 
     27 O          40.4005    6.5365   80.5295 O.2       1 ALC1        0.0000 
     28 O          39.7130    7.4740   79.9400 O.2       4 ALP1        0.0000 
     29 CA         38.0870    6.1615   84.4360 C.3       3 GLC5        0.0000 
     30 CA         39.2730    5.0740   82.8830 C.3       9 GLL5        0.0000 
     31 CA         36.9010    7.2490   85.9890 C.3       6 GLP5        0.0000 
     32 O          39.7145    7.4795   82.6510 O.2       1 ALC1        0.0000 
     33 O          39.3770    6.5140   83.4240 O.2       7 ALL1        0.0000 
     34 CA         37.5300    5.2835   79.9585 C.3       3 GLC5        0.0000 
     35 CA         37.9080    5.3110   81.9040 C.3       9 GLL5        0.0000 
     36 CA         37.4245    7.1730   83.0445 C.3       3 GLC5        0.0000 
     37 CA         36.9410    9.0350   84.1850 C.3       6 GLP5        0.0000 
     38 CA         36.7305    3.5920   81.2510 C.3       3 GLC5        0.0000 
     39 CA         35.5530    1.8730   80.5980 C.3       6 GLP5        0.0000 
     40 CA         31.7270    7.6175   80.8920 C.3       3 GLC5        0.0000 
     41 CA         33.2270    6.8050   82.3560 C.3       9 GLL5        0.0000 
     42 CA         30.2270    8.4300   79.4280 C.3       6 GLP5        0.0000 
     43 O          30.8575    7.0245   82.6175 O.2       1 ALC1        0.0000 
     44 O          32.0870    6.5140   83.0210 O.2       7 ALL1        0.0000 
     45 O          29.6280    7.5350   82.2140 O.2       4 ALP1        0.0000 
     46 O          31.8030    5.4635   83.9210 O.2       1 ALC1        0.0000 
     47 O          31.5190    4.4130   84.8210 O.2       4 ALP1        0.0000 
     48 N          32.1430    8.8795   81.3030 N.am      2 SEC2        0.0000 
     49 N          33.3020    7.8690   81.3300 N.am      8 SEL2        0.0000 
     50 N          30.9840    9.8900   81.2760 N.am      5 SEP2        0.0000 
     51 CA         33.4655    6.9875   79.2485 C.3       3 GLC5        0.0000 
     52 CA         34.5250    8.1780   80.5780 C.3       9 GLL5        0.0000 
     53 CA         32.4060    5.7970   77.9190 C.3       6 GLP5        0.0000 
     54 CA         36.1750    9.0680   79.7295 C.3       3 GLC5        0.0000 
     55 CA         37.8250    9.9580   78.8810 C.3       6 GLP5        0.0000 
     56 CA         35.2920    9.0925   82.0000 C.3       3 GLC5        0.0000 
     57 CA         36.0590   10.0070   83.4220 C.3       6 GLP5        0.0000 
     58 CA         32.7865    8.7120   79.5005 C.3       3 GLC5        0.0000 
     59 CA         31.0480    9.2460   78.4230 C.3       6 GLP5        0.0000 
     60 N          36.4460    8.7870   81.0180 N.am      2 SEC2        0.0000 
     61 N          35.7570    7.4040   80.8290 N.am      8 SEL2        0.0000 
     62 N          37.1350   10.1700   81.2070 N.am      5 SEP2        0.0000 
     63 CA         36.4190    5.7910   79.9395 C.3       3 GLC5        0.0000 
     64 CA         35.6860    6.3260   81.8660 C.3       9 GLL5        0.0000 
     65 CA         36.3135    7.6805   83.0255 C.3       3 GLC5        0.0000 
     66 N          47.9885   -6.2270   80.6660 N.am      2 SEC2        0.0000 
     67 N          48.7520   -6.4430   82.1380 N.am      8 SEL2        0.0000 
     68 N          47.2250   -6.0110   79.1940 N.am      5 SEP2        0.0000 
     69 N          50.8230   -8.0920   80.0365 N.am      2 SEC2        0.0000 
     70 N          49.9610   -6.9550   80.2900 N.am      8 SEL2        0.0000 
     71 N          51.6850   -9.2290   79.7830 N.am      5 SEP2        0.0000 
     72 N          48.5930   -6.4830   79.7420 N.am      2 SEC2        0.0000 
     73 O          52.2080   -6.3850   81.8325 O.2       1 ALC1        0.0000 
     74 O          51.1020   -6.8360   82.3300 O.2       7 ALL1        0.0000 
     75 O          53.3140   -5.9340   81.3350 O.2       4 ALP1        0.0000 
     76 CA         47.5805   -4.5450   90.6730 C.3       3 GLC5        0.0000 
     77 CA         48.1920   -3.0800   89.5350 C.3       9 GLL5        0.0000 
     78 CA         46.9690   -6.0100   91.8110 C.3       6 GLP5        0.0000 
     79 CA         47.0115   -1.4360   89.9575 C.3       3 GLC5        0.0000 
     80 CA         45.8310    0.2080   90.3800 C.3       6 GLP5        0.0000 
     81 CA         44.0335   -3.4510   87.6985 C.3       3 GLC5        0.0000 
     82 CA         45.3310   -2.2600   87.8260 C.3       9 GLL5        0.0000 
     83 CA         42.7360   -4.6420   87.5710 C.3       6 GLP5        0.0000 
     84 CA         43.8080   -1.0550   88.4290 C.3       3 GLC5        0.0000 
     85 CA         42.2850    0.1500   89.0320 C.3       6 GLP5        0.0000 
     86 CA         45.9315   -0.7675   88.5715 C.3       3 GLC5        0.0000 
     87 CA         46.5320    0.7250   89.3170 C.3       6 GLP5        0.0000 
     88 CA         45.6640   -7.2865   84.5850 C.3       3 GLC5        0.0000 
     89 CA         46.2540   -5.4830   83.4860 C.3       9 GLL5        0.0000 
     90 CA         45.0740   -9.0900   85.6840 C.3       6 GLP5        0.0000 
     91 CA         46.7555   -4.5840   80.4650 C.3       3 GLC5        0.0000 
     92 CA         45.9930   -4.4020   82.4450 C.3       9 GLL5        0.0000 
     93 CA         47.5180   -4.7660   78.4850 C.3       6 GLP5        0.0000 
     94 CA         42.7825   -5.7380   81.2305 C.3       3 GLC5        0.0000 
     95 CA         44.4570   -4.4500   81.9390 C.3       9 GLL5        0.0000 
     96 CA         41.1080   -7.0260   80.5220 C.3       6 GLP5        0.0000 
     97 CA         45.1330   -6.1845   80.8535 C.3       3 GLC5        0.0000 
     98 CA         45.8090   -7.9190   79.7680 C.3       6 GLP5        0.0000 
     99 O          42.9150   -6.1210   81.5980 O.2       1 ALC1        0.0000 
    100 O          44.2340   -5.6830   81.4230 O.2       7 ALL1        0.0000 
    101 O          41.5960   -6.5590   81.7730 O.2       4 ALP1        0.0000 
    102 CA         44.6465   -2.0005   79.3210 C.3       3 GLC5        0.0000 
    103 CA         44.1770   -3.3910   80.9500 C.3       9 GLL5        0.0000 
    104 CA         45.1160   -0.6100   77.6920 C.3       6 GLP5        0.0000 
    105 CA         45.8475   -4.0785   79.7175 C.3       3 GLC5        0.0000 
    106 CA         41.8325   -5.1365   80.6930 C.3       3 GLC5        0.0000 
    107 CA         42.5570   -3.2470   80.8640 C.3       9 GLL5        0.0000 
    108 N          38.8765   -3.7600   79.7920 N.am      2 SEC2        0.0000 
    109 N          39.6900   -2.6620   80.0490 N.am      8 SEL2        0.0000 
    110 N          38.0630   -4.8580   79.5350 N.am      5 SEP2        0.0000 
    111 N          38.4235   -2.2050   79.4970 N.am      2 SEC2        0.0000 
    112 N          37.1570   -1.7480   78.9450 N.am      5 SEP2        0.0000 
    113 N          41.4935   -0.5615   77.3890 N.am      2 SEC2        0.0000 
    114 N          40.6610   -0.6470   78.6390 N.am      8 SEL2        0.0000 
    115 N          42.3260   -0.4760   76.1390 N.am      5 SEP2        0.0000 
    116 N          40.0280   -0.8640   77.5165 N.am      2 SEC2        0.0000 
    117 N          39.3950   -1.0810   76.3940 N.am      5 SEP2        0.0000 
    118 CA         41.0562    3.2090   79.9225 C.3       3 GLC5        0.0000 
    119 CA         37.5318    2.4430   80.8480 C.3       3 GLC5        0.0000 
    120 CA         41.5118    4.2530   83.1187 C.3       3 GLC5        0.0000 
    121 CA         43.1940    3.6490   83.8290 C.3       6 GLP5        0.0000 
    122 CA         34.9650    7.3155   83.8455 C.3       3 GLC5        0.0000 
    123 CA         34.4570    5.9610   82.6740 C.3       9 GLL5        0.0000 
    124 CA         36.0880    8.2480   85.1760 C.3       6 GLP5        0.0000 
    125 CA         32.5545    5.0060   83.0925 C.3       3 GLC5        0.0000 
    126 CA         31.2670    3.6290   83.6700 C.3       6 GLP5        0.0000 
    127 CA         34.0470    4.6787   81.2018 C.3       3 GLC5        0.0000 
    128 CA         33.3300    3.0030   80.2130 C.3       6 GLP5        0.0000 
    129 CA         50.2230   -5.0910   87.8498 C.3       3 GLC5        0.0000 
    130 CA         48.5250   -5.2150   86.4480 C.3       9 GLL5        0.0000 
    131 CA         51.8110   -5.2610   88.6420 C.3       6 GLP5        0.0000 
    132 CA         49.9017   -4.2955   88.7705 C.3       3 GLC5        0.0000 
    133 CA         47.7930   -3.5800   88.2630 C.3       9 GLL5        0.0000 
    134 CA         45.2203   -2.0637   85.8545 C.3       3 GLC5        0.0000 
    135 CA         46.4090   -3.1300   87.4500 C.3       9 GLL5        0.0000 
    136 CA         44.4170   -0.8800   84.7820 C.3       6 GLP5        0.0000 
    137 CA         45.9662   -6.4307   81.3667 C.3       3 GLC5        0.0000 
    138 CA         43.1500   -3.9270   78.9345 C.3       3 GLC5        0.0000 
    139 CA         42.9330   -4.5350   76.9620 C.3       6 GLP5        0.0000 
@<TRIPOS>BOND
@<TRIPOS>SUBSTRUCTURE
     1 ALC1       24 GROUP        1 X    ALC  0     ROOT ALC X 1
     2 SEC2        1 GROUP        1 X    SEC  0     **** SEC X 2
     3 GLC5       10 GROUP        1 X    GLC  0     **** GLC X 6
     4 ALP1       26 GROUP        1 Y    ALP  0     ROOT ALP Y 8
     5 SEP2        3 GROUP        1 Y    SEP  0     **** SEP Y 9
     6 GLP5       12 GROUP        1 Y    GLP  0     **** GLP Y 13
     7 ALL1       25 GROUP        1 Z    ALL  0     ROOT ALL Z 15
     8 SEL2        2 GROUP        1 Z    SEL  0     **** SEL Z 16
     9 GLL5       11 GROUP        1 Z    GLL  0     **** GLL Z 20
@<TRIPOS>SET

