#    Name: 1jnz_FAD_2_ligand
#    Modification time : Tue Mar 25 09:12:49 2014

@<TRIPOS>MOLECULE
1jnz_FAD_2_ligand
   84    89     1     0     0
SMALL
NO_CHARGES


@<TRIPOS>ATOM
      1 PA         41.7780    0.5330   81.7140 P.3       1 FAD3000     0.0000 
      2 O1A        42.9970    0.7600   81.2080 O.co2     1 FAD3000     0.0000 
      3 O2A        41.6990    0.5090   83.1650 O.co2     1 FAD3000     0.0000 
      4 O5B        40.8820    1.8180   81.1620 O.3       1 FAD3000     0.0000 
      5 C5B        39.6220    2.2510   81.2290 C.3       1 FAD3000     0.0000 
      6 C4B        39.3990    3.7750   80.9670 C.3       1 FAD3000     0.0000 
      7 O4B        37.9990    4.1390   81.0420 O.3       1 FAD3000     0.0000 
      8 C3B        40.3860    4.6400   81.9340 C.3       1 FAD3000     0.0000 
      9 O3B        41.0880    5.5990   81.1190 O.3       1 FAD3000     0.0000 
     10 C2B        39.2730    5.0740   82.8830 C.3       1 FAD3000     0.0000 
     11 O2B        39.3770    6.5140   83.4240 O.3       1 FAD3000     0.0000 
     12 C1B        37.9080    5.3110   81.9040 C.3       1 FAD3000     0.0000 
     13 N9A        36.5870    5.4800   82.3030 N.pl3     1 FAD3000     0.0000 
     14 C8A        35.9310    4.7100   83.2870 C.2       1 FAD3000     0.0000 
     15 N7A        34.7200    4.9860   83.4700 N.2       1 FAD3000     0.0000 
     16 C5A        34.4570    5.9610   82.6740 C.ar      1 FAD3000     0.0000 
     17 C6A        33.2270    6.8050   82.3560 C.ar      1 FAD3000     0.0000 
     18 N6A        32.0870    6.5140   83.0210 N.pl3     1 FAD3000     0.0000 
     19 N1A        33.3020    7.8690   81.3300 N.ar      1 FAD3000     0.0000 
     20 C2A        34.5250    8.1780   80.5780 C.ar      1 FAD3000     0.0000 
     21 N3A        35.7570    7.4040   80.8290 N.ar      1 FAD3000     0.0000 
     22 C4A        35.6860    6.3260   81.8660 C.ar      1 FAD3000     0.0000 
     23 N1         48.7520   -6.4430   82.1380 N.2       1 FAD3000     0.0000 
     24 C2         49.9440   -6.7360   81.4320 C.2       1 FAD3000     0.0000 
     25 O2         49.9610   -6.9550   80.2900 O.2       1 FAD3000     0.0000 
     26 N3         51.1020   -6.8360   82.3300 N.am      1 FAD3000     0.0000 
     27 C4         51.0650   -6.6130   83.8180 C.2       1 FAD3000     0.0000 
     28 O4         52.0840   -6.6270   84.3440 O.2       1 FAD3000     0.0000 
     29 C4X        49.7620   -6.2760   84.4730 C.2       1 FAD3000     0.0000 
     30 N5         49.5980   -5.9210   85.8450 N.2       1 FAD3000     0.0000 
     31 C5X        48.5250   -5.2150   86.4480 C.ar      1 FAD3000     0.0000 
     32 C6         48.7450   -4.6270   87.6670 C.ar      1 FAD3000     0.0000 
     33 C7         47.7930   -3.5800   88.2630 C.ar      1 FAD3000     0.0000 
     34 C7M        48.1920   -3.0800   89.5350 C.3       1 FAD3000     0.0000 
     35 C8         46.4090   -3.1300   87.4500 C.ar      1 FAD3000     0.0000 
     36 C8M        45.3310   -2.2600   87.8260 C.3       1 FAD3000     0.0000 
     37 C9         46.1770   -3.8000   86.2160 C.ar      1 FAD3000     0.0000 
     38 C9A        47.2230   -4.9200   85.5770 C.ar      1 FAD3000     0.0000 
     39 N10        47.3020   -5.5370   84.1130 N.pl3     1 FAD3000     0.0000 
     40 C10        48.5610   -6.1880   83.5270 C.2       1 FAD3000     0.0000 
     41 C1'        46.2540   -5.4830   83.4860 C.3       1 FAD3000     0.0000 
     42 C2'        45.9930   -4.4020   82.4450 C.3       1 FAD3000     0.0000 
     43 O2'        46.2330   -3.2150   83.0590 O.3       1 FAD3000     0.0000 
     44 C3'        44.4570   -4.4500   81.9390 C.3       1 FAD3000     0.0000 
     45 O3'        44.2340   -5.6830   81.4230 O.3       1 FAD3000     0.0000 
     46 C4'        44.1770   -3.3910   80.9500 C.3       1 FAD3000     0.0000 
     47 O4'        44.4930   -2.0340   81.3850 O.3       1 FAD3000     0.0000 
     48 C5'        42.5570   -3.2470   80.8640 C.3       1 FAD3000     0.0000 
     49 O5'        42.2350   -2.3080   79.8230 O.3       1 FAD3000     0.0000 
     50 P          40.7330   -1.6610   79.7710 P.3       1 FAD3000     0.0000 
     51 O1P        39.6900   -2.6620   80.0490 O.co2     1 FAD3000     0.0000 
     52 O2P        40.6610   -0.6470   78.6390 O.co2     1 FAD3000     0.0000 
     53 O3P        41.1790   -0.5480   80.5600 O.3       1 FAD3000     0.0000 
     54 H          39.1288    2.0576   82.2317 H         1 FAD3000     0.0000 
     55 H          38.9244    1.7303   80.5022 H         1 FAD3000     0.0000 
     56 H          39.7917    3.9587   79.9395 H         1 FAD3000     0.0000 
     57 H          40.9673    3.8957   82.4024 H         1 FAD3000     0.0000 
     58 H          38.9845    4.4122   83.5770 H         1 FAD3000     0.0000 
     59 H          38.2705    6.1545   81.2246 H         1 FAD3000     0.0000 
     60 H          36.4729    3.9959   83.7734 H         1 FAD3000     0.0000 
     61 H          31.2842    7.0580   82.7770 H         1 FAD3000     0.0000 
     62 H          32.1475    5.7805   83.6980 H         1 FAD3000     0.0000 
     63 H          34.5269    8.9100   79.8970 H         1 FAD3000     0.0000 
     64 H          52.0214   -7.0780   81.9211 H         1 FAD3000     0.0000 
     65 H          49.5582   -4.8494   88.2563 H         1 FAD3000     0.0000 
     66 H          45.3680   -3.6537   85.6318 H         1 FAD3000     0.0000 
     67 H          45.2895   -5.4334   84.1607 H         1 FAD3000     0.0000 
     68 H          45.9864   -6.4731   82.9063 H         1 FAD3000     0.0000 
     69 H          46.6041   -4.5855   81.5937 H         1 FAD3000     0.0000 
     70 H          43.8704   -4.2678   82.8436 H         1 FAD3000     0.0000 
     71 H          44.4847   -3.5912   79.9892 H         1 FAD3000     0.0000 
     72 H          42.2422   -2.9201   81.8452 H         1 FAD3000     0.0000 
     73 H          42.1870   -4.2437   80.6683 H         1 FAD3000     0.0000 
     74 H          49.0870   -2.6356   89.4953 H         1 FAD3000     0.0000 
     75 H          47.5448   -2.4045   89.8882 H         1 FAD3000     0.0000 
     76 H          48.2565   -3.8086   90.2169 H         1 FAD3000     0.0000 
     77 H          45.6505   -1.3300   88.0080 H         1 FAD3000     0.0000 
     78 H          44.6374   -2.1965   87.1084 H         1 FAD3000     0.0000 
     79 H          44.8683   -2.5782   88.6535 H         1 FAD3000     0.0000 
     80 H          40.5749    6.4511   81.2223 H         1 FAD3000     0.0000 
     81 H          39.6250    7.0709   82.6313 H         1 FAD3000     0.0000 
     82 H          45.6248   -2.5624   82.6071 H         1 FAD3000     0.0000 
     83 H          43.2600   -5.8536   81.5723 H         1 FAD3000     0.0000 
     84 H          43.6061   -1.5977   81.5362 H         1 FAD3000     0.0000 
@<TRIPOS>BOND
     1    2    1 ar   
     2    3    1 ar   
     3    4    1 1    
     4   53    1 1    
     5    5    4 1    
     6    6    5 1    
     7   54    5 1    
     8   55    5 1    
     9    7    6 1    
    10    8    6 1    
    11   56    6 1    
    12   12    7 1    
    13    9    8 1    
    14   10    8 1    
    15   57    8 1    
    16   80    9 1    
    17   11   10 1    
    18   12   10 1    
    19   58   10 1    
    20   81   11 1    
    21   13   12 1    
    22   59   12 1    
    23   14   13 1    
    24   22   13 1    
    25   15   14 2    
    26   60   14 1    
    27   16   15 1    
    28   17   16 ar   
    29   22   16 ar   
    30   18   17 1    
    31   19   17 ar   
    32   61   18 1    
    33   62   18 1    
    34   20   19 ar   
    35   21   20 ar   
    36   63   20 1    
    37   22   21 ar   
    38   24   23 1    
    39   40   23 2    
    40   25   24 2    
    41   26   24 am   
    42   27   26 am   
    43   64   26 1    
    44   28   27 2    
    45   29   27 1    
    46   30   29 2    
    47   40   29 1    
    48   31   30 1    
    49   32   31 ar   
    50   38   31 ar   
    51   33   32 ar   
    52   65   32 1    
    53   34   33 1    
    54   35   33 ar   
    55   74   34 1    
    56   75   34 1    
    57   76   34 1    
    58   36   35 1    
    59   37   35 ar   
    60   77   36 1    
    61   78   36 1    
    62   79   36 1    
    63   38   37 ar   
    64   66   37 1    
    65   39   38 1    
    66   40   39 1    
    67   41   39 1    
    68   42   41 1    
    69   67   41 1    
    70   68   41 1    
    71   43   42 1    
    72   44   42 1    
    73   69   42 1    
    74   82   43 1    
    75   45   44 1    
    76   46   44 1    
    77   70   44 1    
    78   83   45 1    
    79   47   46 1    
    80   48   46 1    
    81   71   46 1    
    82   84   47 1    
    83   49   48 1    
    84   72   48 1    
    85   73   48 1    
    86   50   49 1    
    87   51   50 ar   
    88   52   50 ar   
    89   53   50 1    
@<TRIPOS>SUBSTRUCTURE
     1 FAD3000     1 GROUP   
@<TRIPOS>SET

