#    Name: 4cdg_ADP_2_INTS_M
#    Modification time : Tue Mar 25 09:12:57 2014

@<TRIPOS>MOLECULE
4cdg_ADP_2_INTS_M
   56     0    12     0     0
SMALL
NO_CHARGES


@<TRIPOS>ATOM
      1 NZ         19.4785   90.8000  -11.7415 N.4       3 LYC4        0.0000 
      2 NZ         19.1080   92.2340  -10.9890 N.4      11 LYL4        0.0000 
      3 NZ         19.8490   89.3660  -12.4940 N.4       7 LYP4        0.0000 
      4 N          19.0070   92.6865   -9.5370 N.am      2 SEC2        0.0000 
      5 N          19.1080   92.2340  -10.9890 N.am     10 SEL2        0.0000 
      6 N          18.9060   93.1390   -8.0850 N.am      6 SEP2        0.0000 
      7 NZ         19.1885   95.4715  -11.3050 N.4       3 LYC4        0.0000 
      8 NZ         18.0830   94.5430  -11.2290 N.4      11 LYL4        0.0000 
      9 NZ         20.2940   96.4000  -11.3810 N.4       7 LYP4        0.0000 
     10 N          16.5975   95.0065  -10.7430 N.am      2 SEC2        0.0000 
     11 N          18.0830   94.5430  -11.2290 N.am     10 SEL2        0.0000 
     12 N          15.1120   95.4700  -10.2570 N.am      6 SEP2        0.0000 
     13 N          16.8485   95.1820  -12.0900 N.am      2 SEC2        0.0000 
     14 N          15.6140   95.8210  -12.9510 N.am      6 SEP2        0.0000 
     15 N          19.1885   95.4715  -11.3050 N.am      2 SEC2        0.0000 
     16 N          20.2940   96.4000  -11.3810 N.am      6 SEP2        0.0000 
     17 N          16.9985   92.2630  -14.3385 N.am      2 SEC2        0.0000 
     18 N          17.9340   92.8960  -13.1410 N.am     10 SEL2        0.0000 
     19 N          16.0630   91.6300  -15.5360 N.am      6 SEP2        0.0000 
     20 N          18.5880   91.4445  -13.3165 N.am      2 SEC2        0.0000 
     21 N          19.2420   89.9930  -13.4920 N.am      6 SEP2        0.0000 
     22 NZ         17.8995   90.1315  -12.8135 N.4       3 LYC4        0.0000 
     23 NZ         16.5570   90.2700  -12.1350 N.4      11 LYL4        0.0000 
     24 N          17.9630   89.8650  -11.6970 N.am      2 SEC2        0.0000 
     25 N          16.5570   90.2700  -12.1350 N.am     10 SEL2        0.0000 
     26 N          19.3690   89.4600  -11.2590 N.am      6 SEP2        0.0000 
     27 N          17.8995   90.1315  -12.8135 N.am      2 SEC2        0.0000 
     28 N          15.2635   93.3320  -14.1955 N.am      2 SEC2        0.0000 
     29 N          15.1600   92.2860  -13.0570 N.am     10 SEL2        0.0000 
     30 N          15.3670   94.3780  -15.3340 N.am      6 SEP2        0.0000 
     31 N          15.6115   91.9580  -14.2965 N.am      2 SEC2        0.0000 
     32 CA         16.1780   91.7930   -8.5885 C.3       4 GLC5        0.0000 
     33 CA         14.7700   90.8710   -9.5200 C.3      12 GLL5        0.0000 
     34 CA         17.5860   92.7150   -7.6570 C.3       8 GLP5        0.0000 
     35 N          12.2730   92.6130   -8.0645 N.am      2 SEC2        0.0000 
     36 N          12.5160   91.4180   -8.7910 N.am     10 SEL2        0.0000 
     37 N          12.0300   93.8080   -7.3380 N.am      6 SEP2        0.0000 
     38 N          10.4880   95.4400  -11.4995 N.am      2 SEC2        0.0000 
     39 N           9.9560   93.9990  -11.0230 N.am     10 SEL2        0.0000 
     40 N          11.0200   96.8810  -11.9760 N.am      6 SEP2        0.0000 
     41 CA          8.5745   94.5975  -12.2310 C.3       4 GLC5        0.0000 
     42 CA          8.9350   93.7730  -10.1740 C.3      12 GLL5        0.0000 
     43 CA          8.2140   95.4220  -14.2880 C.3       8 GLP5        0.0000 
     44 O           8.1695   96.5875  -10.8040 O.2       1 ALC1        0.0000 
     45 O           7.2160   95.5090  -10.5420 O.2       9 ALL1        0.0000 
     46 O           9.1230   97.6660  -11.0660 O.2       5 ALP1        0.0000 
     47 CA          6.6295   91.8045   -9.6090 C.3       4 GLC5        0.0000 
     48 CA          7.2630   92.7540   -8.2330 C.3      12 GLL5        0.0000 
     49 CA          5.9960   90.8550  -10.9850 C.3       8 GLP5        0.0000 
     50 CA          7.6455   91.7165  -10.1915 C.3       4 GLC5        0.0000 
     51 CA          9.2950   92.5780   -9.3980 C.3      12 GLL5        0.0000 
     52 CA          7.4962   93.3205  -11.3525 C.3       4 GLC5        0.0000 
     53 CA          6.7100   92.5510  -12.6820 C.3       8 GLP5        0.0000 
     54 CA          9.6849   94.7840   -8.5563 C.3       4 GLC5        0.0000 
     55 CA          7.6300   94.4070   -9.8720 C.3      12 GLL5        0.0000 
     56 CA         10.5810   96.2340   -7.4020 C.3       8 GLP5        0.0000 
@<TRIPOS>BOND
@<TRIPOS>SUBSTRUCTURE
     1 ALC1       44 GROUP        1 X    ALC  0     ROOT ALC X 1
     2 SEC2        4 GROUP        1 X    SEC  0     **** SEC X 2
     3 LYC4        1 GROUP        1 X    LYC  0     **** LYC X 4
     4 GLC5       32 GROUP        1 X    GLC  0     **** GLC X 6
     5 ALP1       46 GROUP        1 Y    ALP  0     ROOT ALP Y 8
     6 SEP2        6 GROUP        1 Y    SEP  0     **** SEP Y 9
     7 LYP4        3 GROUP        1 Y    LYP  0     **** LYP Y 11
     8 GLP5       34 GROUP        1 Y    GLP  0     **** GLP Y 13
     9 ALL1       45 GROUP        1 Z    ALL  0     ROOT ALL Z 15
    10 SEL2        5 GROUP        1 Z    SEL  0     **** SEL Z 16
    11 LYL4        2 GROUP        1 Z    LYL  0     **** LYL Z 18
    12 GLL5       33 GROUP        1 Z    GLL  0     **** GLL Z 20
@<TRIPOS>SET

