#    Name: 4cdg_ADP_2_ligand
#    Modification time : Tue Mar 25 09:12:57 2014

@<TRIPOS>MOLECULE
4cdg_ADP_2_ligand
   39    41     1     0     0
SMALL
NO_CHARGES


@<TRIPOS>ATOM
      1 PB         18.0570   93.0930  -11.6490 P.3       1 ADP1634     0.0000 
      2 O1B        19.1080   92.2340  -10.9890 O.co2     1 ADP1634     0.0000 
      3 O2B        18.0830   94.5430  -11.2290 O.co2     1 ADP1634     0.0000 
      4 O3B        17.9340   92.8960  -13.1410 O.co2     1 ADP1634     0.0000 
      5 PA         15.7520   91.5240  -11.8980 P.3       1 ADP1634     0.0000 
      6 O1A        16.5570   90.2700  -12.1350 O.co2     1 ADP1634     0.0000 
      7 O2A        15.1600   92.2860  -13.0570 O.co2     1 ADP1634     0.0000 
      8 O3A        16.6590   92.5530  -11.0550 O.3       1 ADP1634     0.0000 
      9 O5'        14.5430   91.1980  -10.8890 O.3       1 ADP1634     0.0000 
     10 C5'        14.7700   90.8710   -9.5200 C.3       1 ADP1634     0.0000 
     11 C4'        13.4550   90.3520   -8.9580 C.3       1 ADP1634     0.0000 
     12 O4'        12.5160   91.4180   -8.7910 O.3       1 ADP1634     0.0000 
     13 C3'        12.8380   89.3580   -9.9290 C.3       1 ADP1634     0.0000 
     14 O3'        12.5310   88.1520   -9.2230 O.3       1 ADP1634     0.0000 
     15 C2'        11.5630   90.0160  -10.4190 C.3       1 ADP1634     0.0000 
     16 O2'        10.5080   89.0630  -10.5810 O.3       1 ADP1634     0.0000 
     17 C1'        11.2490   91.0220   -9.3250 C.3       1 ADP1634     0.0000 
     18 N9         10.4960   92.1930   -9.8360 N.pl3     1 ADP1634     0.0000 
     19 C8         10.8900   93.0370  -10.8080 C.2       1 ADP1634     0.0000 
     20 N7          9.9560   93.9990  -11.0230 N.2       1 ADP1634     0.0000 
     21 C5          8.9350   93.7730  -10.1740 C.ar      1 ADP1634     0.0000 
     22 C6          7.6300   94.4070   -9.8720 C.ar      1 ADP1634     0.0000 
     23 N6          7.2160   95.5090  -10.5420 N.pl3     1 ADP1634     0.0000 
     24 N1          6.8650   93.8490   -8.9070 N.ar      1 ADP1634     0.0000 
     25 C2          7.2630   92.7540   -8.2330 C.ar      1 ADP1634     0.0000 
     26 N3          8.4320   92.1280   -8.4560 N.ar      1 ADP1634     0.0000 
     27 C4          9.2950   92.5780   -9.3980 C.ar      1 ADP1634     0.0000 
     28 H          15.0671   91.7391   -8.9378 H         1 ADP1634     0.0000 
     29 H          15.5175   90.0906   -9.4062 H         1 ADP1634     0.0000 
     30 H          13.6424   89.8457   -8.0334 H         1 ADP1634     0.0000 
     31 H          13.4940   89.2163  -10.7381 H         1 ADP1634     0.0000 
     32 H          11.7892   90.5554  -11.3096 H         1 ADP1634     0.0000 
     33 H          10.6722   90.5100   -8.5669 H         1 ADP1634     0.0000 
     34 H          11.7366   92.9714  -11.2988 H         1 ADP1634     0.0000 
     35 H           6.3846   95.4055  -11.0880 H         1 ADP1634     0.0000 
     36 H           7.7784   96.3285  -10.4313 H         1 ADP1634     0.0000 
     37 H           6.6150   92.3616   -7.4806 H         1 ADP1634     0.0000 
     38 H          11.5620   87.9851   -9.4053 H         1 ADP1634     0.0000 
     39 H           9.6885   89.5240  -10.2406 H         1 ADP1634     0.0000 
@<TRIPOS>BOND
     1    2    1 ar   
     2    3    1 ar   
     3    4    1 ar   
     4    8    1 1    
     5    6    5 ar   
     6    7    5 ar   
     7    8    5 1    
     8    9    5 1    
     9   10    9 1    
    10   11   10 1    
    11   28   10 1    
    12   29   10 1    
    13   12   11 1    
    14   13   11 1    
    15   30   11 1    
    16   17   12 1    
    17   14   13 1    
    18   15   13 1    
    19   31   13 1    
    20   38   14 1    
    21   16   15 1    
    22   17   15 1    
    23   32   15 1    
    24   39   16 1    
    25   18   17 1    
    26   33   17 1    
    27   19   18 1    
    28   27   18 1    
    29   20   19 2    
    30   34   19 1    
    31   21   20 1    
    32   22   21 ar   
    33   27   21 ar   
    34   23   22 1    
    35   24   22 ar   
    36   35   23 1    
    37   36   23 1    
    38   25   24 ar   
    39   26   25 ar   
    40   37   25 1    
    41   27   26 ar   
@<TRIPOS>SUBSTRUCTURE
     1 ADP1634     1 GROUP   
@<TRIPOS>SET

