#    Name: 4f64_0S8_1_INTS_M
#    Modification time : Mon Mar 24 18:59:20 2014

@<TRIPOS>MOLECULE
4f64_0S8_1_INTS_M
   64     0     6     0     0
SMALL
NO_CHARGES


@<TRIPOS>ATOM
      1 CA         90.6170    4.5305   15.8890 C.3       2 GLC5        0.0000 
      2 CA         90.5280    2.7210   15.8220 C.3       6 GLL5        0.0000 
      3 CA         90.7060    6.3400   15.9560 C.3       4 GLP5        0.0000 
      4 CA         91.4705    1.5925   14.6830 C.3       2 GLC5        0.0000 
      5 CA         92.4130    0.4640   13.5440 C.3       4 GLP5        0.0000 
      6 CA         88.9740    4.3135   13.0640 C.3       2 GLC5        0.0000 
      7 CA         88.8240    2.5830   14.2340 C.3       6 GLL5        0.0000 
      8 CA         89.1240    6.0440   11.8940 C.3       4 GLP5        0.0000 
      9 CA         89.4915    2.7205   11.2335 C.3       2 GLC5        0.0000 
     10 CA         89.0930    1.0000   12.3960 C.3       6 GLL5        0.0000 
     11 CA         89.8900    4.4410   10.0710 C.3       4 GLP5        0.0000 
     12 CA         90.4045    0.9570   11.0735 C.3       2 GLC5        0.0000 
     13 CA         91.7160    0.9140    9.7510 C.3       4 GLP5        0.0000 
     14 CA         89.5225   -0.6260   13.8280 C.3       2 GLC5        0.0000 
     15 CA         89.9520   -2.2520   15.2600 C.3       4 GLP5        0.0000 
     16 CA         88.7175    2.7480   10.1765 C.3       2 GLC5        0.0000 
     17 CA         87.5450    1.0550   10.2820 C.3       6 GLL5        0.0000 
     18 CA         86.8060   -1.8970    9.3240 C.3       2 GLC5        0.0000 
     19 CA         87.3430    0.2080    9.2400 C.3       6 GLL5        0.0000 
     20 CA         86.2690   -4.0020    9.4080 C.3       4 GLP5        0.0000 
     21 O          86.3600   -1.1545    7.5515 O.2       1 ALC1        0.0000 
     22 O          86.5070    0.2720    8.1460 O.2       5 ALL1        0.0000 
     23 O          86.2130   -2.5810    6.9570 O.2       3 ALP1        0.0000 
     24 CA         86.7720    2.8815    7.0720 C.3       2 GLC5        0.0000 
     25 CA         85.6680    1.3410    7.9020 C.3       6 GLL5        0.0000 
     26 CA         87.8760    4.4220    6.2420 C.3       4 GLP5        0.0000 
     27 CA         84.4680    0.3325    9.4930 C.3       2 GLC5        0.0000 
     28 CA         83.2680   -0.6760   11.0840 C.3       4 GLP5        0.0000 
     29 CA         86.3345    3.9230    7.3285 C.3       2 GLC5        0.0000 
     30 CA         84.7930    3.4240    8.4150 C.3       6 GLL5        0.0000 
     31 CA         85.5010    6.4715    8.8605 C.3       2 GLC5        0.0000 
     32 CA         85.6690    4.8140   10.3160 C.3       6 GLL5        0.0000 
     33 CA         85.3330    8.1290    7.4050 C.3       4 GLP5        0.0000 
     34 CA         87.5190    5.3490   10.3560 C.3       2 GLC5        0.0000 
     35 CA         89.3690    5.8840   10.3960 C.3       4 GLP5        0.0000 
     36 CA         87.1425    5.1135   11.7380 C.3       2 GLC5        0.0000 
     37 CA         85.1610    4.1830   11.5820 C.3       6 GLL5        0.0000 
     38 CA         83.6705    1.3505   11.4235 C.3       2 GLC5        0.0000 
     39 CA         84.0730    3.3770   11.7630 C.3       6 GLL5        0.0000 
     40 CA         81.6730    1.1400   15.2355 C.3       2 GLC5        0.0000 
     41 CA         83.1130    2.1980   13.9280 C.3       6 GLL5        0.0000 
     42 CA         80.2330    0.0820   16.5430 C.3       4 GLP5        0.0000 
     43 CA         84.2335    0.7175   13.1890 C.3       2 GLC5        0.0000 
     44 CA         85.3540   -0.7630   12.4500 C.3       4 GLP5        0.0000 
     45 CA         83.9900    0.7995   15.1635 C.3       2 GLC5        0.0000 
     46 CA         84.8670   -0.5990   16.3990 C.3       4 GLP5        0.0000 
     47 CA         86.4320    1.1810    5.0405 C.3       2 GLC5        0.0000 
     48 CA         84.9670   -0.1760    5.5540 C.3       6 GLL5        0.0000 
     49 CA         87.8970    2.5380    4.5270 C.3       4 GLP5        0.0000 
     50 CA         87.0460   -0.5825    5.3340 C.3       2 GLC5        0.0000 
     51 CA         89.1250   -0.9890    5.1140 C.3       4 GLP5        0.0000 
     52 CA         85.6800   -2.1015    5.0535 C.3       2 GLC5        0.0000 
     53 CA         86.3930   -4.0270    4.5530 C.3       4 GLP5        0.0000 
     54 CA         86.9655    0.2602   12.6665 C.3       2 GLC5        0.0000 
     55 CA         90.5904    1.0008   13.3215 C.3       2 GLC5        0.0000 
     56 CA         88.0610    1.5670   13.3700 C.3       6 GLL5        0.0000 
     57 CA         88.4535    1.5473    8.1360 C.3       2 GLC5        0.0000 
     58 CA         89.4630    2.4630    6.5110 C.3       4 GLP5        0.0000 
     59 CA         89.5800    0.7728    9.7560 C.3       2 GLC5        0.0000 
     60 CA         86.3990   -0.0658   11.1055 C.3       2 GLC5        0.0000 
     61 CA         86.1767    2.1930    5.5762 C.3       2 GLC5        0.0000 
     62 CA         84.8750    1.3070    6.7560 C.3       6 GLL5        0.0000 
     63 CA         83.4505   -0.5368    6.6290 C.3       2 GLC5        0.0000 
     64 CA         81.9800   -1.6390    7.1030 C.3       4 GLP5        0.0000 
@<TRIPOS>BOND
@<TRIPOS>SUBSTRUCTURE
     1 ALC1       21 GROUP        1 X    ALC  0     ROOT ALC X 1
     2 GLC5        1 GROUP        1 X    GLC  0     **** GLC X 6
     3 ALP1       23 GROUP        1 Y    ALP  0     ROOT ALP Y 8
     4 GLP5        3 GROUP        1 Y    GLP  0     **** GLP Y 13
     5 ALL1       22 GROUP        1 Z    ALL  0     ROOT ALL Z 15
     6 GLL5        2 GROUP        1 Z    GLL  0     **** GLL Z 20
@<TRIPOS>SET

