#    Name: 4f64_0S8_1_ligand
#    Modification time : Mon Mar 24 18:59:21 2014

@<TRIPOS>MOLECULE
4f64_0S8_1_ligand
   46    48     1     0     0
SMALL
NO_CHARGES


@<TRIPOS>ATOM
      1 C1         90.5280    2.7210   15.8220 C.3       1 0S8801      0.0000 
      2 O2         89.4190    1.9150   15.3640 O.3       1 0S8801      0.0000 
      3 C3         88.8240    2.5830   14.2340 C.3       1 0S8801      0.0000 
      4 C4         88.0610    1.5670   13.3700 C.3       1 0S8801      0.0000 
      5 C5         89.0930    1.0000   12.3960 C.3       1 0S8801      0.0000 
      6 C6         88.4990    0.4590   11.1240 C.2       1 0S8801      0.0000 
      7 C7         87.5450    1.0550   10.2820 C.2       1 0S8801      0.0000 
      8 C8         87.3430    0.2080    9.2400 C.2       1 0S8801      0.0000 
      9 N9         86.5070    0.2720    8.1460 N.pl3     1 0S8801      0.0000 
     10 C10        85.6680    1.3410    7.9020 C.ar      1 0S8801      0.0000 
     11 N11        85.6120    2.4020    8.6950 N.ar      1 0S8801      0.0000 
     12 C12        84.7930    3.4240    8.4150 C.ar      1 0S8801      0.0000 
     13 N13        84.7100    4.5440    9.2420 N.pl3     1 0S8801      0.0000 
     14 C14        85.6690    4.8140   10.3160 C.3       1 0S8801      0.0000 
     15 C15        85.1610    4.1830   11.5820 C.2       1 0S8801      0.0000 
     16 C16        84.0730    3.3770   11.7630 C.2       1 0S8801      0.0000 
     17 C17        84.0880    3.0500   13.1570 C.2       1 0S8801      0.0000 
     18 C18        83.1130    2.1980   13.9280 C.3       1 0S8801      0.0000 
     19 N19        85.1310    3.6480   13.6470 N.2       1 0S8801      0.0000 
     20 O20        85.7300    4.2850   12.7840 O.3       1 0S8801      0.0000 
     21 N21        84.0250    3.4130    7.3420 N.ar      1 0S8801      0.0000 
     22 C22        84.0380    2.3890    6.4950 C.ar      1 0S8801      0.0000 
     23 C23        84.8750    1.3070    6.7560 C.ar      1 0S8801      0.0000 
     24 BR1        84.9670   -0.1760    5.5540 Br        1 0S8801      0.0000 
     25 N25        88.1260   -0.8340    9.4390 N.pl3     1 0S8801      0.0000 
     26 N27        88.8480   -0.6760   10.6030 N.2       1 0S8801      0.0000 
     27 H          89.5810    3.0564   13.6019 H         1 0S8801      0.0000 
     28 H          88.1134    3.3526   14.5497 H         1 0S8801      0.0000 
     29 H          87.2903    2.0675   12.8294 H         1 0S8801      0.0000 
     30 H          87.6818    0.7868   13.9898 H         1 0S8801      0.0000 
     31 H          89.6571    0.2001   12.9083 H         1 0S8801      0.0000 
     32 H          89.8209    1.7949   12.1535 H         1 0S8801      0.0000 
     33 H          87.1352    1.8931   10.4370 H         1 0S8801      0.0000 
     34 H          86.5075   -0.5308    7.4645 H         1 0S8801      0.0000 
     35 H          83.9460    5.2335    9.1142 H         1 0S8801      0.0000 
     36 H          85.7783    5.8866   10.4719 H         1 0S8801      0.0000 
     37 H          86.6440    4.3924   10.0745 H         1 0S8801      0.0000 
     38 H          83.4455    3.0855   11.1516 H         1 0S8801      0.0000 
     39 H          83.4480    2.3679    5.6487 H         1 0S8801      0.0000 
     40 H          88.2074   -1.6220    8.8641 H         1 0S8801      0.0000 
     41 H          90.9889    2.3068   16.6069 H         1 0S8801      0.0000 
     42 H          91.2176    2.8437   15.1083 H         1 0S8801      0.0000 
     43 H          90.2323    3.6337   16.1039 H         1 0S8801      0.0000 
     44 H          83.0752    1.2637   13.5736 H         1 0S8801      0.0000 
     45 H          83.3590    2.1348   14.8952 H         1 0S8801      0.0000 
     46 H          82.1840    2.5656   13.8852 H         1 0S8801      0.0000 
@<TRIPOS>BOND
     1    2    1 1    
     2   41    1 1    
     3   42    1 1    
     4   43    1 1    
     5    3    2 1    
     6    4    3 1    
     7   27    3 1    
     8   28    3 1    
     9    5    4 1    
    10   29    4 1    
    11   30    4 1    
    12    6    5 1    
    13   31    5 1    
    14   32    5 1    
    15    7    6 1    
    16   26    6 2    
    17    8    7 2    
    18   33    7 1    
    19    9    8 1    
    20   25    8 1    
    21   10    9 1    
    22   34    9 1    
    23   11   10 ar   
    24   23   10 ar   
    25   12   11 ar   
    26   13   12 1    
    27   21   12 ar   
    28   14   13 1    
    29   35   13 1    
    30   15   14 1    
    31   36   14 1    
    32   37   14 1    
    33   16   15 2    
    34   20   15 1    
    35   17   16 1    
    36   38   16 1    
    37   18   17 1    
    38   19   17 2    
    39   44   18 1    
    40   45   18 1    
    41   46   18 1    
    42   20   19 1    
    43   22   21 ar   
    44   23   22 ar   
    45   39   22 1    
    46   24   23 1    
    47   26   25 1    
    48   40   25 1    
@<TRIPOS>SUBSTRUCTURE
     1 0S8801      1 GROUP   
@<TRIPOS>SET

