#    Name: 3g45_988_2_INTS_M
#    Modification time : Tue Mar 25 07:03:13 2014

@<TRIPOS>MOLECULE
3g45_988_2_INTS_M
   46     0     6     0     0
SMALL
NO_CHARGES


@<TRIPOS>ATOM
      1 N           5.0485   37.5895   14.9250 N.am      1 SEC2        0.0000 
      2 N           4.9080   36.8000   16.1160 N.am      5 SEL2        0.0000 
      3 N           5.1890   38.3790   13.7340 N.am      3 SEP2        0.0000 
      4 CA          0.9775   35.9765   10.6845 C.3       2 GLC5        0.0000 
      5 CA          1.6440   36.7290   12.4310 C.3       6 GLL5        0.0000 
      6 CA          0.3110   35.2240    8.9380 C.3       4 GLP5        0.0000 
      7 CA          1.2390   34.9570   11.4045 C.3       2 GLC5        0.0000 
      8 CA          2.7410   35.9380   12.7310 C.3       6 GLL5        0.0000 
      9 CA         -0.2630   33.9760   10.0780 C.3       4 GLP5        0.0000 
     10 CA          4.7160   34.6600   14.8735 C.3       2 GLC5        0.0000 
     11 CA          3.0620   35.6640   14.0540 C.3       6 GLL5        0.0000 
     12 CA          6.3700   33.6560   15.6930 C.3       4 GLP5        0.0000 
     13 CA         -0.8935   35.7730   18.9930 C.3       2 GLC5        0.0000 
     14 CA          0.9230   34.7580   19.6610 C.3       6 GLL5        0.0000 
     15 CA         -2.7100   36.7880   18.3250 C.3       4 GLP5        0.0000 
     16 CA          0.6505   36.1475   21.0035 C.3       2 GLC5        0.0000 
     17 CA          0.3780   37.5370   22.3460 C.3       4 GLP5        0.0000 
     18 CA          1.3390   36.8215   19.1600 C.3       2 GLC5        0.0000 
     19 CA          1.7550   38.8850   18.6590 C.3       4 GLP5        0.0000 
     20 CA          6.9728   37.4440   19.8933 C.3       2 GLC5        0.0000 
     21 CA          5.5090   36.3610   18.8340 C.3       6 GLL5        0.0000 
     22 CA          7.9630   38.2750   21.3960 C.3       4 GLP5        0.0000 
     23 CA          5.6233   34.9370   17.1470 C.3       2 GLC5        0.0000 
     24 CA          4.8195   34.8912   16.1988 C.3       2 GLC5        0.0000 
     25 CA          3.9490   36.3010   16.9400 C.3       6 GLL5        0.0000 
     26 CA          7.9452   36.4107   16.3245 C.3       2 GLC5        0.0000 
     27 CA          6.1330   37.0740   16.6030 C.3       6 GLL5        0.0000 
     28 CA          9.5960   35.8520   15.3740 C.3       4 GLP5        0.0000 
     29 CA          6.3323   35.3127   16.4840 C.3       2 GLC5        0.0000 
     30 CA          1.2087   38.9590   14.4838 C.3       2 GLC5        0.0000 
     31 CA          1.2030   36.9770   14.7770 C.3       6 GLL5        0.0000 
     32 CA          1.3770   40.8100   14.8470 C.3       4 GLP5        0.0000 
     33 CA          2.4217   37.4823   10.9375 C.3       2 GLC5        0.0000 
     34 CA          2.6510   38.6310    9.2940 C.3       4 GLP5        0.0000 
     35 CA          4.2632   34.9285   12.3722 C.3       2 GLC5        0.0000 
     36 CA          5.6250   34.0560   11.3520 C.3       4 GLP5        0.0000 
     37 CA          0.1578   33.6879   21.0832 C.3       2 GLC5        0.0000 
     38 CA         -0.7530   34.2050   22.5250 C.3       4 GLP5        0.0000 
     39 CA          2.9740   31.3970   18.8335 C.3       2 GLC5        0.0000 
     40 CA          1.4020   32.2970   19.7600 C.3       6 GLL5        0.0000 
     41 CA          4.7340   31.1520   18.0440 C.3       4 GLP5        0.0000 
     42 CA         -2.5648   32.7780   18.0980 C.3       2 GLC5        0.0000 
     43 CA         -0.9940   31.6930   18.5510 C.3       6 GLL5        0.0000 
     44 CA         -4.2960   33.1950   17.5270 C.3       4 GLP5        0.0000 
     45 CA         -1.9468   32.6615   20.1240 C.3       2 GLC5        0.0000 
     46 CA         -3.0600   32.9620   21.5790 C.3       4 GLP5        0.0000 
@<TRIPOS>BOND
@<TRIPOS>SUBSTRUCTURE
     1 SEC2        1 GROUP        1 X    SEC  0     ROOT SEC X 2
     2 GLC5        4 GROUP        1 X    GLC  0     **** GLC X 6
     3 SEP2        3 GROUP        1 Y    SEP  0     ROOT SEP Y 9
     4 GLP5        6 GROUP        1 Y    GLP  0     **** GLP Y 13
     5 SEL2        2 GROUP        1 Z    SEL  0     ROOT SEL Z 16
     6 GLL5        5 GROUP        1 Z    GLL  0     **** GLL Z 20
@<TRIPOS>SET

