#    Name: 3g45_988_2_ligand
#    Modification time : Tue Mar 25 07:03:13 2014

@<TRIPOS>MOLECULE
3g45_988_2_ligand
   41    44     1     0     0
SMALL
NO_CHARGES


@<TRIPOS>ATOM
      1 C1          5.5090   36.3610   18.8340 C.ar      1 988901      0.0000 
      2 C2          4.2440   36.0750   18.3680 C.ar      1 988901      0.0000 
      3 C3          3.9490   36.3010   16.9400 C.ar      1 988901      0.0000 
      4 N4          4.9080   36.8000   16.1160 N.ar      1 988901      0.0000 
      5 C5          6.1330   37.0740   16.6030 C.ar      1 988901      0.0000 
      6 C6          6.4560   36.8650   17.9470 C.ar      1 988901      0.0000 
      7 C13         3.2410   35.5840   19.1910 C.ar      1 988901      0.0000 
      8 C15         1.9610   35.2780   18.6950 C.ar      1 988901      0.0000 
      9 C17         1.6330   35.4650   17.3520 C.ar      1 988901      0.0000 
     10 C19         2.5890   35.9520   16.4690 C.ar      1 988901      0.0000 
     11 C22         2.2800   36.1840   15.0640 C.ar      1 988901      0.0000 
     12 C24         1.2030   36.9770   14.7770 C.ar      1 988901      0.0000 
     13 C25         0.8780   37.2390   13.4640 C.ar      1 988901      0.0000 
     14 C26         1.6440   36.7290   12.4310 C.ar      1 988901      0.0000 
     15 C27         2.7410   35.9380   12.7310 C.ar      1 988901      0.0000 
     16 C28         3.0620   35.6640   14.0540 C.ar      1 988901      0.0000 
     17 C35         0.9230   34.7580   19.6610 C.3       1 988901      0.0000 
     18 C37         0.5470   33.3310   19.3850 C.ar      1 988901      0.0000 
     19 C39         1.4020   32.2970   19.7600 C.ar      1 988901      0.0000 
     20 C40         1.0260   30.9870   19.4860 C.ar      1 988901      0.0000 
     21 N41        -0.1430   30.7160   18.8880 N.ar      1 988901      0.0000 
     22 C42        -0.9940   31.6930   18.5510 C.ar      1 988901      0.0000 
     23 C43        -0.6730   33.0290   18.7870 C.ar      1 988901      0.0000 
     24 N50        -0.2310   38.0310   13.2000 N.pl3     1 988901      0.0000 
     25 O52        -1.1670   38.0740   13.9960 O.2       1 988901      0.0000 
     26 O54        -0.2390   38.7750   12.0170 O.2       1 988901      0.0000 
     27 H           5.7545   36.2076   19.8151 H         1 988901      0.0000 
     28 H           6.8800   37.4550   15.9754 H         1 988901      0.0000 
     29 H           7.4057   37.0872   18.2819 H         1 988901      0.0000 
     30 H           3.4321   35.4357   20.2008 H         1 988901      0.0000 
     31 H           0.6878   35.2428   17.0196 H         1 988901      0.0000 
     32 H           0.6332   37.3796   15.5379 H         1 988901      0.0000 
     33 H           1.4037   36.9332   11.4562 H         1 988901      0.0000 
     34 H           3.3209   35.5515   11.9720 H         1 988901      0.0000 
     35 H           3.8763   35.0782   14.2741 H         1 988901      0.0000 
     36 H           0.0253   35.3916   19.5998 H         1 988901      0.0000 
     37 H           1.3122   34.8422   20.6870 H         1 988901      0.0000 
     38 H           2.2854   32.4984   20.2260 H         1 988901      0.0000 
     39 H           1.6778   30.2191   19.7581 H         1 988901      0.0000 
     40 H          -1.9111   31.4782   18.1069 H         1 988901      0.0000 
     41 H          -1.3213   33.7710   18.5257 H         1 988901      0.0000 
@<TRIPOS>BOND
     1    2    1 ar   
     2    6    1 ar   
     3   27    1 1    
     4    3    2 ar   
     5    7    2 ar   
     6    4    3 ar   
     7   10    3 ar   
     8    5    4 ar   
     9    6    5 ar   
    10   28    5 1    
    11   29    6 1    
    12    8    7 ar   
    13   30    7 1    
    14    9    8 ar   
    15   17    8 1    
    16   10    9 ar   
    17   31    9 1    
    18   11   10 1    
    19   12   11 ar   
    20   16   11 ar   
    21   13   12 ar   
    22   32   12 1    
    23   14   13 ar   
    24   24   13 1    
    25   15   14 ar   
    26   33   14 1    
    27   16   15 ar   
    28   34   15 1    
    29   35   16 1    
    30   18   17 1    
    31   36   17 1    
    32   37   17 1    
    33   19   18 ar   
    34   23   18 ar   
    35   20   19 ar   
    36   38   19 1    
    37   21   20 ar   
    38   39   20 1    
    39   22   21 ar   
    40   23   22 ar   
    41   40   22 1    
    42   41   23 1    
    43   25   24 2    
    44   26   24 2    
@<TRIPOS>SUBSTRUCTURE
     1 988901      1 GROUP   
@<TRIPOS>SET

