#    Name: 1hpo_UNI_1_INTS_M
#    Modification time : Tue Mar 25 05:39:13 2014

@<TRIPOS>MOLECULE
1hpo_UNI_1_INTS_M
   69     0     9     0     0
SMALL
NO_CHARGES


@<TRIPOS>ATOM
      1 N          12.0760   20.6695    7.9955 N.am      2 SEC2        0.0000 
      2 N          12.5220   21.3710    6.7520 N.am      8 SEL2        0.0000 
      3 N          11.6300   19.9680    9.2390 N.am      5 SEP2        0.0000 
      4 N          15.1630   25.7885    5.3370 N.am      2 SEC2        0.0000 
      5 N          14.7200   24.8210    4.7030 N.am      8 SEL2        0.0000 
      6 N          15.6060   26.7560    5.9710 N.am      5 SEP2        0.0000 
      7 O          14.7245   25.0720    3.4890 O.2       1 ALC1        0.0000 
      8 O          14.7200   24.8210    4.7030 O.2       7 ALL1        0.0000 
      9 O          14.7290   25.3230    2.2750 O.2       4 ALP1        0.0000 
     10 CA         15.2335   17.2290    2.8985 C.3       3 GLC5        0.0000 
     11 CA         16.1290   19.1410    3.3570 C.3       9 GLL5        0.0000 
     12 CA         14.3380   15.3170    2.4400 C.3       6 GLP5        0.0000 
     13 CA         14.3720   19.1420    6.7700 C.3       3 GLC5        0.0000 
     14 CA         15.9960   20.1240    5.5870 C.3       9 GLL5        0.0000 
     15 CA         12.7480   18.1600    7.9530 C.3       6 GLP5        0.0000 
     16 CA         13.5155   23.2045    9.4110 C.3       3 GLC5        0.0000 
     17 CA         15.4090   23.3410    8.4740 C.3       9 GLL5        0.0000 
     18 CA         11.6220   23.0680   10.3480 C.3       6 GLP5        0.0000 
     19 CA         18.4070   24.0315    8.1785 C.3       3 GLC5        0.0000 
     20 CA         16.7720   22.9310    7.9340 C.3       9 GLL5        0.0000 
     21 CA         20.0420   25.1320    8.4230 C.3       6 GLP5        0.0000 
     22 CA          9.2160   23.9780    7.2125 C.3       3 GLC5        0.0000 
     23 CA          9.7560   24.7210    5.2000 C.3       9 GLL5        0.0000 
     24 CA          8.6760   23.2350    9.2250 C.3       6 GLP5        0.0000 
     25 CA          8.3770   23.3065    5.0610 C.3       3 GLC5        0.0000 
     26 CA          9.0920   24.5760    3.8190 C.3       9 GLL5        0.0000 
     27 CA          7.6620   22.0370    6.3030 C.3       6 GLP5        0.0000 
     28 CA         10.5830   21.8160    3.1505 C.3       3 GLC5        0.0000 
     29 CA          9.8770   23.8900    2.7510 C.3       9 GLL5        0.0000 
     30 CA         11.2890   19.7420    3.5500 C.3       6 GLP5        0.0000 
     31 CA         11.9865   28.0500    4.6285 C.3       3 GLC5        0.0000 
     32 CA         12.1320   26.1330    4.1020 C.3       9 GLL5        0.0000 
     33 CA         11.8410   29.9670    5.1550 C.3       6 GLP5        0.0000 
     34 N          19.8090   19.8815    3.4680 N.am      2 SEC2        0.0000 
     35 N          18.9170   18.8390    4.2920 N.am      8 SEL2        0.0000 
     36 N          20.7010   20.9240    2.6440 N.am      5 SEP2        0.0000 
     37 CA         20.1865   23.0760    7.9915 C.3       3 GLC5        0.0000 
     38 CA         20.3310   21.0200    7.5600 C.3       9 GLL5        0.0000 
     39 CA         20.4580   23.2430    9.1560 C.3       3 GLC5        0.0000 
     40 CA         20.8740   21.3540    9.8890 C.3       9 GLL5        0.0000 
     41 CA         20.0020   22.7530   11.3780 C.3       3 GLC5        0.0000 
     42 CA         19.1300   24.1520   12.8670 C.3       6 GLP5        0.0000 
     43 CA          9.0633   23.2432    5.7942 C.3       3 GLC5        0.0000 
     44 CA         11.1730   24.1780    5.3710 C.3       9 GLL5        0.0000 
     45 CA         16.5423   21.8987    3.0168 C.3       3 GLC5        0.0000 
     46 CA         15.3970   21.2880    5.0660 C.3       9 GLL5        0.0000 
     47 CA         17.8090   22.4690    1.6670 C.3       6 GLP5        0.0000 
     48 CA         13.3135   20.2840    3.4002 C.3       3 GLC5        0.0000 
     49 CA         15.1540   21.3690    3.6670 C.3       9 GLL5        0.0000 
     50 CA         16.8173   21.0905    2.3813 C.3       3 GLC5        0.0000 
     51 CA         15.5220   20.2830    2.8340 C.3       9 GLL5        0.0000 
     52 CA         15.4692   18.7535    1.3277 C.3       3 GLC5        0.0000 
     53 CA         15.1130   17.7950   -0.4400 C.3       6 GLP5        0.0000 
     54 CA         16.5312   23.2265   10.0550 C.3       3 GLC5        0.0000 
     55 CA         16.9720   23.3170   11.9060 C.3       6 GLP5        0.0000 
     56 CA         15.2637   24.4500    9.2780 C.3       3 GLC5        0.0000 
     57 CA         14.4370   25.7640   10.3520 C.3       6 GLP5        0.0000 
     58 CA          9.5940   24.2512    0.4652 C.3       3 GLC5        0.0000 
     59 CA         11.0450   24.6630    2.1980 C.3       9 GLL5        0.0000 
     60 CA          8.7270   24.2260   -1.5440 C.3       6 GLP5        0.0000 
     61 CA         11.3445   23.8143    0.8878 C.3       3 GLC5        0.0000 
     62 CA         12.2280   23.3520   -0.6990 C.3       6 GLP5        0.0000 
     63 CA         11.2865   26.5880    0.9150 C.3       3 GLC5        0.0000 
     64 CA         11.4080   27.8100   -0.6680 C.3       6 GLP5        0.0000 
     65 CA         12.7372   27.6400    2.7170 C.3       3 GLC5        0.0000 
     66 CA         11.2850   26.0690    2.7980 C.3       9 GLL5        0.0000 
     67 CA         13.7660   29.1790    1.9840 C.3       6 GLP5        0.0000 
     68 CA         22.3645   21.6397    8.7615 C.3       3 GLC5        0.0000 
     69 CA         24.1390   22.2030    8.4640 C.3       6 GLP5        0.0000 
@<TRIPOS>BOND
@<TRIPOS>SUBSTRUCTURE
     1 ALC1        7 GROUP        1 X    ALC  0     ROOT ALC X 1
     2 SEC2        1 GROUP        1 X    SEC  0     **** SEC X 2
     3 GLC5       10 GROUP        1 X    GLC  0     **** GLC X 6
     4 ALP1        9 GROUP        1 Y    ALP  0     ROOT ALP Y 8
     5 SEP2        3 GROUP        1 Y    SEP  0     **** SEP Y 9
     6 GLP5       12 GROUP        1 Y    GLP  0     **** GLP Y 13
     7 ALL1        8 GROUP        1 Z    ALL  0     ROOT ALL Z 15
     8 SEL2        2 GROUP        1 Z    SEL  0     **** SEL Z 16
     9 GLL5       11 GROUP        1 Z    GLL  0     **** GLL Z 20
@<TRIPOS>SET

