#    Name: 1hpo_UNI_1_ligand
#    Modification time : Tue Mar 25 05:39:14 2014

@<TRIPOS>MOLECULE
1hpo_UNI_1_ligand
   64    68     1     0     0
SMALL
NO_CHARGES


@<TRIPOS>ATOM
      1 CA         13.6440   23.0550    5.7580 C.2       1 UNI100      0.0000 
      2 CA2        12.4620   22.4300    6.2330 C.2       1 UNI100      0.0000 
      3 OA2        12.5220   21.3710    6.7520 O.2       1 UNI100      0.0000 
      4 OA3        11.2320   22.9530    6.0750 O.3       1 UNI100      0.0000 
      5 CA4        11.1730   24.1780    5.3710 C.2       1 UNI100      0.0000 
      6 CA5        12.2830   24.8340    4.8700 C.2       1 UNI100      0.0000 
      7 CA6        13.5440   24.2550    5.0790 C.2       1 UNI100      0.0000 
      8 OA6        14.7200   24.8210    4.7030 O.3       1 UNI100      0.0000 
      9 CB1        15.3970   21.2880    5.0660 C.ar      1 UNI100      0.0000 
     10 CB2        15.1540   21.3690    3.6670 C.ar      1 UNI100      0.0000 
     11 CB3        15.5220   20.2830    2.8340 C.ar      1 UNI100      0.0000 
     12 CB4        16.1290   19.1410    3.3570 C.ar      1 UNI100      0.0000 
     13 CB5        16.3510   19.0480    4.7530 C.ar      1 UNI100      0.0000 
     14 CB6        15.9960   20.1240    5.5870 C.ar      1 UNI100      0.0000 
     15 CG1        15.0550   22.4530    5.9880 C.3       1 UNI100      0.0000 
     16 CG2        15.5140   22.2140    7.4440 C.3       1 UNI100      0.0000 
     17 CG3        15.4090   23.3410    8.4740 C.3       1 UNI100      0.0000 
     18 CG4        16.7720   22.9310    7.9340 C.3       1 UNI100      0.0000 
     19 CD1         9.7560   24.7210    5.2000 C.3       1 UNI100      0.0000 
     20 CD2         9.0920   24.5760    3.8190 C.3       1 UNI100      0.0000 
     21 CD3         9.8770   23.8900    2.7510 C.3       1 UNI100      0.0000 
     22 CD4        11.0450   24.6630    2.1980 C.3       1 UNI100      0.0000 
     23 CD5        11.2850   26.0690    2.7980 C.3       1 UNI100      0.0000 
     24 CD6        12.1320   26.1330    4.1020 C.3       1 UNI100      0.0000 
     25 N          16.9830   17.9420    5.3080 N.pl3     1 UNI100      0.0000 
     26 S          18.5350   18.0980    5.4930 S.o2      1 UNI100      0.0000 
     27 O1         18.8700   16.6830    5.5030 O.2       1 UNI100      0.0000 
     28 O2         18.9170   18.8390    4.2920 O.2       1 UNI100      0.0000 
     29 CZ1        19.1800   18.9950    6.8380 C.ar      1 UNI100      0.0000 
     30 CZ2        19.1190   18.5400    8.1890 C.ar      1 UNI100      0.0000 
     31 CZ3        19.6730   19.3400    9.2240 C.ar      1 UNI100      0.0000 
     32 CZ4        20.2810   20.5780    8.8980 C.ar      1 UNI100      0.0000 
     33 CZ5        20.3310   21.0200    7.5600 C.ar      1 UNI100      0.0000 
     34 CZ6        19.7850   20.2350    6.5360 C.ar      1 UNI100      0.0000 
     35 CZ7        20.8740   21.3540    9.8890 C.1       1 UNI100      0.0000 
     36 NZ7        21.3780   22.0050   10.7220 N.1       1 UNI100      0.0000 
     37 H          14.7216   22.1965    3.2716 H         1 UNI100      0.0000 
     38 H          15.3330   20.3476    1.8210 H         1 UNI100      0.0000 
     39 H          16.4138   18.3749    2.7481 H         1 UNI100      0.0000 
     40 H          16.1776   20.0603    6.6008 H         1 UNI100      0.0000 
     41 H          15.7832   23.3071    5.6119 H         1 UNI100      0.0000 
     42 H          15.4662   21.3867    7.9352 H         1 UNI100      0.0000 
     43 H          15.3029   22.9395    9.3234 H         1 UNI100      0.0000 
     44 H          15.1395   24.1215    8.0134 H         1 UNI100      0.0000 
     45 H          17.0194   23.5575    7.2699 H         1 UNI100      0.0000 
     46 H          17.1828   22.3754    8.5799 H         1 UNI100      0.0000 
     47 H           9.7535   25.8055    5.4756 H         1 UNI100      0.0000 
     48 H           9.0929   24.2337    5.9582 H         1 UNI100      0.0000 
     49 H           8.8047   25.6012    3.4709 H         1 UNI100      0.0000 
     50 H           8.1168   24.0447    3.9651 H         1 UNI100      0.0000 
     51 H           9.1943   23.6243    1.9082 H         1 UNI100      0.0000 
     52 H          10.2493   22.9122    3.1411 H         1 UNI100      0.0000 
     53 H          10.9248   24.7786    1.0969 H         1 UNI100      0.0000 
     54 H          11.9785   24.0710    2.3335 H         1 UNI100      0.0000 
     55 H          10.3017   26.5406    2.9988 H         1 UNI100      0.0000 
     56 H          11.7780   26.7012    2.0320 H         1 UNI100      0.0000 
     57 H          13.1382   26.5215    3.8346 H         1 UNI100      0.0000 
     58 H          11.6783   26.9014    4.7642 H         1 UNI100      0.0000 
     59 H          16.5842   17.1106    5.5850 H         1 UNI100      0.0000 
     60 H          18.6823   17.6508    8.4061 H         1 UNI100      0.0000 
     61 H          19.6330   19.0263   10.1883 H         1 UNI100      0.0000 
     62 H          20.7696   21.9201    7.3396 H         1 UNI100      0.0000 
     63 H          19.8222   20.5567    5.5644 H         1 UNI100      0.0000 
     64 H          14.8315   24.5710    3.7412 H         1 UNI100      0.0000 
@<TRIPOS>BOND
     1    2    1 1    
     2    7    1 2    
     3   15    1 1    
     4    3    2 2    
     5    4    2 1    
     6    5    4 1    
     7    6    5 2    
     8   19    5 1    
     9    7    6 1    
    10   24    6 1    
    11    8    7 1    
    12   64    8 1    
    13   10    9 ar   
    14   14    9 ar   
    15   15    9 1    
    16   11   10 ar   
    17   37   10 1    
    18   12   11 ar   
    19   38   11 1    
    20   13   12 ar   
    21   39   12 1    
    22   14   13 ar   
    23   25   13 1    
    24   40   14 1    
    25   16   15 1    
    26   41   15 1    
    27   17   16 1    
    28   18   16 1    
    29   42   16 1    
    30   18   17 1    
    31   43   17 1    
    32   44   17 1    
    33   45   18 1    
    34   46   18 1    
    35   20   19 1    
    36   47   19 1    
    37   48   19 1    
    38   21   20 1    
    39   49   20 1    
    40   50   20 1    
    41   22   21 1    
    42   51   21 1    
    43   52   21 1    
    44   23   22 1    
    45   53   22 1    
    46   54   22 1    
    47   24   23 1    
    48   55   23 1    
    49   56   23 1    
    50   57   24 1    
    51   58   24 1    
    52   26   25 1    
    53   59   25 1    
    54   27   26 2    
    55   28   26 2    
    56   29   26 1    
    57   30   29 ar   
    58   34   29 ar   
    59   31   30 ar   
    60   60   30 1    
    61   32   31 ar   
    62   61   31 1    
    63   33   32 ar   
    64   35   32 1    
    65   34   33 ar   
    66   62   33 1    
    67   63   34 1    
    68   36   35 3    
@<TRIPOS>SUBSTRUCTURE
     1 UNI100      1 GROUP   
@<TRIPOS>SET

