#    Name: 1di8_DTQ_1_INTS_M
#    Modification time : Mon Mar 24 21:58:32 2014

@<TRIPOS>MOLECULE
1di8_DTQ_1_INTS_M
   66     0     9     0     0
SMALL
NO_CHARGES


@<TRIPOS>ATOM
      1 CA        -11.1965   52.6545   13.9890 C.3       3 GLC5        0.0000 
      2 CA        -10.2040   52.9720   12.5990 C.3       9 GLL5        0.0000 
      3 CA        -12.1890   52.3370   15.3790 C.3       6 GLP5        0.0000 
      4 CA        -11.7325   53.9750   12.1330 C.3       3 GLC5        0.0000 
      5 CA        -13.2610   54.9780   11.6670 C.3       6 GLP5        0.0000 
      6 CA         -9.5960   54.6115   11.2880 C.3       3 GLC5        0.0000 
      7 CA         -8.9880   56.2510    9.9770 C.3       6 GLP5        0.0000 
      8 CA         -8.5230   52.8675   11.8215 C.3       3 GLC5        0.0000 
      9 CA         -6.8420   52.7630   11.0440 C.3       6 GLP5        0.0000 
     10 N         -11.3625   53.3160   10.6535 N.am      2 SEC2        0.0000 
     11 N         -10.8280   52.3530   11.5200 N.am      8 SEL2        0.0000 
     12 N         -11.8970   54.2790    9.7870 N.am      5 SEP2        0.0000 
     13 CA         -8.6735   51.8890   11.0875 C.3       3 GLC5        0.0000 
     14 CA        -10.5050   51.0150   11.1310 C.3       9 GLL5        0.0000 
     15 CA        -10.5260   51.6395   14.2555 C.3       3 GLC5        0.0000 
     16 CA         -8.8630   50.9420   13.1320 C.3       9 GLL5        0.0000 
     17 CA         -7.8525   51.8525   12.0880 C.3       3 GLC5        0.0000 
     18 CA         -9.0000   49.6950   15.9405 C.3       3 GLC5        0.0000 
     19 CA         -7.2290   50.6820   15.1650 C.3       9 GLL5        0.0000 
     20 CA        -10.7710   48.7080   16.7160 C.3       6 GLP5        0.0000 
     21 CA         -5.6995   49.5010   18.9495 C.3       3 GLC5        0.0000 
     22 CA         -5.5720   49.8430   16.9480 C.3       9 GLL5        0.0000 
     23 CA         -5.8270   49.1590   20.9510 C.3       6 GLP5        0.0000 
     24 CA         -3.6905   51.8750   17.6250 C.3       3 GLC5        0.0000 
     25 CA         -5.5700   51.1620   17.5920 C.3       9 GLL5        0.0000 
     26 CA         -1.8110   52.5880   17.6580 C.3       6 GLP5        0.0000 
     27 CA         -8.5655   53.6765   16.4130 C.3       3 GLC5        0.0000 
     28 CA         -7.2620   52.0030   15.8780 C.3       9 GLL5        0.0000 
     29 CA         -9.8690   55.3500   16.9480 C.3       6 GLP5        0.0000 
     30 N          -5.3485   48.4110   18.7615 N.am      2 SEC2        0.0000 
     31 N          -4.8340   48.8240   17.5090 N.am      8 SEL2        0.0000 
     32 N          -5.8630   47.9980   20.0140 N.am      5 SEP2        0.0000 
     33 O          -3.6305   49.0005   17.1830 O.2       1 ALC1        0.0000 
     34 O          -4.8340   48.8240   17.5090 O.2       7 ALL1        0.0000 
     35 O          -2.4270   49.1770   16.8570 O.2       4 ALP1        0.0000 
     36 CA        -13.8050   49.7970    8.6155 C.3       3 GLC5        0.0000 
     37 CA        -12.3960   48.8920    7.6050 C.3       9 GLL5        0.0000 
     38 CA        -15.2140   50.7020    9.6260 C.3       6 GLP5        0.0000 
     39 CA        -12.3280   50.7095    6.4345 C.3       3 GLC5        0.0000 
     40 CA        -12.2600   52.5270    5.2640 C.3       6 GLP5        0.0000 
     41 CA        -11.0185   49.3220    6.3005 C.3       3 GLC5        0.0000 
     42 CA         -9.6410   49.7520    4.9960 C.3       6 GLP5        0.0000 
     43 CA         -9.8455   46.2495   11.5470 C.3       3 GLC5        0.0000 
     44 CA         -8.4820   46.1170   10.5080 C.3       9 GLL5        0.0000 
     45 CA        -11.2090   46.3820   12.5860 C.3       6 GLP5        0.0000 
     46 CA         -7.2805   46.8925    8.9940 C.3       3 GLC5        0.0000 
     47 CA         -6.0790   47.6680    7.4800 C.3       6 GLP5        0.0000 
     48 CA        -11.1103   52.5440    9.4990 C.3       3 GLC5        0.0000 
     49 CA        -11.1780   50.3770    9.9930 C.3       9 GLL5        0.0000 
     50 CA        -11.3790   54.3920    8.4360 C.3       6 GLP5        0.0000 
     51 CA        -10.2255   47.9757   12.1445 C.3       3 GLC5        0.0000 
     52 CA         -9.4320   50.2410   11.9370 C.3       9 GLL5        0.0000 
     53 CA        -10.7557   47.5020   11.2685 C.3       3 GLC5        0.0000 
     54 CA         -9.7510   48.2530   10.3090 C.3       9 GLL5        0.0000 
     55 CA         -8.0738   49.8386   10.2655 C.3       3 GLC5        0.0000 
     56 CA         -6.6510   50.7660    9.5250 C.3       6 GLP5        0.0000 
     57 CA         -5.4480   51.3722   14.5930 C.3       3 GLC5        0.0000 
     58 CA         -4.0990   52.5960   13.7430 C.3       6 GLP5        0.0000 
     59 CA         -7.4083   48.5980   17.0352 C.3       3 GLC5        0.0000 
     60 CA         -6.3650   49.6150   15.7210 C.3       9 GLL5        0.0000 
     61 CA         -8.8480   47.4670   17.7360 C.3       6 GLP5        0.0000 
     62 CA         -4.8350   51.5493   15.5065 C.3       3 GLC5        0.0000 
     63 CA         -6.5192   50.8887   19.0755 C.3       3 GLC5        0.0000 
     64 CA         -7.0440   50.0740   20.8240 C.3       6 GLP5        0.0000 
     65 CA         -5.4698   52.3600   15.1065 C.3       3 GLC5        0.0000 
     66 CA         -6.4190   52.2450   17.0620 C.3       9 GLL5        0.0000 
@<TRIPOS>BOND
@<TRIPOS>SUBSTRUCTURE
     1 ALC1       33 GROUP        1 X    ALC  0     ROOT ALC X 1
     2 SEC2       10 GROUP        1 X    SEC  0     **** SEC X 2
     3 GLC5        1 GROUP        1 X    GLC  0     **** GLC X 6
     4 ALP1       35 GROUP        1 Y    ALP  0     ROOT ALP Y 8
     5 SEP2       12 GROUP        1 Y    SEP  0     **** SEP Y 9
     6 GLP5        3 GROUP        1 Y    GLP  0     **** GLP Y 13
     7 ALL1       34 GROUP        1 Z    ALL  0     ROOT ALL Z 15
     8 SEL2       11 GROUP        1 Z    SEL  0     **** SEL Z 16
     9 GLL5        2 GROUP        1 Z    GLL  0     **** GLL Z 20
@<TRIPOS>SET

