#    Name: 1di8_DTQ_1_ligand
#    Modification time : Mon Mar 24 21:58:32 2014

@<TRIPOS>MOLECULE
1di8_DTQ_1_ligand
   37    39     1     0     0
SMALL
NO_CHARGES


@<TRIPOS>ATOM
      1 N1         -9.2640   52.3090   13.3720 N.ar      1 DTQ500      0.0000 
      2 C2        -10.2040   52.9720   12.5990 C.ar      1 DTQ500      0.0000 
      3 N3        -10.8280   52.3530   11.5200 N.ar      1 DTQ500      0.0000 
      4 C4        -10.5050   51.0150   11.1310 C.ar      1 DTQ500      0.0000 
      5 C5         -9.4320   50.2410   11.9370 C.ar      1 DTQ500      0.0000 
      6 C6         -8.8630   50.9420   13.1320 C.ar      1 DTQ500      0.0000 
      7 C7        -11.1780   50.3770    9.9930 C.ar      1 DTQ500      0.0000 
      8 C8        -10.8540   48.9910    9.5930 C.ar      1 DTQ500      0.0000 
      9 C9         -9.7510   48.2530   10.3090 C.ar      1 DTQ500      0.0000 
     10 C10        -9.0520   48.8980   11.4690 C.ar      1 DTQ500      0.0000 
     11 N12        -7.9420   50.3180   14.0110 N.pl3     1 DTQ500      0.0000 
     12 C14        -7.2290   50.6820   15.1650 C.ar      1 DTQ500      0.0000 
     13 C15        -6.3650   49.6150   15.7210 C.ar      1 DTQ500      0.0000 
     14 C16        -5.5720   49.8430   16.9480 C.ar      1 DTQ500      0.0000 
     15 C17        -5.5700   51.1620   17.5920 C.ar      1 DTQ500      0.0000 
     16 C18        -6.4190   52.2450   17.0620 C.ar      1 DTQ500      0.0000 
     17 C19        -7.2620   52.0030   15.8780 C.ar      1 DTQ500      0.0000 
     18 O21        -4.8340   48.8240   17.5090 O.3       1 DTQ500      0.0000 
     19 O26       -11.5470   48.2780    8.5820 O.3       1 DTQ500      0.0000 
     20 C27       -12.3960   48.8920    7.6050 C.3       1 DTQ500      0.0000 
     21 O31        -9.4630   46.9300    9.8550 O.3       1 DTQ500      0.0000 
     22 C32        -8.4820   46.1170   10.5080 C.3       1 DTQ500      0.0000 
     23 H         -10.4507   53.9559   12.8288 H         1 DTQ500      0.0000 
     24 H         -11.8740   50.8892    9.4722 H         1 DTQ500      0.0000 
     25 H          -8.3122   48.3943   11.9272 H         1 DTQ500      0.0000 
     26 H          -7.7267   49.2406   13.6959 H         1 DTQ500      0.0000 
     27 H          -6.3179   48.7246   15.2573 H         1 DTQ500      0.0000 
     28 H          -4.9919   51.3298   18.3932 H         1 DTQ500      0.0000 
     29 H          -6.4222   53.1406   17.5051 H         1 DTQ500      0.0000 
     30 H          -7.8700   52.7227   15.5344 H         1 DTQ500      0.0000 
     31 H         -11.8996   49.5571    7.0470 H         1 DTQ500      0.0000 
     32 H         -12.7886   48.2187    6.9785 H         1 DTQ500      0.0000 
     33 H         -13.1600   49.3778    8.0296 H         1 DTQ500      0.0000 
     34 H          -7.5756   46.5389   10.4859 H         1 DTQ500      0.0000 
     35 H          -8.7092   45.9609   11.4692 H         1 DTQ500      0.0000 
     36 H          -8.3977   45.2186   10.0771 H         1 DTQ500      0.0000 
     37 H          -4.0686   48.6829   16.8811 H         1 DTQ500      0.0000 
@<TRIPOS>BOND
     1    2    1 ar   
     2    6    1 ar   
     3    3    2 ar   
     4   23    2 1    
     5    4    3 ar   
     6    5    4 ar   
     7    7    4 ar   
     8    6    5 ar   
     9   10    5 ar   
    10   11    6 1    
    11    8    7 ar   
    12   24    7 1    
    13    9    8 ar   
    14   19    8 1    
    15   10    9 ar   
    16   21    9 1    
    17   25   10 1    
    18   12   11 1    
    19   26   11 1    
    20   13   12 ar   
    21   17   12 ar   
    22   14   13 ar   
    23   27   13 1    
    24   15   14 ar   
    25   18   14 1    
    26   16   15 ar   
    27   28   15 1    
    28   17   16 ar   
    29   29   16 1    
    30   30   17 1    
    31   37   18 1    
    32   20   19 1    
    33   31   20 1    
    34   32   20 1    
    35   33   20 1    
    36   22   21 1    
    37   34   22 1    
    38   35   22 1    
    39   36   22 1    
@<TRIPOS>SUBSTRUCTURE
     1 DTQ500      1 GROUP   
@<TRIPOS>SET

