#    Name: 3F16_1_CAVITY_N1_ALL.mol2
#    Modification time : Mon Mar 10 15:13:54 2014

@<TRIPOS>MOLECULE
3F16_1_CAVITY_N1_ALL.mol2
   85     0     6     0     0
SMALL
NO_CHARGES


@<TRIPOS>ATOM
      1 N           0.5483   -7.4545   -2.2241 N.2       1 ALA2        0.0000 
      2 N          -2.7915   -7.4422   -1.9152 N.2       1 ALA2        0.0000 
      3 N          -1.4892   -8.0240   -2.3795 N.2       1 ALA2        0.0000 
      4 CA          0.6005   -3.8046   -1.8053 C.3       5 GLY6        0.0000 
      5 DU         -1.4371   -4.3741   -1.9607 H         6 CUB7        0.0000 
      6 CA         -0.1348   -4.9559   -2.4249 C.3       5 GLY6        0.0000 
      7 N          -3.4746   -4.9436   -2.1161 N.2       1 ALA2        0.0000 
      8 N          -2.1723   -5.5254   -2.5803 N.2       1 ALA2        0.0000 
      9 CA         -0.8700   -6.1072   -3.0446 C.3       5 GLY6        0.0000 
     10 N          -1.6052   -7.2585   -3.6642 N.2       1 ALA2        0.0000 
     11 N          -2.3404   -8.4098   -4.2838 N.2       1 ALA2        0.0000 
     12 DU         -0.8178   -2.4573   -2.6258 H         6 CUB7        0.0000 
     13 CA          0.4845   -3.0391   -3.0900 C.3       5 GLY6        0.0000 
     14 OD1        -2.8553   -3.0268   -2.7812 O.3       2 ASP3        0.0000 
     15 N          -1.5530   -3.6086   -3.2454 N.2       1 ALA2        0.0000 
     16 N          -0.2507   -4.1904   -3.7097 N.2       1 ALA2        0.0000 
     17 N          -3.5906   -4.1781   -3.4008 N.2       1 ALA2        0.0000 
     18 N          -2.2883   -4.7599   -3.8651 N.2       1 ALA2        0.0000 
     19 N          -0.9860   -5.3417   -4.3293 N.2       1 ALA2        0.0000 
     20 N          -3.0235   -5.9112   -4.4847 N.2       1 ALA2        0.0000 
     21 N          -1.7212   -6.4930   -4.9489 N.2       1 ALA2        0.0000 
     22 CA         -2.4564   -7.6443   -5.5686 C.3       5 GLY6        0.0000 
     23 CA         -3.1917   -8.7956   -6.1882 C.3       5 GLY6        0.0000 
     24 N         -11.3418  -11.0736   -6.8098 N.2       1 ALA2        0.0000 
     25 N          -1.6690   -2.8431   -4.5302 N.2       1 ALA2        0.0000 
     26 OD1        -2.4042   -3.9944   -5.1498 O.3       2 ASP3        0.0000 
     27 N          -1.1019   -4.5762   -5.6140 N.2       1 ALA2        0.0000 
     28 N          -4.4418   -4.5639   -5.3052 N.2       1 ALA2        0.0000 
     29 N          -3.1395   -5.1457   -5.7694 N.2       1 ALA2        0.0000 
     30 N          -1.8372   -5.7275   -6.2337 N.2       1 ALA2        0.0000 
     31 N          -5.1770   -5.7152   -5.9248 N.2       1 ALA2        0.0000 
     32 N          -3.8747   -6.2970   -6.3891 N.2       1 ALA2        0.0000 
     33 CA         -2.5724   -6.8788   -6.8533 C.3       5 GLY6        0.0000 
     34 N          -5.9122   -6.8665   -6.5445 N.2       1 ALA2        0.0000 
     35 O          -4.6099   -7.4483   -7.0087 O.2       1 ALA2        0.0000 
     36 CA         -3.3076   -8.0301   -7.4729 C.3       5 GLY6        0.0000 
     37 N          -6.6475   -8.0178   -7.1641 N.2       1 ALA2        0.0000 
     38 N         -10.7225   -9.1568   -7.4749 N.2       1 ALA2        0.0000 
     39 N          -9.4202   -9.7386   -7.9391 N.2       1 ALA2        0.0000 
     40 N         -12.7601   -9.7262   -7.6303 N.2       1 ALA2        0.0000 
     41 N         -11.4578  -10.3081   -8.0945 N.2       1 ALA2        0.0000 
     42 NZ         -3.2555   -4.3802   -7.0542 N.2       3 LYS4        0.0000 
     43 NZ         -1.9532   -4.9620   -7.5184 N.2       3 LYS4        0.0000 
     44 O          -5.2930   -4.9497   -7.2096 O.2       1 ALA2        0.0000 
     45 CA         -3.9907   -5.5315   -7.6738 C.3       5 GLY6        0.0000 
     46 CA         -2.6884   -6.1133   -8.1380 C.3       5 GLY6        0.0000 
     47 O          -6.0282   -6.1010   -7.8292 O.2       1 ALA2        0.0000 
     48 DU         -4.7259   -6.6828   -8.2934 H         6 CUB7        0.0000 
     49 CA         -3.4236   -7.2646   -8.7577 C.3       5 GLY6        0.0000 
     50 N          -8.0657   -6.6705   -7.9846 N.2       1 ALA2        0.0000 
     51 CA         -6.7634   -7.2523   -8.4488 C.3       5 GLY6        0.0000 
     52 CZ         -5.4611   -7.8341   -8.9131 C.ar      4 PHE5        0.0000 
     53 N         -10.1033   -7.2399   -8.1400 N.2       1 ALA2        0.0000 
     54 N          -8.8010   -7.8218   -8.6042 N.2       1 ALA2        0.0000 
     55 CA         -7.4987   -8.4036   -9.0685 C.3       5 GLY6        0.0000 
     56 CA        -10.8385   -8.3912   -8.7596 C.3       5 GLY6        0.0000 
     57 N          -9.5362   -8.9730   -9.2239 N.2       1 ALA2        0.0000 
     58 N          -8.2339   -9.5549   -9.6881 N.2       1 ALA2        0.0000 
     59 N         -12.8760   -8.9607   -8.9150 N.2       1 ALA2        0.0000 
     60 N         -11.5737   -9.5425   -9.3793 N.2       1 ALA2        0.0000 
     61 N         -10.2714  -10.1243   -9.8435 N.2       1 ALA2        0.0000 
     62 N         -13.6113  -10.1120   -9.5347 N.2       1 ALA2        0.0000 
     63 CA        -12.3090  -10.6938   -9.9989 C.3       5 GLY6        0.0000 
     64 NZ         -4.1067   -4.7660   -8.9585 N.2       3 LYS4        0.0000 
     65 CA         -4.8419   -5.9173   -9.5782 C.3       5 GLY6        0.0000 
     66 CA         -6.8794   -6.4867   -9.7336 C.3       5 GLY6        0.0000 
     67 CA         -5.5771   -7.0686  -10.1978 C.3       5 GLY6        0.0000 
     68 CA         -8.9170   -7.0562   -9.8890 C.3       5 GLY6        0.0000 
     69 N          -7.6147   -7.6380  -10.3532 N.2       1 ALA2        0.0000 
     70 CZ         -6.3124   -8.2199  -10.8174 C.ar      4 PHE5        0.0000 
     71 CA        -10.9545   -7.6257  -10.0444 C.3       5 GLY6        0.0000 
     72 CA         -9.6522   -8.2075  -10.5086 C.3       5 GLY6        0.0000 
     73 CA         -8.3499   -8.7893  -10.9728 C.3       5 GLY6        0.0000 
     74 CA        -12.9920   -8.1952  -10.1998 C.3       5 GLY6        0.0000 
     75 CA        -11.6897   -8.7770  -10.6640 C.3       5 GLY6        0.0000 
     76 N         -10.3874   -9.3588  -11.1282 N.2       1 ALA2        0.0000 
     77 N         -15.0295   -8.7647  -10.3552 N.2       1 ALA2        0.0000 
     78 CA        -13.7272   -9.3465  -10.8194 C.3       5 GLY6        0.0000 
     79 CA        -12.4249   -9.9283  -11.2836 C.3       5 GLY6        0.0000 
     80 CA         -9.7682   -7.4420  -11.7933 C.3       5 GLY6        0.0000 
     81 CZ        -13.1080   -7.4297  -11.4845 C.ar      4 PHE5        0.0000 
     82 CZ        -11.8057   -8.0115  -11.9487 C.ar      4 PHE5        0.0000 
     83 CA        -10.5034   -8.5933  -12.4130 C.3       5 GLY6        0.0000 
     84 CZ        -13.8432   -8.5810  -12.1041 C.ar      4 PHE5        0.0000 
     85 CA        -12.5409   -9.1628  -12.5684 C.3       5 GLY6        0.0000 
@<TRIPOS>BOND
@<TRIPOS>SUBSTRUCTURE
     1 ALA2        1 GROUP   
     2 ASP3       14 GROUP   
     3 LYS4       42 GROUP   
     4 PHE5       52 GROUP   
     5 GLY6        4 GROUP   
     6 CUB7        5 GROUP   
@<TRIPOS>SET

