#    Name: 3f16_HS3_1_INTS_M
#    Modification time : Tue Mar 25 03:03:28 2014

@<TRIPOS>MOLECULE
3f16_HS3_1_INTS_M
   43     0    12     0     0
SMALL
NO_CHARGES


@<TRIPOS>ATOM
      1 Zn         -4.3770   -2.3370   -4.6880 Zn        3 ZIC7        0.0000 
      2 Zn         -4.0330   -3.1390   -4.2650 Zn       11 ZIL7        0.0000 
      3 Zn         -4.7210   -1.5350   -5.1110 Zn        7 ZIP7        0.0000 
      4 Zn         -3.4190   -2.0415   -5.1705 Zn        3 ZIC7        0.0000 
      5 Zn         -2.1170   -2.5480   -5.2300 Zn       11 ZIL7        0.0000 
      6 Zn         -3.7590   -1.5560   -5.5475 Zn        3 ZIC7        0.0000 
      7 Zn         -2.7970   -1.5770   -5.9840 Zn       11 ZIL7        0.0000 
      8 O          -3.6155   -6.3135   -3.4225 O.2       1 ALC1        0.0000 
      9 O          -2.3020   -5.6730   -3.6680 O.2       9 ALL1        0.0000 
     10 O          -4.9290   -6.9540   -3.1770 O.2       5 ALP1        0.0000 
     11 Zn         -3.5115   -3.6040   -4.3895 Zn        3 ZIC7        0.0000 
     12 Zn         -2.3020   -5.6730   -3.6680 Zn       11 ZIL7        0.0000 
     13 N           0.6205   -6.4505   -5.8720 N.am      2 SEC2        0.0000 
     14 N          -0.6020   -5.9870   -5.4460 N.am     10 SEL2        0.0000 
     15 N           1.8430   -6.9140   -6.2980 N.am      6 SEP2        0.0000 
     16 CA         -5.2610   -8.1635   -4.9255 C.3       4 GLC5        0.0000 
     17 CA         -4.0980   -7.0610   -6.3130 C.3      12 GLL5        0.0000 
     18 CA         -6.4240   -9.2660   -3.5380 C.3       8 GLP5        0.0000 
     19 CA         -4.2160   -8.8685   -6.9960 C.3       4 GLC5        0.0000 
     20 CA         -4.3340  -10.6760   -7.6790 C.3       8 GLP5        0.0000 
     21 CA         -5.3660   -8.7730   -7.1995 C.3       4 GLC5        0.0000 
     22 CA         -5.0090   -6.9350   -7.3650 C.3      12 GLL5        0.0000 
     23 CA         -5.7230  -10.6110   -7.0340 C.3       8 GLP5        0.0000 
     24 CA         -1.0135   -6.5685   -7.7690 C.3       4 GLC5        0.0000 
     25 CA         -2.7210   -5.3390   -7.2740 C.3      12 GLL5        0.0000 
     26 CA          0.6940   -7.7980   -8.2640 C.3       8 GLP5        0.0000 
     27 CA         -5.4695   -6.2420  -11.2220 C.3       4 GLC5        0.0000 
     28 CA         -6.7410   -6.7420   -9.6840 C.3      12 GLL5        0.0000 
     29 CA         -4.1980   -5.7420  -12.7600 C.3       8 GLP5        0.0000 
     30 CA         -6.8365   -4.9675   -9.8305 C.3       4 GLC5        0.0000 
     31 CA         -6.9320   -3.1930   -9.9770 C.3       8 GLP5        0.0000 
     32 CA         -5.6515   -8.5610   -9.9330 C.3       4 GLC5        0.0000 
     33 CA         -4.5620  -10.3800  -10.1820 C.3       8 GLP5        0.0000 
     34 CA         -2.2950   -8.1050   -7.1837 C.3       4 GLC5        0.0000 
     35 CA         -1.0660   -9.5490   -8.0900 C.3       8 GLP5        0.0000 
     36 CA         -5.7917   -4.7168   -8.1962 C.3       4 GLC5        0.0000 
     37 CA         -6.6910   -2.9620   -8.5160 C.3       8 GLP5        0.0000 
     38 CA         -4.4407   -3.7848   -7.8360 C.3       4 GLC5        0.0000 
     39 CA         -3.6300   -5.2120   -8.3300 C.3      12 GLL5        0.0000 
     40 CA         -5.7060   -2.2940   -7.8700 C.3       8 GLP5        0.0000 
     41 CA         -2.7055   -5.5292   -9.7272 C.3       4 GLC5        0.0000 
     42 CA         -4.7760   -6.0080   -8.3880 C.3      12 GLL5        0.0000 
     43 CA         -1.9490   -5.5840  -11.6380 C.3       8 GLP5        0.0000 
@<TRIPOS>BOND
@<TRIPOS>SUBSTRUCTURE
     1 ALC1        8 GROUP        1 X    ALC  0     ROOT ALC X 1
     2 SEC2       13 GROUP        1 X    SEC  0     **** SEC X 2
     3 ZIC7        1 GROUP        1 X    ZIC  0     **** ZIC X 5
     4 GLC5       16 GROUP        1 X    GLC  0     **** GLC X 6
     5 ALP1       10 GROUP        1 Y    ALP  0     ROOT ALP Y 8
     6 SEP2       15 GROUP        1 Y    SEP  0     **** SEP Y 9
     7 ZIP7        3 GROUP        1 Y    ZIP  0     **** ZIP Y 12
     8 GLP5       18 GROUP        1 Y    GLP  0     **** GLP Y 13
     9 ALL1        9 GROUP        1 Z    ALL  0     ROOT ALL Z 15
    10 SEL2       14 GROUP        1 Z    SEL  0     **** SEL Z 16
    11 ZIL7        2 GROUP        1 Z    ZIL  0     **** ZIL Z 19
    12 GLL5       17 GROUP        1 Z    GLL  0     **** GLL Z 20
@<TRIPOS>SET

