#    Name: 3f16_HS3_1_ligand
#    Modification time : Tue Mar 25 03:03:28 2014

@<TRIPOS>MOLECULE
3f16_HS3_1_ligand
   31    31     1     0     0
SMALL
NO_CHARGES


@<TRIPOS>ATOM
      1 O3         -4.0330   -3.1390   -4.2650 O.2       1 HS30        0.0000 
      2 C8         -2.8350   -3.2600   -4.3480 C.2       1 HS30        0.0000 
      3 N1         -2.1170   -2.5480   -5.2300 N.2       1 HS30        0.0000 
      4 O6         -2.7970   -1.5770   -5.9840 O.2       1 HS30        0.0000 
      5 C9         -1.7820   -4.2410   -3.7640 C.3       1 HS30        0.0000 
      6 C7         -1.3610   -4.0100   -2.4770 C.3       1 HS30        0.0000 
      7 O4         -2.5240   -3.6340   -1.6980 O.3       1 HS30        0.0000 
      8 N2         -2.3020   -5.6730   -3.6680 N.pl3     1 HS30        0.0000 
      9 S1         -1.9000   -6.4430   -5.0230 S.o2      1 HS30        0.0000 
     10 O1         -1.8310   -7.8360   -4.6690 O.2       1 HS30        0.0000 
     11 O2         -0.6020   -5.9870   -5.4460 O.2       1 HS30        0.0000 
     12 C3         -2.9500   -6.2610   -6.2420 C.ar      1 HS30        0.0000 
     13 C6         -4.0980   -7.0610   -6.3130 C.ar      1 HS30        0.0000 
     14 C5         -5.0090   -6.9350   -7.3650 C.ar      1 HS30        0.0000 
     15 C4         -4.7760   -6.0080   -8.3880 C.ar      1 HS30        0.0000 
     16 C2         -3.6300   -5.2120   -8.3300 C.ar      1 HS30        0.0000 
     17 C1         -2.7210   -5.3390   -7.2740 C.ar      1 HS30        0.0000 
     18 O5         -5.6410   -5.8620   -9.4510 O.3       1 HS30        0.0000 
     19 C10        -6.7410   -6.7420   -9.6840 C.3       1 HS30        0.0000 
     20 H          -0.9309   -4.2858   -4.4555 H         1 HS30        0.0000 
     21 H          -0.6158   -3.1998   -2.4234 H         1 HS30        0.0000 
     22 H          -0.8995   -4.9029   -2.0249 H         1 HS30        0.0000 
     23 H          -2.7458   -6.0525   -3.0111 H         1 HS30        0.0000 
     24 H          -4.2736   -7.7597   -5.5696 H         1 HS30        0.0000 
     25 H          -5.8503   -7.5221   -7.3889 H         1 HS30        0.0000 
     26 H          -3.4503   -4.5210   -9.0749 H         1 HS30        0.0000 
     27 H          -1.8765   -4.7515   -7.2528 H         1 HS30        0.0000 
     28 H          -6.4394   -7.6857   -9.8197 H         1 HS30        0.0000 
     29 H          -7.3820   -6.7466   -8.9164 H         1 HS30        0.0000 
     30 H          -7.2600   -6.4803  -10.4977 H         1 HS30        0.0000 
     31 H          -3.2340   -3.4340   -2.3732 H         1 HS30        0.0000 
@<TRIPOS>BOND
     1    2    1 2    
     2    3    2 1    
     3    5    2 1    
     4    4    3 2    
     5    6    5 1    
     6    8    5 1    
     7   20    5 1    
     8    7    6 1    
     9   21    6 1    
    10   22    6 1    
    11   31    7 1    
    12    9    8 1    
    13   23    8 1    
    14   10    9 2    
    15   11    9 2    
    16   12    9 1    
    17   13   12 ar   
    18   17   12 ar   
    19   14   13 ar   
    20   24   13 1    
    21   15   14 ar   
    22   25   14 1    
    23   16   15 ar   
    24   18   15 1    
    25   17   16 ar   
    26   26   16 1    
    27   27   17 1    
    28   19   18 1    
    29   28   19 1    
    30   29   19 1    
    31   30   19 1    
@<TRIPOS>SUBSTRUCTURE
     1 HS30        1 GROUP   
@<TRIPOS>SET

