#    Name: 2rd4_LEU_VAL_PHE_PHE_ALA_1_INTS_M
#    Modification time : Mon Mar 24 23:43:04 2014

@<TRIPOS>MOLECULE
2rd4_LEU_VAL_PHE_PHE_ALA_1_INTS_M
   68     0     6     0     0
SMALL
NO_CHARGES


@<TRIPOS>ATOM
      1 CA         -2.5655   17.7640   -2.5365 C.3       2 GLC5        0.0000 
      2 CA         -1.9510   19.6860   -3.5010 C.3       6 GLL5        0.0000 
      3 CA         -3.1800   15.8420   -1.5720 C.3       4 GLP5        0.0000 
      4 CA         -0.4160   21.0795   -2.7385 C.3       2 GLC5        0.0000 
      5 CA          1.1190   22.4730   -1.9760 C.3       4 GLP5        0.0000 
      6 CA         -1.5540   17.5355   -1.8755 C.3       2 GLC5        0.0000 
      7 CA         -0.8310   18.7410   -3.3180 C.3       6 GLL5        0.0000 
      8 CA         -2.2770   16.3300   -0.4330 C.3       4 GLP5        0.0000 
      9 CA          0.6340   20.1560   -2.8505 C.3       2 GLC5        0.0000 
     10 CA          2.0990   21.5710   -2.3830 C.3       4 GLP5        0.0000 
     11 CA          1.5925   16.1705   -0.7445 C.3       2 GLC5        0.0000 
     12 CA          0.6500   16.9880   -2.4520 C.3       6 GLL5        0.0000 
     13 CA          2.5350   15.3530    0.9630 C.3       4 GLP5        0.0000 
     14 CA         -0.8135   16.6590   -1.4425 C.3       2 GLC5        0.0000 
     15 CA         -3.6350   21.0195    0.0905 C.3       2 GLC5        0.0000 
     16 CA         -4.3800   21.9550   -1.3410 C.3       6 GLL5        0.0000 
     17 CA         -2.8900   20.0840    1.5220 C.3       4 GLP5        0.0000 
     18 N          -6.9330   21.5455   -2.7755 N.am      1 SEC2        0.0000 
     19 N          -5.8620   20.8940   -1.8680 N.am      5 SEL2        0.0000 
     20 N          -8.0040   22.1970   -3.6830 N.am      3 SEP2        0.0000 
     21 CA         -7.4625   19.9485   -4.8050 C.3       2 GLC5        0.0000 
     22 CA         -6.6210   18.6240   -3.4360 C.3       6 GLL5        0.0000 
     23 CA         -8.3040   21.2730   -6.1740 C.3       4 GLP5        0.0000 
     24 CA         -6.3770   17.5945   -6.1115 C.3       2 GLC5        0.0000 
     25 CA         -6.0930   17.4330   -4.0190 C.3       6 GLL5        0.0000 
     26 CA         -6.6610   17.7560   -8.2040 C.3       4 GLP5        0.0000 
     27 CA        -10.9650   17.7910    1.5720 C.3       2 GLC5        0.0000 
     28 CA         -9.0890   17.2450    1.5340 C.3       6 GLL5        0.0000 
     29 CA        -12.8410   18.3370    1.6100 C.3       4 GLP5        0.0000 
     30 CA         -6.2290   15.0755   -0.5240 C.3       2 GLC5        0.0000 
     31 CA         -7.8040   14.0790    0.2800 C.3       6 GLL5        0.0000 
     32 CA         -4.6540   16.0720   -1.3280 C.3       4 GLP5        0.0000 
     33 CA         -6.6760   13.6140   -1.3045 C.3       2 GLC5        0.0000 
     34 CA         -5.5480   13.1490   -2.8890 C.3       4 GLP5        0.0000 
     35 CA        -11.4145   12.1345    2.0505 C.3       2 GLC5        0.0000 
     36 CA         -9.5320   12.8530    2.0660 C.3       6 GLL5        0.0000 
     37 CA        -13.2970   11.4160    2.0350 C.3       4 GLP5        0.0000 
     38 CA         -8.2065   15.2155    5.0125 C.3       2 GLC5        0.0000 
     39 CA         -9.0550   17.0390    5.3830 C.3       6 GLL5        0.0000 
     40 CA         -7.3580   13.3920    4.6420 C.3       4 GLP5        0.0000 
     41 CA         -8.9845   19.3125    8.2180 C.3       2 GLC5        0.0000 
     42 CA         -8.6920   18.2040    6.3880 C.3       6 GLL5        0.0000 
     43 CA         -9.2770   20.4210   10.0480 C.3       4 GLP5        0.0000 
     44 CA         -6.6305   18.9905    6.6845 C.3       2 GLC5        0.0000 
     45 CA         -4.5690   19.7770    6.9810 C.3       4 GLP5        0.0000 
     46 CA         -1.9875   16.3255   -2.6278 C.3       2 GLC5        0.0000 
     47 CA         -1.3380   16.2660   -3.7540 C.3       6 GLL5        0.0000 
     48 CA         -7.2670   23.2533   -1.3165 C.3       2 GLC5        0.0000 
     49 CA         -4.8260   23.4550   -1.9070 C.3       6 GLL5        0.0000 
     50 CA         -9.1100   22.7810   -1.1210 C.3       4 GLP5        0.0000 
     51 CA         -8.5305   21.3908   -1.1545 C.3       2 GLC5        0.0000 
     52 CA         -7.6780   20.1810   -0.4740 C.3       6 GLL5        0.0000 
     53 CA         -6.2830   17.0055   -1.8230 C.3       2 GLC5        0.0000 
     54 CA         -7.6540   18.5650   -2.4930 C.3       6 GLL5        0.0000 
     55 CA         -5.5055   17.0502   -2.5278 C.3       2 GLC5        0.0000 
     56 CA         -5.8970   16.1163   -2.2572 C.3       2 GLC5        0.0000 
     57 CA         -6.6260   16.1910   -3.6560 C.3       6 GLL5        0.0000 
     58 CA         -6.0823   14.9729   -3.2459 C.3       2 GLC5        0.0000 
     59 CA         -6.7700   11.8000   -0.1663 C.3       2 GLC5        0.0000 
     60 CA         -7.6330   12.7320    0.5770 C.3       6 GLL5        0.0000 
     61 CA         -5.4670   11.1780   -1.3660 C.3       4 GLP5        0.0000 
     62 CA         -8.5775   10.9425   -0.2313 C.3       2 GLC5        0.0000 
     63 CA         -8.5130   12.1120    1.4900 C.3       6 GLL5        0.0000 
     64 CA         -9.0820    9.4630   -1.4960 C.3       4 GLP5        0.0000 
     65 CA         -8.9593   11.2363    2.3134 C.3       2 GLC5        0.0000 
     66 CA         -9.1160    9.8350    3.0770 C.3       4 GLP5        0.0000 
     67 CA         -8.4638   16.6688    7.4707 C.3       2 GLC5        0.0000 
     68 CA         -8.0540   15.7160    9.0560 C.3       4 GLP5        0.0000 
@<TRIPOS>BOND
@<TRIPOS>SUBSTRUCTURE
     1 SEC2       18 GROUP        1 X    SEC  0     ROOT SEC X 2
     2 GLC5        1 GROUP        1 X    GLC  0     **** GLC X 6
     3 SEP2       20 GROUP        1 Y    SEP  0     ROOT SEP Y 9
     4 GLP5        3 GROUP        1 Y    GLP  0     **** GLP Y 13
     5 SEL2       19 GROUP        1 Z    SEL  0     ROOT SEL Z 16
     6 GLL5        2 GROUP        1 Z    GLL  0     **** GLL Z 20
@<TRIPOS>SET

