#    Name: 2rd4_LEU_VAL_PHE_PHE_ALA_1_ligand
#    Modification time : Mon Mar 24 23:43:04 2014

@<TRIPOS>MOLECULE
2rd4_LEU_VAL_PHE_PHE_ALA_1_ligand
   87    89     5     0     0
SMALL
NO_CHARGES


@<TRIPOS>ATOM
      1 N          -1.8500   20.4100   -4.7970 N.4       1 LEU2        0.0000
      2 CA         -1.9510   19.6860   -3.5010 C.3       1 LEU2        0.0000
      3 C          -2.6860   20.9220   -2.9340 C.2       1 LEU2        0.0000
      4 O          -2.5410   22.0280   -3.4700 O.2       1 LEU2        0.0000
      5 CB         -0.8310   18.7410   -3.3180 C.3       1 LEU2        0.0000
      6 CG         -0.2520   17.3520   -3.6130 C.3       1 LEU2        0.0000
      7 CD1         0.6500   16.9880   -2.4520 C.3       1 LEU2        0.0000
      8 CD2        -1.3380   16.2660   -3.7540 C.3       1 LEU2        0.0000
      9 HA         -2.9282   19.0218   -3.8428 H         1 LEU2        0.0000
     10 HB2        -0.5764   18.8481   -2.0642 H         1 LEU2        0.0000
     11 HB3         0.1969   19.4813   -3.5274 H         1 LEU2        0.0000
     12 HG          0.3322   17.3922   -4.5042 H         1 LEU2        0.0000
     13 HNCA       -2.1684   19.8494   -5.5615 H         1 LEU2        0.0000
     14 H          -2.3980   21.2465   -4.7988 H         1 LEU2        0.0000
     15 H          -0.9080   20.6763   -5.0012 H         1 LEU2        0.0000
     16 HD11        1.0701   16.0890   -2.5758 H         1 LEU2        0.0000
     17 HD12        1.3942   17.6463   -2.3393 H         1 LEU2        0.0000
     18 HD13        0.1492   16.9609   -1.5869 H         1 LEU2        0.0000
     19 HD21       -0.9424   15.3679   -3.9462 H         1 LEU2        0.0000
     20 HD22       -1.8820   16.1743   -2.9199 H         1 LEU2        0.0000
     21 HD23       -1.9742   16.4713   -4.4978 H         1 LEU2        0.0000
     22 N          -3.7890   20.9480   -2.1530 N.am      2 VAL3        0.0000
     23 CA         -4.3800   21.9550   -1.3410 C.3       2 VAL3        0.0000
     24 C          -5.5300   21.1890   -0.7620 C.2       2 VAL3        0.0000
     25 O          -5.8620   20.8940   -1.8680 O.2       2 VAL3        0.0000
     26 CB         -4.8260   23.4550   -1.9070 C.3       2 VAL3        0.0000
     27 CG1        -6.0220   23.9960   -1.1170 C.3       2 VAL3        0.0000
     28 CG2        -3.6600   24.4370   -1.7780 C.3       2 VAL3        0.0000
     29 HNCA       -4.3737   19.9887   -2.1246 H         2 VAL3        0.0000
     30 HB         -5.0871   23.3269   -2.9289 H         2 VAL3        0.0000
     31 H          -5.8115   24.0925   -0.1442 H         2 VAL3        0.0000
     32 H          -6.3077   24.8961   -1.4458 H         2 VAL3        0.0000
     33 H          -6.8165   23.3928   -1.1865 H         2 VAL3        0.0000
     34 HG21       -3.3649   24.5405   -0.8281 H         2 VAL3        0.0000
     35 HG22       -2.8625   24.1375   -2.3017 H         2 VAL3        0.0000
     36 HG23       -3.9034   25.3483   -2.1102 H         2 VAL3        0.0000
     37 N          -6.6800   21.1410   -0.1060 N.am      3 PHE4        0.0000
     38 CA         -7.6780   20.1810   -0.4740 C.3       3 PHE4        0.0000
     39 C          -7.5640   18.9440    0.3840 C.2       3 PHE4        0.0000
     40 O          -6.5900   18.1760    0.3090 O.2       3 PHE4        0.0000
     41 CB         -8.2240   19.8200   -1.9020 C.3       3 PHE4        0.0000
     42 CG         -7.6540   18.5650   -2.4930 C.ar      3 PHE4        0.0000
     43 CD1        -8.1700   17.3130   -2.1430 C.ar      3 PHE4        0.0000
     44 CD2        -6.6210   18.6240   -3.4360 C.ar      3 PHE4        0.0000
     45 CE1        -7.6540   16.1300   -2.7170 C.ar      3 PHE4        0.0000
     46 CE2        -6.0930   17.4330   -4.0190 C.ar      3 PHE4        0.0000
     47 CZ         -6.6260   16.1910   -3.6560 C.ar      3 PHE4        0.0000
     48 HNCA       -6.9039   21.7758    0.6791 H         3 PHE4        0.0000
     49 HA         -8.7144   20.6412    0.0416 H         3 PHE4        0.0000
     50 HB2        -8.0154   20.6807   -2.5622 H         3 PHE4        0.0000
     51 HB3        -9.3229   19.7394   -1.8243 H         3 PHE4        0.0000
     52 HD1        -8.9361   17.2464   -1.4585 H         3 PHE4        0.0000
     53 HD2        -6.2300   19.5301   -3.7198 H         3 PHE4        0.0000
     54 HE1        -8.0447   15.2228   -2.4350 H         3 PHE4        0.0000
     55 HE2        -5.3336   17.4998   -4.6933 H         3 PHE4        0.0000
     56 HZ         -6.2609   15.3334   -4.0794 H         3 PHE4        0.0000
     57 N          -8.5860   18.5320    1.1680 N.am      4 PHE5        0.0000
     58 CA         -9.0890   17.2450    1.5340 C.3       4 PHE5        0.0000
     59 C          -8.1460   16.8480    2.6740 C.2       4 PHE5        0.0000
     60 O          -6.9500   16.5930    2.4420 O.2       4 PHE5        0.0000
     61 CB         -8.9670   16.2040    0.4020 C.3       4 PHE5        0.0000
     62 CG         -8.8060   14.8150    0.8330 C.ar      4 PHE5        0.0000
     63 CD1        -7.8040   14.0790    0.2800 C.ar      4 PHE5        0.0000
     64 CD2        -9.6820   14.2090    1.7510 C.ar      4 PHE5        0.0000
     65 CE1        -7.6330   12.7320    0.5770 C.ar      4 PHE5        0.0000
     66 CE2        -9.5320   12.8530    2.0660 C.ar      4 PHE5        0.0000
     67 CZ         -8.5130   12.1120    1.4900 C.ar      4 PHE5        0.0000
     68 HNCA       -9.1819   19.3605    1.6447 H         4 PHE5        0.0000
     69 HA        -10.0646   17.2790    1.9098 H         4 PHE5        0.0000
     70 HB2        -8.1104   16.5134   -0.2426 H         4 PHE5        0.0000
     71 HB3        -9.8706   16.3089   -0.2442 H         4 PHE5        0.0000
     72 HD1        -7.1367   14.5283   -0.3893 H         4 PHE5        0.0000
     73 HD2       -10.4261   14.7597    2.1861 H         4 PHE5        0.0000
     74 HE1        -6.8849   12.1904    0.1463 H         4 PHE5        0.0000
     75 HE2       -10.1842   12.4114    2.7283 H         4 PHE5        0.0000
     76 HZ         -8.3895   11.1229    1.7168 H         4 PHE5        0.0000
     77 N          -8.8710   17.2550    3.9840 N.am      5 ALA6        0.0000
     78 CA         -9.0550   17.0390    5.3830 C.3       5 ALA6        0.0000
     79 C         -10.2780   16.2980    5.9230 C.2       5 ALA6        0.0000
     80 O         -10.6560   16.5320    7.0480 O.2       5 ALA6        0.0000
     81 CB         -8.6920   18.2040    6.3880 C.3       5 ALA6        0.0000
     82 H          -9.6044   18.1661    3.6412 H         5 ALA6        0.0000
     83 HA         -8.1704   16.2484    5.6991 H         5 ALA6        0.0000
     84 H         -10.6724   15.6376    5.2251 H         5 ALA6        0.0000
     85 HB1        -7.7288   18.4646    6.3222 H         5 ALA6        0.0000
     86 HB2        -9.2311   19.0277    6.2121 H         5 ALA6        0.0000
     87 HB3        -8.8603   17.9409    7.3380 H         5 ALA6        0.0000
@<TRIPOS>BOND
     1    2    1 1
     2   13    1 1
     3   14    1 1
     4   15    1 1
     5    3    2 1
     6    5    2 1
     7    9    2 1
     8    4    3 2
     9    6    5 1
    10   10    5 1
    11   11    5 1
    12    7    6 1
    13    8    6 1
    14   12    6 1
    15   16    7 1
    16   17    7 1
    17   18    7 1
    18   19    8 1
    19   20    8 1
    20   21    8 1
    21   23   22 1
    22   29   22 1
    23   24   23 1
    24   25   23 1 
    25   26   23 1
    26   25   24 2
    27   27   26 1
    28   28   26 1
    29   30   26 1
    30   31   27 1
    31   32   27 1
    32   33   27 1
    33   34   28 1
    34   35   28 1
    35   36   28 1
    36   38   37 1
    37   48   37 1
    38   39   38 1
    39   41   38 1
    40   49   38 1
    41   40   39 2
    42   42   41 1
    43   50   41 1
    44   51   41 1
    45   43   42 ar
    46   44   42 ar
    47   45   43 ar
    48   52   43 1
    49   46   44 ar
    50   53   44 1
    51   47   45 ar
    52   54   45 1
    53   47   46 ar
    54   55   46 1
    55   56   47 1
    56   58   57 1
    57   68   57 1
    58   59   58 1
    59   61   58 1
    60   69   58 1
    61   60   59 2
    62   62   61 1
    63   70   61 1
    64   71   61 1
    65   63   62 ar
    66   64   62 ar
    67   65   63 ar
    68   72   63 1
    69   66   64 ar
    70   73   64 1
    71   67   65 ar
    72   74   65 1
    73   67   66 ar
    74   75   66 1
    75   76   67 1
    76   78   77 1
    77   82   77 1
    78   79   78 1
    79   81   78 1
    80   83   78 1
    81   80   79 2
    82   84   79 1
    83   85   81 1
    84   86   81 1
    85   87   81 1
    86   22    3 am
    87   37   24 am
    88   57   39 am
    89   77   59 am
@<TRIPOS>SUBSTRUCTURE
     1 LEU2        1 RESIDUE
     2 VAL3       22 RESIDUE
     3 PHE4       37 RESIDUE
     4 PHE5       57 RESIDUE
     5 ALA6       77 RESIDUE
@<TRIPOS>SET

