#    Name: 3owl_19E_1_INTS_M
#    Modification time : Tue Mar 25 05:28:53 2014

@<TRIPOS>MOLECULE
3owl_19E_1_INTS_M
   63     0     9     0     0
SMALL
NO_CHARGES


@<TRIPOS>ATOM
      1 N          23.7510    8.8285    8.3940 N.am      2 SEC2        0.0000 
      2 N          23.7050    7.7690    9.5310 N.am      8 SEL2        0.0000 
      3 N          23.7970    9.8880    7.2570 N.am      5 SEP2        0.0000 
      4 O          24.5080    7.1740    8.5205 O.2       1 ALC1        0.0000 
      5 O          23.7050    7.7690    9.5310 O.2       7 ALL1        0.0000 
      6 O          25.3110    6.5790    7.5100 O.2       4 ALP1        0.0000 
      7 CA         21.1375    8.6590   11.7675 C.3       3 GLC5        0.0000 
      8 CA         23.3250    8.4660   11.7630 C.3       9 GLL5        0.0000 
      9 CA         18.9500    8.8520   11.7720 C.3       6 GLP5        0.0000 
     10 CA         24.7855    4.8080   10.3915 C.3       3 GLC5        0.0000 
     11 CA         23.4480    6.1100   11.2480 C.3       9 GLL5        0.0000 
     12 CA         26.1230    3.5060    9.5350 C.3       6 GLP5        0.0000 
     13 CA         24.8260   10.2745   14.3435 C.3       3 GLC5        0.0000 
     14 CA         22.9360    9.2320   13.9950 C.3       9 GLL5        0.0000 
     15 CA         26.7160   11.3170   14.6920 C.3       6 GLP5        0.0000 
     16 CA         24.0765    2.5230   17.5980 C.3       3 GLC5        0.0000 
     17 CA         22.4410    3.4390   17.6360 C.3       9 GLL5        0.0000 
     18 CA         25.7120    1.6070   17.5600 C.3       6 GLP5        0.0000 
     19 N          23.0930    1.9095   16.5355 N.am      2 SEC2        0.0000 
     20 N          22.6570    3.0840   16.3610 N.am      8 SEL2        0.0000 
     21 N          23.5290    0.7350   16.7100 N.am      5 SEP2        0.0000 
     22 CA         23.9120    2.2535   16.0620 C.3       3 GLC5        0.0000 
     23 CA         22.8070    3.9750   15.3640 C.3       9 GLL5        0.0000 
     24 CA         25.0170    0.5320   16.7600 C.3       6 GLP5        0.0000 
     25 CA         21.0405    2.9685   15.9885 C.3       3 GLC5        0.0000 
     26 CA         19.2740    1.9620   16.6130 C.3       6 GLP5        0.0000 
     27 CA         24.5910    2.4025   13.2785 C.3       3 GLC5        0.0000 
     28 CA         23.0730    3.2850   13.7560 C.3       9 GLL5        0.0000 
     29 CA         26.1090    1.5200   12.8010 C.3       6 GLP5        0.0000 
     30 CA         21.1450    3.7740   13.1335 C.3       3 GLC5        0.0000 
     31 CA         19.2170    4.2630   12.5110 C.3       6 GLP5        0.0000 
     32 CA         21.3500    2.1875   14.5755 C.3       3 GLC5        0.0000 
     33 CA         19.6270    1.0900   15.3950 C.3       6 GLP5        0.0000 
     34 CA         25.1585    8.3400   11.1812 C.3       3 GLC5        0.0000 
     35 CA         23.4930    7.4440   10.8380 C.3       9 GLL5        0.0000 
     36 CA         26.9080    8.7250   11.0620 C.3       6 GLP5        0.0000 
     37 CA         22.5738    5.8705    9.4880 C.3       3 GLC5        0.0000 
     38 CA         21.6770    4.9640    7.9330 C.3       6 GLP5        0.0000 
     39 CA         25.0225    7.2373   13.0865 C.3       3 GLC5        0.0000 
     40 CA         23.0580    6.8340   13.5280 C.3       9 GLL5        0.0000 
     41 CA         26.9650    6.9720   12.8590 C.3       6 GLP5        0.0000 
     42 CA         21.0985    9.0898   14.0237 C.3       3 GLC5        0.0000 
     43 CA         23.1020    8.1710   13.1000 C.3       9 GLL5        0.0000 
     44 CA         19.1780    9.4780   14.5000 C.3       6 GLP5        0.0000 
     45 CA         25.1522    6.4663   12.3893 C.3       3 GLC5        0.0000 
     46 CA         23.2310    5.8110   12.5910 C.3       9 GLL5        0.0000 
     47 CA         21.3853    5.5382   11.5808 C.3       3 GLC5        0.0000 
     48 CA         19.4310    5.1160   11.2420 C.3       6 GLP5        0.0000 
     49 CA         20.9378    8.8948   15.0293 C.3       3 GLC5        0.0000 
     50 CA         22.6750    7.6500   15.7760 C.3       9 GLL5        0.0000 
     51 CA         21.0497    6.6306   14.6500 C.3       3 GLC5        0.0000 
     52 CA         19.2870    6.0790   14.3070 C.3       6 GLP5        0.0000 
     53 CA         24.6459    7.4066   15.9106 C.3       3 GLC5        0.0000 
     54 CA         22.8420    6.5950   14.8920 C.3       9 GLL5        0.0000 
     55 CA         26.5220    7.3600   16.5960 C.3       6 GLP5        0.0000 
     56 CA         24.3083    5.6295   17.3822 C.3       3 GLC5        0.0000 
     57 CA         22.7290    5.3460   15.6830 C.3       9 GLL5        0.0000 
     58 CA         25.9970    5.7180   18.4260 C.3       6 GLP5        0.0000 
     59 CA         20.8385    3.0352   17.2132 C.3       3 GLC5        0.0000 
     60 CA         22.3650    4.7780   17.9910 C.3       9 GLL5        0.0000 
     61 CA         24.1694    4.9627   18.2994 C.3       3 GLC5        0.0000 
     62 CA         21.0001    5.4185   15.0791 C.3       3 GLC5        0.0000 
     63 CA         22.5100    5.7360   16.9940 C.3       9 GLL5        0.0000 
@<TRIPOS>BOND
@<TRIPOS>SUBSTRUCTURE
     1 ALC1        4 GROUP        1 X    ALC  0     ROOT ALC X 1
     2 SEC2        1 GROUP        1 X    SEC  0     **** SEC X 2
     3 GLC5        7 GROUP        1 X    GLC  0     **** GLC X 6
     4 ALP1        6 GROUP        1 Y    ALP  0     ROOT ALP Y 8
     5 SEP2        3 GROUP        1 Y    SEP  0     **** SEP Y 9
     6 GLP5        9 GROUP        1 Y    GLP  0     **** GLP Y 13
     7 ALL1        5 GROUP        1 Z    ALL  0     ROOT ALL Z 15
     8 SEL2        2 GROUP        1 Z    SEL  0     **** SEL Z 16
     9 GLL5        8 GROUP        1 Z    GLL  0     **** GLL Z 20
@<TRIPOS>SET

