#    Name: 3owl_19E_1_ligand
#    Modification time : Tue Mar 25 05:28:53 2014

@<TRIPOS>MOLECULE
3owl_19E_1_ligand
   31    34     1     0     0
SMALL
NO_CHARGES


@<TRIPOS>ATOM
      1 C1         23.4930    7.4440   10.8380 C.ar      1 19E332      0.0000 
      2 O1         23.7050    7.7690    9.5310 O.3       1 19E332      0.0000 
      3 C2         23.3250    8.4660   11.7630 C.ar      1 19E332      0.0000 
      4 C3         23.1020    8.1710   13.1000 C.ar      1 19E332      0.0000 
      5 C4         23.0580    6.8340   13.5280 C.ar      1 19E332      0.0000 
      6 C5         23.2310    5.8110   12.5910 C.ar      1 19E332      0.0000 
      7 C6         23.4480    6.1100   11.2480 C.ar      1 19E332      0.0000 
      8 C7         22.9360    9.2320   13.9950 C.ar      1 19E332      0.0000 
      9 C8         22.7200    8.9730   15.3410 C.ar      1 19E332      0.0000 
     10 C9         22.6750    7.6500   15.7760 C.ar      1 19E332      0.0000 
     11 C10        22.8420    6.5950   14.8920 C.ar      1 19E332      0.0000 
     12 N11        22.4790    7.0970   17.0120 N.pl3     1 19E332      0.0000 
     13 C12        22.5100    5.7360   16.9940 C.ar      1 19E332      0.0000 
     14 C13        22.7290    5.3460   15.6830 C.ar      1 19E332      0.0000 
     15 C14        22.3650    4.7780   17.9910 C.ar      1 19E332      0.0000 
     16 C15        22.1200    5.1740   19.4280 C.3       1 19E332      0.0000 
     17 C16        22.4410    3.4390   17.6360 C.ar      1 19E332      0.0000 
     18 N17        22.6570    3.0840   16.3610 N.ar      1 19E332      0.0000 
     19 C18        22.8070    3.9750   15.3640 C.ar      1 19E332      0.0000 
     20 CL18       23.0730    3.2850   13.7560 Cl        1 19E332      0.0000 
     21 H          23.3663    9.4491   11.4538 H         1 19E332      0.0000 
     22 H          23.1973    4.8280   12.8988 H         1 19E332      0.0000 
     23 H          23.5738    5.3578   10.5649 H         1 19E332      0.0000 
     24 H          22.9746   10.1990   13.6526 H         1 19E332      0.0000 
     25 H          22.5955    9.7389   16.0052 H         1 19E332      0.0000 
     26 H          22.3308    7.6324   17.8300 H         1 19E332      0.0000 
     27 H          22.3268    2.7202   18.3799 H         1 19E332      0.0000 
     28 H          22.8641    5.7350   19.7907 H         1 19E332      0.0000 
     29 H          21.2777    5.7035   19.5289 H         1 19E332      0.0000 
     30 H          22.0374    4.3755   20.0244 H         1 19E332      0.0000 
     31 H          24.3163    7.0580    9.1835 H         1 19E332      0.0000 
@<TRIPOS>BOND
     1    2    1 1    
     2    3    1 ar   
     3    7    1 ar   
     4   31    2 1    
     5    4    3 ar   
     6   21    3 1    
     7    5    4 ar   
     8    8    4 ar   
     9    6    5 ar   
    10   11    5 ar   
    11    7    6 ar   
    12   22    6 1    
    13   23    7 1    
    14    9    8 ar   
    15   24    8 1    
    16   10    9 ar   
    17   25    9 1    
    18   11   10 ar   
    19   12   10 1    
    20   14   11 1    
    21   13   12 1    
    22   26   12 1    
    23   14   13 ar   
    24   15   13 ar   
    25   19   14 ar   
    26   16   15 1    
    27   17   15 ar   
    28   28   16 1    
    29   29   16 1    
    30   30   16 1    
    31   18   17 ar   
    32   27   17 1    
    33   19   18 ar   
    34   20   19 1    
@<TRIPOS>SUBSTRUCTURE
     1 19E332      1 GROUP   
@<TRIPOS>SET

