#    Name: 1mup_TZL_1_INTS_M
#    Modification time : Tue Mar 25 12:03:30 2014

@<TRIPOS>MOLECULE
1mup_TZL_1_INTS_M
   19     0     3     0     0
SMALL
NO_CHARGES


@<TRIPOS>ATOM
      1 CA         20.9770   19.9915   33.9890 C.3       1 GLC5        0.0000 
      2 CA         20.9280   19.4990   32.3340 C.3       3 GLL5        0.0000 
      3 CA         21.0260   20.4840   35.6440 C.3       2 GLP5        0.0000 
      4 CA         26.6690   18.9245   28.7055 C.3       1 GLC5        0.0000 
      5 CA         25.3010   17.2410   28.8530 C.3       3 GLL5        0.0000 
      6 CA         28.0370   20.6080   28.5580 C.3       2 GLP5        0.0000 
      7 CA         26.3845   16.4960   31.5980 C.3       1 GLC5        0.0000 
      8 CA         24.1760   16.3180   31.2980 C.3       3 GLL5        0.0000 
      9 CA         28.5930   16.6740   31.8980 C.3       2 GLP5        0.0000 
     10 CA         24.8865   18.0510   32.2100 C.3       1 GLC5        0.0000 
     11 CA         25.5970   19.7840   33.1220 C.3       2 GLP5        0.0000 
     12 CA         18.9428   17.1180   30.9208 C.3       1 GLC5        0.0000 
     13 CA         20.5270   17.8190   30.3170 C.3       3 GLL5        0.0000 
     14 CA         17.7170   15.7080   31.0140 C.3       2 GLP5        0.0000 
     15 CA         25.3367   18.8882   30.4890 C.3       1 GLC5        0.0000 
     16 CA         23.8880   17.6840   29.2330 C.3       3 GLL5        0.0000 
     17 CA         26.0790   20.3140   31.9350 C.3       2 GLP5        0.0000 
     18 CA         23.7279   16.1515   28.1583 C.3       1 GLC5        0.0000 
     19 CA         23.0340   15.0370   26.9960 C.3       2 GLP5        0.0000 
@<TRIPOS>BOND
@<TRIPOS>SUBSTRUCTURE
     1 GLC5        1 GROUP        1 X    GLC  0     ROOT GLC X 6
     2 GLP5        3 GROUP        1 Y    GLP  0     ROOT GLP Y 13
     3 GLL5        2 GROUP        1 Z    GLL  0     ROOT GLL Z 20
@<TRIPOS>SET

