#    Name: 1mup_TZL_1_ligand
#    Modification time : Tue Mar 25 12:03:30 2014

@<TRIPOS>MOLECULE
1mup_TZL_1_ligand
   20    20     1     0     0
SMALL
NO_CHARGES


@<TRIPOS>ATOM
      1 S1         20.5270   17.8190   30.3170 S.3       1 TZL167      0.0000 
      2 C2         22.1400   17.7450   30.9860 C.2       1 TZL167      0.0000 
      3 N3         22.1810   18.8060   31.7080 N.2       1 TZL167      0.0000 
      4 C4         20.9280   19.4990   32.3340 C.2       1 TZL167      0.0000 
      5 C5         19.8100   19.2370   31.3380 C.2       1 TZL167      0.0000 
      6 C6         23.1970   16.8980   30.3430 C.3       1 TZL167      0.0000 
      7 C7         23.8880   17.6840   29.2330 C.3       1 TZL167      0.0000 
      8 C8         25.3010   17.2410   28.8530 C.3       1 TZL167      0.0000 
      9 C9         24.1760   16.3180   31.2980 C.3       1 TZL167      0.0000 
     10 H          20.9023   19.9294   33.0817 H         1 TZL167      0.0000 
     11 H          19.0853   19.4832   31.1277 H         1 TZL167      0.0000 
     12 H          22.6721   16.0516   29.8318 H         1 TZL167      0.0000 
     13 H          23.9211   18.7595   29.5256 H         1 TZL167      0.0000 
     14 H          23.2485   17.6484   28.3202 H         1 TZL167      0.0000 
     15 H          25.6832   17.8057   28.1216 H         1 TZL167      0.0000 
     16 H          25.9299   17.3004   29.6282 H         1 TZL167      0.0000 
     17 H          25.3197   16.2940   28.5323 H         1 TZL167      0.0000 
     18 H          24.8653   15.7631   30.8321 H         1 TZL167      0.0000 
     19 H          24.6649   17.0275   31.8054 H         1 TZL167      0.0000 
     20 H          23.7321   15.7283   31.9727 H         1 TZL167      0.0000 
@<TRIPOS>BOND
     1    2    1 1    
     2    5    1 1    
     3    3    2 2    
     4    6    2 1    
     5    4    3 1    
     6    5    4 2    
     7   10    4 1    
     8   11    5 1    
     9    7    6 1    
    10    9    6 1    
    11   12    6 1    
    12    8    7 1    
    13   13    7 1    
    14   14    7 1    
    15   15    8 1    
    16   16    8 1    
    17   17    8 1    
    18   18    9 1    
    19   19    9 1    
    20   20    9 1    
@<TRIPOS>SUBSTRUCTURE
     1 TZL167      1 GROUP   
@<TRIPOS>SET

