#    Name: 1ai9_NDP_2_INTS_M
#    Modification time : Mon Mar 24 18:25:56 2014

@<TRIPOS>MOLECULE
1ai9_NDP_2_INTS_M
  108     0    12     0     0
SMALL
NO_CHARGES


@<TRIPOS>ATOM
      1 N          17.8580   34.5620   12.1905 N.am      2 SEC2        0.0000 
      2 N          17.0180   33.6380   11.2840 N.am     10 SEL2        0.0000 
      3 N          18.6980   35.4860   13.0970 N.am      6 SEP2        0.0000 
      4 N          16.4280   34.2895   12.2305 N.am      2 SEC2        0.0000 
      5 N          15.8380   34.9410   13.1770 N.am      6 SEP2        0.0000 
      6 N          15.7250   33.0170   11.6950 N.am      2 SEC2        0.0000 
      7 N          14.4320   32.3960   12.1060 N.am      6 SEP2        0.0000 
      8 N          15.3065   32.2155   10.8165 N.am      2 SEC2        0.0000 
      9 N          16.1810   32.0350    9.5270 N.am     10 SEL2        0.0000 
     10 N          19.7300   33.5535   10.6440 N.am      2 SEC2        0.0000 
     11 N          18.6430   32.5730    9.7100 N.am     10 SEL2        0.0000 
     12 N          20.8170   34.5340   11.5780 N.am      6 SEP2        0.0000 
     13 CA         17.4310   31.1105    7.2535 C.3       4 GLC5        0.0000 
     14 CA         19.0120   31.9530    8.4160 C.3      12 GLL5        0.0000 
     15 CA         15.8500   30.2680    6.0910 C.3       8 GLP5        0.0000 
     16 N          21.0350   33.4920    6.0625 N.am      2 SEC2        0.0000 
     17 N          21.5730   32.2010    6.5440 N.am     10 SEL2        0.0000 
     18 N          20.4970   34.7830    5.5810 N.am      6 SEP2        0.0000 
     19 N          18.0985   26.3775    7.1415 N.am      2 SEC2        0.0000 
     20 N          19.2550   26.8150    7.4750 N.am     10 SEL2        0.0000 
     21 N          16.9420   25.9400    6.8080 N.am      6 SEP2        0.0000 
     22 CA         19.1505   23.5595    9.0350 C.3       4 GLC5        0.0000 
     23 CA         20.6540   24.7190    7.9050 C.3      12 GLL5        0.0000 
     24 CA         17.6470   22.4000   10.1650 C.3       8 GLP5        0.0000 
     25 O          18.6500   23.9085    6.5925 O.2       1 ALC1        0.0000 
     26 O          19.8810   23.7310    7.3900 O.2       9 ALL1        0.0000 
     27 O          17.4190   24.0860    5.7950 O.2       5 ALP1        0.0000 
     28 CA         21.9325   24.8175   10.8840 C.3       4 GLC5        0.0000 
     29 CA         22.6150   25.2670    9.0660 C.3      12 GLL5        0.0000 
     30 CA         21.2500   24.3680   12.7020 C.3       8 GLP5        0.0000 
     31 CA         23.7790   26.8040    9.8540 C.3       4 GLC5        0.0000 
     32 CA         24.9430   28.3410   10.6420 C.3       8 GLP5        0.0000 
     33 CA         23.4255   25.7015    7.5850 C.3       4 GLC5        0.0000 
     34 CA         24.2360   26.1360    6.1040 C.3       8 GLP5        0.0000 
     35 CA         22.6200   23.3440    9.7940 C.3       4 GLC5        0.0000 
     36 CA         22.6250   21.4210   10.5220 C.3       8 GLP5        0.0000 
     37 CA         21.1365   26.8645   10.6105 C.3       4 GLC5        0.0000 
     38 CA         21.2100   26.9100    8.5930 C.3      12 GLL5        0.0000 
     39 CA         21.0630   26.8190   12.6280 C.3       8 GLP5        0.0000 
     40 CA         23.0765   27.6255    9.6175 C.3       4 GLC5        0.0000 
     41 N          14.6285   32.4595    6.9760 N.am      2 SEC2        0.0000 
     42 N          15.4940   33.7290    6.9010 N.am     10 SEL2        0.0000 
     43 N          13.7630   31.1900    7.0510 N.am      6 SEP2        0.0000 
     44 N          13.7375   34.1275    8.9270 N.am      2 SEC2        0.0000 
     45 N          14.8300   35.2520    8.8020 N.am     10 SEL2        0.0000 
     46 N          12.6450   33.0030    9.0520 N.am      6 SEP2        0.0000 
     47 CA         14.2640   34.8080   10.3715 C.3       4 GLC5        0.0000 
     48 CA         14.9860   36.4980    9.4820 C.3      12 GLL5        0.0000 
     49 CA         13.5420   33.1180   11.2610 C.3       8 GLP5        0.0000 
     50 CA         12.3495   37.0085    8.0995 C.3       4 GLC5        0.0000 
     51 CA         13.7060   37.2670    9.5080 C.3      12 GLL5        0.0000 
     52 CA         10.9930   36.7500    6.6910 C.3       8 GLP5        0.0000 
     53 CA         14.7050   40.2075    9.7470 C.3       4 GLC5        0.0000 
     54 CA         13.7190   38.6810   10.1510 C.3      12 GLL5        0.0000 
     55 CA         15.6910   41.7340    9.3430 C.3       8 GLP5        0.0000 
     56 CA         13.1650   40.5780   11.7560 C.3       4 GLC5        0.0000 
     57 CA         13.1240   38.3640   11.5220 C.3      12 GLL5        0.0000 
     58 CA         13.2060   42.7920   11.9900 C.3       8 GLP5        0.0000 
     59 CA         10.4440   36.5995   10.1350 C.3       4 GLC5        0.0000 
     60 CA         12.0910   37.3230   11.1720 C.3      12 GLL5        0.0000 
     61 CA          8.7970   35.8760    9.0980 C.3       8 GLP5        0.0000 
     62 CA         12.8165   35.2205   11.2165 C.3       4 GLC5        0.0000 
     63 CA          9.4905   36.3625   10.8785 C.3       4 GLC5        0.0000 
     64 CA         10.1840   36.8490   12.6590 C.3      12 GLL5        0.0000 
     65 CA          9.9820   38.5825   13.4685 C.3       4 GLC5        0.0000 
     66 CA          9.7800   40.3160   14.2780 C.3       8 GLP5        0.0000 
     67 N           6.2990   35.2845   15.1225 N.am      2 SEC2        0.0000 
     68 N           7.6850   35.8060   15.0420 N.am     10 SEL2        0.0000 
     69 N           4.9130   34.7630   15.2030 N.am      6 SEP2        0.0000 
     70 O           7.9645   37.9855   11.9830 O.2       1 ALC1        0.0000 
     71 O           7.4580   37.2550   13.2450 O.2       9 ALL1        0.0000 
     72 O           8.4710   38.7160   10.7210 O.2       5 ALP1        0.0000 
     73 O           6.0895   36.9260   13.2040 O.2       1 ALC1        0.0000 
     74 O           4.7210   36.5970   13.1630 O.2       5 ALP1        0.0000 
     75 NZ         25.1690   33.2400    8.2890 N.4       3 LYC4        0.0000 
     76 NZ         25.5250   31.6610    8.6970 N.4      11 LYL4        0.0000 
     77 NZ         24.7920   35.2570    9.1170 N.4       7 LYP4        0.0000 
     78 N          25.1690   33.2400    8.2890 N.am      2 SEC2        0.0000 
     79 N          25.5250   31.6610    8.6970 N.am     10 SEL2        0.0000 
     80 N          24.8130   34.8190    7.8810 N.am      6 SEP2        0.0000 
     81 N          26.1465   30.7700    9.4060 N.am      2 SEC2        0.0000 
     82 N          26.7680   29.8790   10.1150 N.am      6 SEP2        0.0000 
     83 N          25.3175   28.4920    7.8140 N.am      2 SEC2        0.0000 
     84 N          25.0480   29.7530    7.0320 N.am     10 SEL2        0.0000 
     85 N          25.5870   27.2310    8.5960 N.am      6 SEP2        0.0000 
     86 N          24.5200   33.4275    7.2305 N.am      2 SEC2        0.0000 
     87 N          24.2270   32.0360    6.5800 N.am     10 SEL2        0.0000 
     88 CA         19.3588   31.2473   10.5587 C.3       4 GLC5        0.0000 
     89 CA         20.4530   31.4420    8.5490 C.3      12 GLL5        0.0000 
     90 CA         18.9850   30.7970   12.6350 C.3       8 GLP5        0.0000 
     91 CA         20.1082   33.7073    8.6573 C.3       4 GLC5        0.0000 
     92 CA         20.4840   35.7170    8.8320 C.3       8 GLP5        0.0000 
     93 CA         23.3543   29.0100    9.4860 C.3       4 GLC5        0.0000 
     94 CA         22.2090   30.0040    7.7650 C.3      12 GLL5        0.0000 
     95 CA         19.1020   27.1433    9.4633 C.3       4 GLC5        0.0000 
     96 CA         17.4380   27.7940   10.6500 C.3       8 GLP5        0.0000 
     97 CA         22.5425   26.1448    7.1834 C.3       4 GLC5        0.0000 
     98 CA         20.3220   26.0750    7.9600 C.3      12 GLL5        0.0000 
     99 CA         10.2097   37.1795   15.2907 C.3       4 GLC5        0.0000 
    100 CA         10.3670   35.4280   14.6820 C.3      12 GLL5        0.0000 
    101 CA         10.4110   38.5210   16.3490 C.3       8 GLP5        0.0000 
    102 CA         11.2257   37.0637   15.0642 C.3       4 GLC5        0.0000 
    103 CA         11.7260   35.3010   14.3100 C.3      12 GLL5        0.0000 
    104 CA         13.9538   35.2442   14.7148 C.3       4 GLC5        0.0000 
    105 CA         15.8670   34.8820   15.6500 C.3       8 GLP5        0.0000 
    106 CA         12.4298   33.5542   13.7302 C.3       4 GLC5        0.0000 
    107 CA         12.8190   31.5020   13.6810 C.3       8 GLP5        0.0000 
    108 CA         12.7912   34.3623   12.5202 C.3       4 GLC5        0.0000 
@<TRIPOS>BOND
@<TRIPOS>SUBSTRUCTURE
     1 ALC1       25 GROUP        1 X    ALC  0     ROOT ALC X 1
     2 SEC2        1 GROUP        1 X    SEC  0     **** SEC X 2
     3 LYC4       75 GROUP        1 X    LYC  0     **** LYC X 4
     4 GLC5       13 GROUP        1 X    GLC  0     **** GLC X 6
     5 ALP1       27 GROUP        1 Y    ALP  0     ROOT ALP Y 8
     6 SEP2        3 GROUP        1 Y    SEP  0     **** SEP Y 9
     7 LYP4       77 GROUP        1 Y    LYP  0     **** LYP Y 11
     8 GLP5       15 GROUP        1 Y    GLP  0     **** GLP Y 13
     9 ALL1       26 GROUP        1 Z    ALL  0     ROOT ALL Z 15
    10 SEL2        2 GROUP        1 Z    SEL  0     **** SEL Z 16
    11 LYL4       76 GROUP        1 Z    LYL  0     **** LYL Z 18
    12 GLL5       14 GROUP        1 Z    GLL  0     **** GLL Z 20
@<TRIPOS>SET

