#    Name: 1ai9_NDP_2_ligand
#    Modification time : Mon Mar 24 18:25:56 2014

@<TRIPOS>MOLECULE
1ai9_NDP_2_ligand
   74    78     1     0     0
SMALL
NO_CHARGES


@<TRIPOS>ATOM
      1 PA         17.1220   33.0340    9.9570 P.3       1 NDP193      0.0000 
      2 O1A        17.0180   33.6380   11.2840 O.co2     1 NDP193      0.0000 
      3 O2A        16.1810   32.0350    9.5270 O.co2     1 NDP193      0.0000 
      4 O5B        18.6430   32.5730    9.7100 O.3       1 NDP193      0.0000 
      5 C5B        19.0120   31.9530    8.4160 C.3       1 NDP193      0.0000 
      6 C4B        20.4530   31.4420    8.5490 C.3       1 NDP193      0.0000 
      7 O4B        20.4210   30.2340    9.3030 O.3       1 NDP193      0.0000 
      8 C3B        21.1490   31.0420    7.2280 C.3       1 NDP193      0.0000 
      9 O3B        21.5730   32.2010    6.5440 O.3       1 NDP193      0.0000 
     10 C2B        22.2090   30.0040    7.7650 C.3       1 NDP193      0.0000 
     11 O2B        23.3160   30.6370    8.4100 O.3       1 NDP193      0.0000 
     12 C1B        21.3220   29.3540    8.8950 C.3       1 NDP193      0.0000 
     13 N9A        20.7160   28.1770    8.4600 N.pl3     1 NDP193      0.0000 
     14 C8A        19.4730   28.0210    7.8520 C.2       1 NDP193      0.0000 
     15 N7A        19.2550   26.8150    7.4750 N.2       1 NDP193      0.0000 
     16 C5A        20.3220   26.0750    7.9600 C.ar      1 NDP193      0.0000 
     17 C6A        20.6540   24.7190    7.9050 C.ar      1 NDP193      0.0000 
     18 N6A        19.8810   23.7310    7.3900 N.pl3     1 NDP193      0.0000 
     19 N1A        21.7900   24.3040    8.5580 N.ar      1 NDP193      0.0000 
     20 C2A        22.6150   25.2670    9.0660 C.ar      1 NDP193      0.0000 
     21 N3A        22.3930   26.5390    9.1390 N.ar      1 NDP193      0.0000 
     22 C4A        21.2100   26.9100    8.5930 C.ar      1 NDP193      0.0000 
     23 O3         17.0680   34.2370    8.8630 O.3       1 NDP193      0.0000 
     24 PN         15.9780   34.7600    7.7570 P.3       1 NDP193      0.0000 
     25 O1N        16.4270   35.9470    7.0280 O.co2     1 NDP193      0.0000 
     26 O2N        15.4940   33.7290    6.9010 O.co2     1 NDP193      0.0000 
     27 O5D        14.8300   35.2520    8.8020 O.3       1 NDP193      0.0000 
     28 C5D        14.9860   36.4980    9.4820 C.3       1 NDP193      0.0000 
     29 C4D        13.7060   37.2670    9.5080 C.3       1 NDP193      0.0000 
     30 O4D        12.6770   36.5120   10.2300 O.3       1 NDP193      0.0000 
     31 C3D        13.7190   38.6810   10.1510 C.3       1 NDP193      0.0000 
     32 O3D        12.9280   39.5930    9.3570 O.3       1 NDP193      0.0000 
     33 C2D        13.1240   38.3640   11.5220 C.3       1 NDP193      0.0000 
     34 O2D        12.5500   39.4850   12.2140 O.3       1 NDP193      0.0000 
     35 C1D        12.0910   37.3230   11.1720 C.3       1 NDP193      0.0000 
     36 N1N        11.5420   36.6080   12.3670 N.pl3     1 NDP193      0.0000 
     37 C2N        10.1840   36.8490   12.6590 C.2       1 NDP193      0.0000 
     38 C3N         9.6500   36.2480   13.7830 C.2       1 NDP193      0.0000 
     39 C7N         8.1030   36.4070   14.0810 C.2       1 NDP193      0.0000 
     40 O7N         7.6850   35.8060   15.0420 O.2       1 NDP193      0.0000 
     41 N7N         7.4580   37.2550   13.2450 N.am      1 NDP193      0.0000 
     42 C4N        10.3670   35.4280   14.6820 C.3       1 NDP193      0.0000 
     43 C5N        11.7260   35.3010   14.3100 C.2       1 NDP193      0.0000 
     44 C6N        12.3550   35.9120   13.2490 C.2       1 NDP193      0.0000 
     45 P2B        24.6940   31.0890    7.5930 P.3       1 NDP193      0.0000 
     46 O1X        25.5250   31.6610    8.6970 O.co2     1 NDP193      0.0000 
     47 O2X        25.0480   29.7530    7.0320 O.co2     1 NDP193      0.0000 
     48 O3X        24.2270   32.0360    6.5800 O.co2     1 NDP193      0.0000 
     49 H          18.9751   32.6786    7.6186 H         1 NDP193      0.0000 
     50 H          18.3680   31.1165    8.1940 H         1 NDP193      0.0000 
     51 H          21.0555   32.1717    9.0443 H         1 NDP193      0.0000 
     52 H          20.4000   30.4561    6.6944 H         1 NDP193      0.0000 
     53 H          22.3911   29.3049    7.0608 H         1 NDP193      0.0000 
     54 H          22.0527   29.1216    9.7034 H         1 NDP193      0.0000 
     55 H          18.8589   28.8021    7.7484 H         1 NDP193      0.0000 
     56 H          18.9964   24.0129    7.0183 H         1 NDP193      0.0000 
     57 H          20.2639   22.8080    7.4274 H         1 NDP193      0.0000 
     58 H          23.5745   24.8886    9.4516 H         1 NDP193      0.0000 
     59 H          15.7586   37.1221    8.9949 H         1 NDP193      0.0000 
     60 H          15.3210   36.3421   10.5246 H         1 NDP193      0.0000 
     61 H          13.3377   37.4003    8.4725 H         1 NDP193      0.0000 
     62 H          14.7267   38.9566   10.2710 H         1 NDP193      0.0000 
     63 H          13.8935   37.8628   12.0930 H         1 NDP193      0.0000 
     64 H          11.2496   37.8922   10.7016 H         1 NDP193      0.0000 
     65 H           9.6300   37.4440   12.0577 H         1 NDP193      0.0000 
     66 H           8.0254   37.7178   12.5639 H         1 NDP193      0.0000 
     67 H           6.4715   37.3432   13.3828 H         1 NDP193      0.0000 
     68 H           9.8915   34.4171   14.7417 H         1 NDP193      0.0000 
     69 H          10.2921   35.8395   15.7196 H         1 NDP193      0.0000 
     70 H          12.3201   34.6538   14.9326 H         1 NDP193      0.0000 
     71 H          13.3514   35.8594   13.1160 H         1 NDP193      0.0000 
     72 H          22.5717   32.1493    6.5418 H         1 NDP193      0.0000 
     73 H          13.5626   40.3165    9.0850 H         1 NDP193      0.0000 
     74 H          12.3070   40.1361   11.4949 H         1 NDP193      0.0000 
@<TRIPOS>BOND
     1    2    1 ar   
     2    3    1 ar   
     3    4    1 1    
     4   23    1 1    
     5    5    4 1    
     6    6    5 1    
     7   49    5 1    
     8   50    5 1    
     9    7    6 1    
    10    8    6 1    
    11   51    6 1    
    12   12    7 1    
    13    9    8 1    
    14   10    8 1    
    15   52    8 1    
    16   72    9 1    
    17   11   10 1    
    18   12   10 1    
    19   53   10 1    
    20   45   11 1    
    21   13   12 1    
    22   54   12 1    
    23   14   13 1    
    24   22   13 1    
    25   15   14 2    
    26   55   14 1    
    27   16   15 1    
    28   17   16 ar   
    29   22   16 ar   
    30   18   17 1    
    31   19   17 ar   
    32   56   18 1    
    33   57   18 1    
    34   20   19 ar   
    35   21   20 ar   
    36   58   20 1    
    37   22   21 ar   
    38   24   23 1    
    39   25   24 ar   
    40   26   24 ar   
    41   27   24 1    
    42   28   27 1    
    43   29   28 1    
    44   59   28 1    
    45   60   28 1    
    46   30   29 1    
    47   31   29 1    
    48   61   29 1    
    49   35   30 1    
    50   32   31 1    
    51   33   31 1    
    52   62   31 1    
    53   73   32 1    
    54   34   33 1    
    55   35   33 1    
    56   63   33 1    
    57   74   34 1    
    58   36   35 1    
    59   64   35 1    
    60   37   36 1    
    61   44   36 1    
    62   38   37 2    
    63   65   37 1    
    64   39   38 1    
    65   42   38 1    
    66   40   39 2    
    67   41   39 am   
    68   66   41 1    
    69   67   41 1    
    70   43   42 1    
    71   68   42 1    
    72   69   42 1    
    73   44   43 2    
    74   70   43 1    
    75   71   44 1    
    76   46   45 ar   
    77   47   45 ar   
    78   48   45 ar   
@<TRIPOS>SUBSTRUCTURE
     1 NDP193      1 GROUP   
@<TRIPOS>SET

