#    Name: 3f7u_AG4_1_INTS_M
#    Modification time : Tue Mar 25 03:19:32 2014

@<TRIPOS>MOLECULE
3f7u_AG4_1_INTS_M
   55     0    12     0     0
SMALL
NO_CHARGES


@<TRIPOS>ATOM
      1 N          35.0830   39.7425   95.1090 N.am      2 SEC2        0.0000 
      2 N          36.4570   39.7950   94.6250 N.am     10 SEL2        0.0000 
      3 N          33.7090   39.6900   95.5930 N.am      6 SEP2        0.0000 
      4 O          39.1090   41.2860   92.7910 O.2       1 ALC1        0.0000 
      5 O          38.3150   40.4370   93.5540 O.2       9 ALL1        0.0000 
      6 O          39.9030   42.1350   92.0280 O.2       5 ALP1        0.0000 
      7 CA         40.0755   40.8175   93.0525 C.3       4 GLC5        0.0000 
      8 CA         38.8790   39.1270   93.8380 C.3      12 GLL5        0.0000 
      9 CA         41.2720   42.5080   92.2670 C.3       8 GLP5        0.0000 
     10 CA         41.0675   38.1035   95.6550 C.3       4 GLC5        0.0000 
     11 CA         39.4370   38.9980   95.2290 C.3      12 GLL5        0.0000 
     12 CA         42.6980   37.2090   96.0810 C.3       8 GLP5        0.0000 
     13 CA         41.8095   39.9855   94.6815 C.3       4 GLC5        0.0000 
     14 CA         39.9760   40.3220   95.7360 C.3      12 GLL5        0.0000 
     15 CA         43.6430   39.6490   93.6270 C.3       8 GLP5        0.0000 
     16 CA         41.3960   39.7955   96.7230 C.3       4 GLC5        0.0000 
     17 CA         42.8160   39.2690   97.7100 C.3       8 GLP5        0.0000 
     18 CA         40.6570   41.7830   94.7210 C.3       4 GLC5        0.0000 
     19 CA         41.3380   43.2440   93.7060 C.3       8 GLP5        0.0000 
     20 CA         41.1655   40.6065   97.4885 C.3       4 GLC5        0.0000 
     21 CA         39.5150   41.9440   97.2670 C.3      12 GLL5        0.0000 
     22 CA         39.7040   41.5570   98.9925 C.3       4 GLC5        0.0000 
     23 CA         39.8930   41.1700  100.7180 C.3       8 GLP5        0.0000 
     24 CA         38.1515   42.9675   97.9150 C.3       4 GLC5        0.0000 
     25 CA         36.7880   43.9910   98.5630 C.3       8 GLP5        0.0000 
     26 CA         40.4265   42.5940   95.4865 C.3       4 GLC5        0.0000 
     27 N          37.7245   46.5190   91.6070 N.am      2 SEC2        0.0000 
     28 N          36.4730   46.3380   92.3680 N.am     10 SEL2        0.0000 
     29 N          38.9760   46.7000   90.8460 N.am      6 SEP2        0.0000 
     30 O          38.6925   46.4480   94.1115 O.2       1 ALC1        0.0000 
     31 O          37.6400   45.6710   94.4910 O.2       9 ALL1        0.0000 
     32 O          39.7450   47.2250   93.7320 O.2       5 ALP1        0.0000 
     33 Zn         37.4595   45.8440   95.4705 Zn        3 ZIC7        0.0000 
     34 Zn         37.6400   45.6710   94.4910 Zn       11 ZIL7        0.0000 
     35 Zn         37.2790   46.0170   96.4500 Zn        7 ZIP7        0.0000 
     36 CA         29.1065   39.4935   93.0420 C.3       4 GLC5        0.0000 
     37 CA         30.6130   39.5820   91.7260 C.3      12 GLL5        0.0000 
     38 CA         27.6000   39.4050   94.3580 C.3       8 GLP5        0.0000 
     39 CA         31.6460   39.5745   94.3630 C.3       4 GLC5        0.0000 
     40 CA         31.8680   39.5090   92.3320 C.3      12 GLL5        0.0000 
     41 CA         31.4240   39.6400   96.3940 C.3       8 GLP5        0.0000 
     42 CA         33.6158   43.9270   94.1217 C.3       4 GLC5        0.0000 
     43 CA         34.6520   43.7910   92.7470 C.3      12 GLL5        0.0000 
     44 CA         31.9860   43.9250   95.1720 C.3       8 GLP5        0.0000 
     45 CA         35.0378   44.1890   91.2223 C.3       4 GLC5        0.0000 
     46 CA         34.8300   44.4490   89.3730 C.3       8 GLP5        0.0000 
     47 CA         31.8330   41.6427   92.0773 C.3       4 GLC5        0.0000 
     48 CA         32.9270   40.4600   90.3450 C.3      12 GLL5        0.0000 
     49 CA         30.6910   43.0800   93.1590 C.3       8 GLP5        0.0000 
     50 CA         30.8935   41.7015   91.6200 C.3       4 GLC5        0.0000 
     51 CA         31.6640   40.5360   89.7370 C.3      12 GLL5        0.0000 
     52 CA         30.4565   42.0125   89.0285 C.3       4 GLC5        0.0000 
     53 CA         30.5280   40.1100   90.4250 C.3      12 GLL5        0.0000 
     54 CA         29.8170   43.7020   87.9760 C.3       8 GLP5        0.0000 
     55 CA         30.9657   41.3128   92.5940 C.3       4 GLC5        0.0000 
@<TRIPOS>BOND
@<TRIPOS>SUBSTRUCTURE
     1 ALC1        4 GROUP        1 X    ALC  0     ROOT ALC X 1
     2 SEC2        1 GROUP        1 X    SEC  0     **** SEC X 2
     3 ZIC7       33 GROUP        1 X    ZIC  0     **** ZIC X 5
     4 GLC5        7 GROUP        1 X    GLC  0     **** GLC X 6
     5 ALP1        6 GROUP        1 Y    ALP  0     ROOT ALP Y 8
     6 SEP2        3 GROUP        1 Y    SEP  0     **** SEP Y 9
     7 ZIP7       35 GROUP        1 Y    ZIP  0     **** ZIP Y 12
     8 GLP5        9 GROUP        1 Y    GLP  0     **** GLP Y 13
     9 ALL1        5 GROUP        1 Z    ALL  0     ROOT ALL Z 15
    10 SEL2        2 GROUP        1 Z    SEL  0     **** SEL Z 16
    11 ZIL7       34 GROUP        1 Z    ZIL  0     **** ZIL Z 19
    12 GLL5        8 GROUP        1 Z    GLL  0     **** GLL Z 20
@<TRIPOS>SET

