#    Name: 3f7u_AG4_1_ligand
#    Modification time : Tue Mar 25 03:19:32 2014

@<TRIPOS>MOLECULE
3f7u_AG4_1_ligand
   43    44     1     0     0
SMALL
NO_CHARGES


@<TRIPOS>ATOM
      1 O14        36.4570   39.7950   94.6250 O.2       1 AG4265      0.0000 
      2 C1         37.0260   40.5750   93.8710 C.2       1 AG4265      0.0000 
      3 N15        38.3150   40.4370   93.5540 N.am      1 AG4265      0.0000 
      4 C16        38.8790   39.1270   93.8380 C.3       1 AG4265      0.0000 
      5 C17        39.4370   38.9980   95.2290 C.3       1 AG4265      0.0000 
      6 C19        39.9760   40.3220   95.7360 C.3       1 AG4265      0.0000 
      7 O18        39.3510   40.5500   96.9960 O.3       1 AG4265      0.0000 
      8 C20        39.5150   41.9440   97.2670 C.3       1 AG4265      0.0000 
      9 C6         36.2020   41.7340   93.4360 C.ar      1 AG4265      0.0000 
     10 C7         36.6610   42.9980   93.7360 C.ar      1 AG4265      0.0000 
     11 C5         35.0020   41.4590   92.7720 C.ar      1 AG4265      0.0000 
     12 N4         34.2550   42.5210   92.4480 N.ar      1 AG4265      0.0000 
     13 C3         34.6520   43.7910   92.7470 C.ar      1 AG4265      0.0000 
     14 C2         35.8390   44.0670   93.3960 C.ar      1 AG4265      0.0000 
     15 S8         36.2230   45.6180   93.7180 S.o2      1 AG4265      0.0000 
     16 O12        35.0320   46.2110   94.4520 O.2       1 AG4265      0.0000 
     17 O11        36.4730   46.3380   92.3680 O.2       1 AG4265      0.0000 
     18 N9         37.6400   45.6710   94.4910 N.pl3     1 AG4265      0.0000 
     19 S10        34.5360   39.8230   92.3990 S.3       1 AG4265      0.0000 
     20 C13        33.0230   39.9510   91.6460 C.ar      1 AG4265      0.0000 
     21 C21        32.9270   40.4600   90.3450 C.ar      1 AG4265      0.0000 
     22 C22        31.6640   40.5360   89.7370 C.ar      1 AG4265      0.0000 
     23 C23        30.5280   40.1100   90.4250 C.ar      1 AG4265      0.0000 
     24 C24        30.6130   39.5820   91.7260 C.ar      1 AG4265      0.0000 
     25 C25        31.8680   39.5090   92.3320 C.ar      1 AG4265      0.0000 
     26 H          38.8952   41.1368   93.1536 H         1 AG4265      0.0000 
     27 H          39.6889   38.8908   93.1137 H         1 AG4265      0.0000 
     28 H          38.1095   38.3370   93.6959 H         1 AG4265      0.0000 
     29 H          40.2441   38.2575   95.2335 H         1 AG4265      0.0000 
     30 H          38.6525   38.6471   95.9081 H         1 AG4265      0.0000 
     31 H          39.7268   41.0899   95.0134 H         1 AG4265      0.0000 
     32 H          41.0526   40.2393   95.8250 H         1 AG4265      0.0000 
     33 H          37.5542   43.1481   94.1831 H         1 AG4265      0.0000 
     34 H          34.0334   44.5984   92.4750 H         1 AG4265      0.0000 
     35 H          38.3737   46.1712   94.0311 H         1 AG4265      0.0000 
     36 H          33.7579   40.7700   89.8473 H         1 AG4265      0.0000 
     37 H          31.5805   40.9067   88.7833 H         1 AG4265      0.0000 
     38 H          29.5997   40.1818   89.9727 H         1 AG4265      0.0000 
     39 H          29.7799   39.2636   92.2074 H         1 AG4265      0.0000 
     40 H          31.9621   39.1328   93.2830 H         1 AG4265      0.0000 
     41 H          40.4799   42.2032   97.3087 H         1 AG4265      0.0000 
     42 H          39.0891   42.5119   96.5627 H         1 AG4265      0.0000 
     43 H          39.1038   42.2033   98.1409 H         1 AG4265      0.0000 
@<TRIPOS>BOND
     1    2    1 2    
     2    3    2 am   
     3    9    2 1    
     4    4    3 1    
     5   26    3 1    
     6    5    4 1    
     7   27    4 1    
     8   28    4 1    
     9    6    5 1    
    10   29    5 1    
    11   30    5 1    
    12    7    6 1    
    13   31    6 1    
    14   32    6 1    
    15    8    7 1    
    16   41    8 1    
    17   42    8 1    
    18   43    8 1    
    19   10    9 ar   
    20   11    9 ar   
    21   14   10 ar   
    22   33   10 1    
    23   12   11 ar   
    24   19   11 1    
    25   13   12 ar   
    26   14   13 ar   
    27   34   13 1    
    28   15   14 1    
    29   16   15 2    
    30   17   15 2    
    31   18   15 1    
    32   35   18 1    
    33   20   19 1    
    34   21   20 ar   
    35   25   20 ar   
    36   22   21 ar   
    37   36   21 1    
    38   23   22 ar   
    39   37   22 1    
    40   24   23 ar   
    41   38   23 1    
    42   25   24 ar   
    43   39   24 1    
    44   40   25 1    
@<TRIPOS>SUBSTRUCTURE
     1 AG4265      1 GROUP   
@<TRIPOS>SET

