#    Name: 2zg0_50U_1_INTS_M
#    Modification time : Tue Mar 25 10:42:51 2014

@<TRIPOS>MOLECULE
2zg0_50U_1_INTS_M
   67     0    12     0     0
SMALL
NO_CHARGES


@<TRIPOS>ATOM
      1 CA         18.4490  -12.3420   24.7610 C.3       4 GLC5        0.0000 
      2 CA         19.5820  -14.0820   24.7640 C.3      12 GLL5        0.0000 
      3 CA         17.3160  -10.6020   24.7580 C.3       8 GLP5        0.0000 
      4 CA         19.8060  -14.2475   28.1605 C.3       4 GLC5        0.0000 
      5 CA         19.7590  -13.3400   26.1100 C.3      12 GLL5        0.0000 
      6 CA         19.8530  -15.1550   30.2110 C.3       8 GLP5        0.0000 
      7 CA         18.3840  -12.8410   26.8680 C.3       4 GLC5        0.0000 
      8 CA         17.0090  -12.3420   27.6260 C.3       8 GLP5        0.0000 
      9 CA         21.7625  -10.8305   25.4705 C.3       4 GLC5        0.0000 
     10 CA         21.0950  -12.5520   26.2090 C.3      12 GLL5        0.0000 
     11 CA         22.4300   -9.1090   24.7320 C.3       8 GLP5        0.0000 
     12 CA         19.3630  -11.8425   26.7675 C.3       4 GLC5        0.0000 
     13 CA         17.6310  -11.1330   27.3260 C.3       8 GLP5        0.0000 
     14 CA         17.6520  -13.6655   26.2105 C.3       4 GLC5        0.0000 
     15 CA         18.2950  -14.9890   24.7950 C.3      12 GLL5        0.0000 
     16 N          15.7055  -12.5605   24.0840 N.am      2 SEC2        0.0000 
     17 N          16.7470  -13.2080   22.9960 N.am     10 SEL2        0.0000 
     18 N          14.6640  -11.9130   25.1720 N.am      6 SEP2        0.0000 
     19 CA         17.7670  -11.3980   22.9410 C.3       4 GLC5        0.0000 
     20 CA         18.2180  -12.1940   21.1240 C.3      12 GLL5        0.0000 
     21 O          16.6265   -9.8700   21.4095 O.2       1 ALC1        0.0000 
     22 O          16.2500  -10.9950   20.4890 O.2       9 ALL1        0.0000 
     23 O          17.0030   -8.7450   22.3300 O.2       5 ALP1        0.0000 
     24 CA         10.5445  -13.0930   21.8555 C.3       4 GLC5        0.0000 
     25 CA         12.4010  -12.0520   22.5160 C.3      12 GLL5        0.0000 
     26 CA          8.6880  -14.1340   21.1950 C.3       8 GLP5        0.0000 
     27 OD1         9.2505   -9.6280   25.1365 O.co2     3 ASC3        0.0000 
     28 OD1        10.8070  -10.8110   24.0630 O.co2    11 ASL3        0.0000 
     29 OD1         7.9990   -9.5580   25.6650 O.co2     7 ASP3        0.0000 
     30 OD1         9.1100  -10.7235   25.0475 O.co2     3 ASC3        0.0000 
     31 OD1         7.6830  -11.7160   25.9250 O.co2     7 ASP3        0.0000 
     32 O           9.2505   -9.6280   25.1365 O.2       1 ALC1        0.0000 
     33 O          10.5020   -9.6980   24.6080 O.2       9 ALL1        0.0000 
     34 O           7.9990   -9.5580   25.6650 O.2       5 ALP1        0.0000 
     35 O           9.1100  -10.7235   25.0475 O.2       1 ALC1        0.0000 
     36 O          10.2210  -11.8890   24.4300 O.2       9 ALL1        0.0000 
     37 O           8.9520  -11.8025   25.1775 O.2       1 ALC1        0.0000 
     38 O           7.6830  -11.7160   25.9250 O.2       5 ALP1        0.0000 
     39 O          10.2300  -13.3745   24.2450 O.2       1 ALC1        0.0000 
     40 O          10.2390  -14.8600   24.0600 O.2       5 ALP1        0.0000 
     41 CA         10.6065   -8.4300   22.3340 C.3       4 GLC5        0.0000 
     42 CA         12.3490   -9.6620   22.4110 C.3      12 GLL5        0.0000 
     43 CA          8.8640   -7.1980   22.2570 C.3       8 GLP5        0.0000 
     44 CA         23.0162  -12.2575   26.9375 C.3       4 GLC5        0.0000 
     45 CA         24.3210  -11.5030   27.8030 C.3       8 GLP5        0.0000 
     46 CA         18.9430  -10.5355   19.4305 C.3       4 GLC5        0.0000 
     47 CA         19.0930   -8.8650   18.2590 C.3       8 GLP5        0.0000 
     48 CA         21.8130  -13.9435   20.4002 C.3       4 GLC5        0.0000 
     49 CA         20.3980  -13.2090   20.6800 C.3      12 GLL5        0.0000 
     50 CA         23.6520  -14.0980   19.8280 C.3       8 GLP5        0.0000 
     51 CA         20.1883  -11.3208   21.8305 C.3       4 GLC5        0.0000 
     52 CA         20.7810   -9.9340   23.0200 C.3       8 GLP5        0.0000 
     53 CA         19.2122  -14.5296   19.1023 C.3       4 GLC5        0.0000 
     54 CA         19.3680  -12.2180   20.0800 C.3      12 GLL5        0.0000 
     55 CA         18.7080  -15.5180   17.3820 C.3       8 GLP5        0.0000 
     56 CA         14.7773  -10.7900   22.7900 C.3       4 GLC5        0.0000 
     57 CA         13.8630  -10.8900   20.9450 C.3      12 GLL5        0.0000 
     58 CA         15.9350  -10.1040   24.3470 C.3       8 GLP5        0.0000 
     59 CA         14.0337  -10.7750   23.5487 C.3       4 GLC5        0.0000 
     60 CA         11.8640  -10.8400   22.9850 C.3      12 GLL5        0.0000 
     61 CA         12.9971  -12.0188   24.2064 C.3       4 GLC5        0.0000 
     62 CA         13.6180  -12.5890   25.9110 C.3       8 GLP5        0.0000 
     63 CA         10.5804  -10.7745   21.3084 C.3       4 GLC5        0.0000 
     64 CA          8.9200  -10.9950   20.0360 C.3       8 GLP5        0.0000 
     65 CA         12.6337   -7.8913   21.6762 C.3       4 GLC5        0.0000 
     66 CA         12.4270   -6.1070   21.4430 C.3       8 GLP5        0.0000 
     67 CA         14.3878   -9.8897   23.1283 C.3       4 GLC5        0.0000 
@<TRIPOS>BOND
@<TRIPOS>SUBSTRUCTURE
     1 ALC1       21 GROUP        1 X    ALC  0     ROOT ALC X 1
     2 SEC2       16 GROUP        1 X    SEC  0     **** SEC X 2
     3 ASC3       27 GROUP        1 X    ASC  0     **** ASC X 3
     4 GLC5        1 GROUP        1 X    GLC  0     **** GLC X 6
     5 ALP1       23 GROUP        1 Y    ALP  0     ROOT ALP Y 8
     6 SEP2       18 GROUP        1 Y    SEP  0     **** SEP Y 9
     7 ASP3       29 GROUP        1 Y    ASP  0     **** ASP Y 10
     8 GLP5        3 GROUP        1 Y    GLP  0     **** GLP Y 13
     9 ALL1       22 GROUP        1 Z    ALL  0     ROOT ALL Z 15
    10 SEL2       17 GROUP        1 Z    SEL  0     **** SEL Z 16
    11 ASL3       28 GROUP        1 Z    ASL  0     **** ASL Z 17
    12 GLL5        2 GROUP        1 Z    GLL  0     **** GLL Z 20
@<TRIPOS>SET

