#    Name: 2zg0_50U_1_ligand
#    Modification time : Tue Mar 25 10:42:52 2014

@<TRIPOS>MOLECULE
2zg0_50U_1_ligand
   61    63     1     0     0
SMALL
NO_CHARGES


@<TRIPOS>ATOM
      1 C44        19.5820  -14.0820   24.7640 C.3       1 50U701      0.0000 
      2 C45        19.7590  -13.3400   26.1100 C.3       1 50U701      0.0000 
      3 C46        21.0950  -12.5520   26.2090 C.3       1 50U701      0.0000 
      4 C47        22.3280  -13.4720   25.9350 C.3       1 50U701      0.0000 
      5 C48        22.1900  -14.1090   24.5340 C.3       1 50U701      0.0000 
      6 C49        20.8610  -14.9260   24.4490 C.3       1 50U701      0.0000 
      7 C43        18.2950  -14.9890   24.7950 C.3       1 50U701      0.0000 
      8 C5         17.7760  -15.2490   23.3540 C.3       1 50U701      0.0000 
      9 C14        17.6720  -13.9260   22.6120 C.2       1 50U701      0.0000 
     10 O32        16.7470  -13.2080   22.9960 O.2       1 50U701      0.0000 
     11 N1         18.4320  -13.5280   21.6560 N.am      1 50U701      0.0000 
     12 C1         18.2180  -12.1940   21.1240 C.3       1 50U701      0.0000 
     13 C7         16.8770  -12.1050   20.4290 C.2       1 50U701      0.0000 
     14 O22        16.5130  -13.1160   19.8480 O.2       1 50U701      0.0000 
     15 C2         19.3680  -12.2180   20.0800 C.3       1 50U701      0.0000 
     16 C3         20.3980  -13.2090   20.6800 C.3       1 50U701      0.0000 
     17 C4         19.5500  -14.3690   21.2650 C.3       1 50U701      0.0000 
     18 N23        16.2500  -10.9950   20.4890 N.am      1 50U701      0.0000 
     19 C24        14.9440  -10.9590   19.8450 C.3       1 50U701      0.0000 
     20 C25        13.8630  -10.8900   20.9450 C.ar      1 50U701      0.0000 
     21 C26        13.3760  -12.0620   21.5210 C.ar      1 50U701      0.0000 
     22 C27        12.4010  -12.0520   22.5160 C.ar      1 50U701      0.0000 
     23 C28        11.8640  -10.8400   22.9850 C.ar      1 50U701      0.0000 
     24 C21        10.8070  -10.8110   24.0630 C.cat     1 50U701      0.0000 
     25 N46        10.5020   -9.6980   24.6080 N.pl3     1 50U701      0.0000 
     26 N47        10.2210  -11.8890   24.4300 N.pl3     1 50U701      0.0000 
     27 C29        12.3490   -9.6620   22.4110 C.ar      1 50U701      0.0000 
     28 C30        13.3320   -9.6890   21.4080 C.ar      1 50U701      0.0000 
     29 H          19.4588  -13.3511   23.9816 H         1 50U701      0.0000 
     30 H          19.7206  -14.0691   26.9259 H         1 50U701      0.0000 
     31 H          18.9280  -12.6394   26.2420 H         1 50U701      0.0000 
     32 H          21.1870  -12.1322   27.2058 H         1 50U701      0.0000 
     33 H          21.0890  -11.7491   25.4785 H         1 50U701      0.0000 
     34 H          22.3561  -14.2472   26.6818 H         1 50U701      0.0000 
     35 H          23.2228  -12.8742   25.9721 H         1 50U701      0.0000 
     36 H          23.0200  -14.7762   24.3586 H         1 50U701      0.0000 
     37 H          22.1686  -13.3316   23.7857 H         1 50U701      0.0000 
     38 H          20.7672  -15.3403   23.4412 H         1 50U701      0.0000 
     39 H          20.9142  -15.7579   25.1570 H         1 50U701      0.0000 
     40 H          17.5311  -14.4826   25.3657 H         1 50U701      0.0000 
     41 H          18.5484  -15.9297   25.2605 H         1 50U701      0.0000 
     42 H          16.8036  -15.7154   23.4156 H         1 50U701      0.0000 
     43 H          18.4720  -15.9024   22.8484 H         1 50U701      0.0000 
     44 H          18.3966  -11.4636   21.8044 H         1 50U701      0.0000 
     45 H          19.7998  -11.2573   20.0095 H         1 50U701      0.0000 
     46 H          19.0043  -12.5961   19.1640 H         1 50U701      0.0000 
     47 H          20.9337  -12.7335   21.4617 H         1 50U701      0.0000 
     48 H          21.0224  -13.5817   19.9084 H         1 50U701      0.0000 
     49 H          19.3074  -15.0168   20.4937 H         1 50U701      0.0000 
     50 H          20.0538  -14.7622   22.0805 H         1 50U701      0.0000 
     51 H          16.5645  -10.1410   20.9355 H         1 50U701      0.0000 
     52 H          14.7661  -11.8531   19.2566 H         1 50U701      0.0000 
     53 H          14.8359  -10.0829   19.2141 H         1 50U701      0.0000 
     54 H          13.7548  -12.9780   21.1957 H         1 50U701      0.0000 
     55 H          12.0655  -12.9404   22.9168 H         1 50U701      0.0000 
     56 H           9.7816   -9.7301   25.3009 H         1 50U701      0.0000 
     57 H          11.0121   -8.8984   24.2910 H         1 50U701      0.0000 
     58 H           9.5633  -11.7996   25.1779 H         1 50U701      0.0000 
     59 H          10.4760  -12.7192   23.9342 H         1 50U701      0.0000 
     60 H          11.9787   -8.7501   22.7289 H         1 50U701      0.0000 
     61 H          13.6653   -8.7940   21.0079 H         1 50U701      0.0000 
@<TRIPOS>BOND
     1    2    1 1    
     2    6    1 1    
     3    7    1 1    
     4   29    1 1    
     5    3    2 1    
     6   30    2 1    
     7   31    2 1    
     8    4    3 1    
     9   32    3 1    
    10   33    3 1    
    11    5    4 1    
    12   34    4 1    
    13   35    4 1    
    14    6    5 1    
    15   36    5 1    
    16   37    5 1    
    17   38    6 1    
    18   39    6 1    
    19    8    7 1    
    20   40    7 1    
    21   41    7 1    
    22    9    8 1    
    23   42    8 1    
    24   43    8 1    
    25   10    9 2    
    26   11    9 am   
    27   12   11 1    
    28   17   11 1    
    29   13   12 1    
    30   15   12 1    
    31   44   12 1    
    32   14   13 2    
    33   18   13 am   
    34   16   15 1    
    35   45   15 1    
    36   46   15 1    
    37   17   16 1    
    38   47   16 1    
    39   48   16 1    
    40   49   17 1    
    41   50   17 1    
    42   19   18 1    
    43   51   18 1    
    44   20   19 1    
    45   52   19 1    
    46   53   19 1    
    47   21   20 ar   
    48   28   20 ar   
    49   22   21 ar   
    50   54   21 1    
    51   23   22 ar   
    52   55   22 1    
    53   24   23 1    
    54   27   23 ar   
    55   25   24 ar   
    56   26   24 ar   
    57   56   25 1    
    58   57   25 1    
    59   58   26 1    
    60   59   26 1    
    61   28   27 ar   
    62   60   27 1    
    63   61   28 1    
@<TRIPOS>SUBSTRUCTURE
     1 50U701      1 GROUP   
@<TRIPOS>SET

