#    Name: 1wdk_NAD_2_INTS_M
#    Modification time : Tue Mar 25 08:59:21 2014

@<TRIPOS>MOLECULE
1wdk_NAD_2_INTS_M
   80     0     9     0     0
SMALL
NO_CHARGES


@<TRIPOS>ATOM
      1 CA        -20.1090   32.0005  147.4035 C.3       3 GLC5        0.0000 
      2 CA        -19.1550   31.5400  145.4770 C.3       9 GLL5        0.0000 
      3 CA        -21.0630   32.4610  149.3300 C.3       6 GLP5        0.0000 
      4 CA        -20.8790   29.6150  143.3720 C.3       3 GLC5        0.0000 
      5 CA        -20.0750   31.3670  144.2990 C.3       9 GLL5        0.0000 
      6 CA        -21.6830   27.8630  142.4450 C.3       6 GLP5        0.0000 
      7 O         -21.5865   31.9605  141.5415 O.2       1 ALC1        0.0000 
      8 O         -20.6790   32.7320  142.3760 O.2       7 ALL1        0.0000 
      9 O         -22.4940   31.1890  140.7070 O.2       4 ALP1        0.0000 
     10 O         -23.6590   32.8510  142.4590 O.2       1 ALC1        0.0000 
     11 O         -22.9970   33.4630  143.6230 O.2       7 ALL1        0.0000 
     12 O         -24.3210   32.2390  141.2950 O.2       4 ALP1        0.0000 
     13 CA        -22.0465   29.5350  143.3635 C.3       3 GLC5        0.0000 
     14 CA        -22.4100   31.2070  144.2820 C.3       9 GLL5        0.0000 
     15 CA        -24.0920   29.2885  147.2915 C.3       3 GLC5        0.0000 
     16 CA        -25.2700   29.7510  145.9950 C.3       9 GLL5        0.0000 
     17 CA        -22.9140   28.8260  148.5880 C.3       6 GLP5        0.0000 
     18 CA        -24.7215   27.8575  146.4585 C.3       3 GLC5        0.0000 
     19 CA        -26.3150   28.7720  145.9450 C.3       9 GLL5        0.0000 
     20 CA        -23.1280   26.9430  146.9720 C.3       6 GLP5        0.0000 
     21 CA        -26.7095   27.6245  147.5140 C.3       3 GLC5        0.0000 
     22 CA        -27.1040   26.4770  149.0830 C.3       6 GLP5        0.0000 
     23 CA        -24.7020   26.0720  143.9305 C.3       3 GLC5        0.0000 
     24 CA        -25.4970   28.1130  143.8390 C.3       9 GLL5        0.0000 
     25 CA        -23.9070   24.0310  144.0220 C.3       6 GLP5        0.0000 
     26 CA        -23.5900   27.9880  143.1420 C.3       3 GLC5        0.0000 
     27 CA        -25.4730   28.8175  142.1395 C.3       3 GLC5        0.0000 
     28 CA        -25.4490   29.5220  140.4400 C.3       6 GLP5        0.0000 
     29 CA        -26.8070   29.6560  143.9620 C.3       3 GLC5        0.0000 
     30 CA        -28.1170   31.1990  144.0850 C.3       6 GLP5        0.0000 
     31 CA        -24.3125   27.5280  145.4055 C.3       3 GLC5        0.0000 
     32 CA        -23.0490   28.8280  143.6705 C.3       3 GLC5        0.0000 
     33 CA        -24.4150   29.7930  144.8960 C.3       9 GLL5        0.0000 
     34 CA        -23.7715   28.3680  145.9340 C.3       3 GLC5        0.0000 
     35 N         -14.4860   29.3105  143.7145 N.am      2 SEC2        0.0000 
     36 N         -15.3280   30.1190  144.6550 N.am      8 SEL2        0.0000 
     37 N         -13.6440   28.5020  142.7740 N.am      5 SEP2        0.0000 
     38 N         -16.4350   29.3290  144.2145 N.am      2 SEC2        0.0000 
     39 N         -17.5420   28.5390  143.7740 N.am      5 SEP2        0.0000 
     40 N         -17.8965   25.9740  150.8070 N.am      2 SEC2        0.0000 
     41 N         -16.4440   26.0690  150.6170 N.am      8 SEL2        0.0000 
     42 N         -19.3490   25.8790  150.9970 N.am      5 SEP2        0.0000 
     43 O         -16.4805   26.1805  151.9725 O.2       1 ALC1        0.0000 
     44 O         -16.4440   26.0690  150.6170 O.2       7 ALL1        0.0000 
     45 O         -16.5170   26.2920  153.3280 O.2       4 ALP1        0.0000 
     46 N         -13.7430   25.2370  152.3890 N.am      2 SEC2        0.0000 
     47 N         -13.9660   26.6940  151.6790 N.am      8 SEL2        0.0000 
     48 N         -13.5200   23.7800  153.0990 N.am      5 SEP2        0.0000 
     49 N         -12.6980   26.2670  152.4460 N.am      2 SEC2        0.0000 
     50 N         -11.4300   25.8400  153.2130 N.am      5 SEP2        0.0000 
     51 O         -15.2415   26.4930  152.5035 O.2       1 ALC1        0.0000 
     52 O         -13.9660   26.6940  151.6790 O.2       7 ALL1        0.0000 
     53 CA        -13.3225   26.7655  147.2990 C.3       3 GLC5        0.0000 
     54 CA        -13.7720   26.3910  149.2820 C.3       9 GLL5        0.0000 
     55 CA        -12.8730   27.1400  145.3160 C.3       6 GLP5        0.0000 
     56 CA        -12.3490   27.5020  147.0290 C.3       3 GLC5        0.0000 
     57 CA        -11.8250   27.8640  148.7420 C.3       9 GLL5        0.0000 
     58 CA        -10.7930   27.4575  146.7230 C.3       3 GLC5        0.0000 
     59 CA        -10.4630   28.0680  148.5540 C.3       9 GLL5        0.0000 
     60 CA        -11.1230   26.8470  144.8920 C.3       6 GLP5        0.0000 
     61 N          -9.0950   30.0800  145.9555 N.am      2 SEC2        0.0000 
     62 N          -9.9410   29.8880  147.0220 N.am      8 SEL2        0.0000 
     63 N          -8.2490   30.2720  144.8890 N.am      5 SEP2        0.0000 
     64 CA         -8.4085   27.5285  146.9735 C.3       3 GLC5        0.0000 
     65 CA         -9.5100   26.9910  148.6950 C.3       9 GLL5        0.0000 
     66 CA         -7.3070   28.0660  145.2520 C.3       6 GLP5        0.0000 
     67 CA        -26.6104   30.3631  144.7590 C.3       3 GLC5        0.0000 
     68 CA        -14.4015   27.5817  146.8410 C.3       3 GLC5        0.0000 
     69 CA        -16.0070   28.7350  148.1160 C.3       9 GLL5        0.0000 
     70 CA        -15.3155   27.8680  151.7740 C.3       3 GLC5        0.0000 
     71 CA        -15.7990   27.2460  150.1340 C.3       9 GLL5        0.0000 
     72 CA        -15.5830   28.4860  153.2670 C.3       6 GLP5        0.0000 
     73 CA        -10.9660   25.0427  151.0510 C.3       3 GLC5        0.0000 
     74 CA        -10.1000   25.7410  149.0370 C.3       9 GLL5        0.0000 
     75 CA        -11.1610   24.4790  152.9640 C.3       6 GLP5        0.0000 
     76 CA        -10.8910   23.5977  149.7535 C.3       3 GLC5        0.0000 
     77 CA        -11.4420   25.4720  149.2390 C.3       9 GLL5        0.0000 
     78 CA        -11.0110   21.5890  150.3690 C.3       6 GLP5        0.0000 
     79 CA        -10.7703   25.5080  147.2258 C.3       3 GLC5        0.0000 
     80 CA        -10.9170   25.0970  145.3990 C.3       6 GLP5        0.0000 
@<TRIPOS>BOND
@<TRIPOS>SUBSTRUCTURE
     1 ALC1        7 GROUP        1 X    ALC  0     ROOT ALC X 1
     2 SEC2       35 GROUP        1 X    SEC  0     **** SEC X 2
     3 GLC5        1 GROUP        1 X    GLC  0     **** GLC X 6
     4 ALP1        9 GROUP        1 Y    ALP  0     ROOT ALP Y 8
     5 SEP2       37 GROUP        1 Y    SEP  0     **** SEP Y 9
     6 GLP5        3 GROUP        1 Y    GLP  0     **** GLP Y 13
     7 ALL1        8 GROUP        1 Z    ALL  0     ROOT ALL Z 15
     8 SEL2       36 GROUP        1 Z    SEL  0     **** SEL Z 16
     9 GLL5        2 GROUP        1 Z    GLL  0     **** GLL Z 20
@<TRIPOS>SET

