#    Name: 1wdk_NAD_2_ligand
#    Modification time : Tue Mar 25 08:59:21 2014

@<TRIPOS>MOLECULE
1wdk_NAD_2_ligand
   70    74     1     0     0
SMALL
NO_CHARGES


@<TRIPOS>ATOM
      1 PA        -16.7100   32.4980  145.8250 P.3       1 NAD2001     0.0000 
      2 O1A       -15.7460   33.1110  144.8740 O.co2     1 NAD2001     0.0000 
      3 O2A       -17.4190   33.4530  146.7250 O.co2     1 NAD2001     0.0000 
      4 O5B       -17.8250   31.7170  144.9910 O.3       1 NAD2001     0.0000 
      5 C5B       -19.1550   31.5400  145.4770 C.3       1 NAD2001     0.0000 
      6 C4B       -20.0750   31.3670  144.2990 C.3       1 NAD2001     0.0000 
      7 O4B       -21.2250   30.5640  144.7040 O.3       1 NAD2001     0.0000 
      8 C3B       -20.6630   32.6900  143.7970 C.3       1 NAD2001     0.0000 
      9 O3B       -20.6790   32.7320  142.3760 O.3       1 NAD2001     0.0000 
     10 C2B       -22.0800   32.6940  144.3750 C.3       1 NAD2001     0.0000 
     11 O2B       -22.9970   33.4630  143.6230 O.3       1 NAD2001     0.0000 
     12 C1B       -22.4100   31.2070  144.2820 C.3       1 NAD2001     0.0000 
     13 N9A       -23.5110   30.7940  145.1660 N.pl3     1 NAD2001     0.0000 
     14 C8A       -23.8660   31.2910  146.4020 C.2       1 NAD2001     0.0000 
     15 N7A       -24.9080   30.7000  146.9360 N.2       1 NAD2001     0.0000 
     16 C5A       -25.2700   29.7510  145.9950 C.ar      1 NAD2001     0.0000 
     17 C6A       -26.3150   28.7720  145.9450 C.ar      1 NAD2001     0.0000 
     18 N6A       -27.2120   28.6070  146.9190 N.pl3     1 NAD2001     0.0000 
     19 N1A       -26.4040   27.9550  144.8360 N.ar      1 NAD2001     0.0000 
     20 C2A       -25.4970   28.1130  143.8390 C.ar      1 NAD2001     0.0000 
     21 N3A       -24.4730   29.0000  143.7760 N.ar      1 NAD2001     0.0000 
     22 C4A       -24.4150   29.7930  144.8960 C.ar      1 NAD2001     0.0000 
     23 O3        -15.9070   31.4470  146.7430 O.3       1 NAD2001     0.0000 
     24 PN        -15.1040   30.1850  146.1240 P.3       1 NAD2001     0.0000 
     25 O1N       -15.3280   30.1190  144.6550 O.co2     1 NAD2001     0.0000 
     26 O2N       -13.6890   30.3280  146.5620 O.co2     1 NAD2001     0.0000 
     27 O5D       -15.6840   28.8330  146.7370 O.3       1 NAD2001     0.0000 
     28 C5D       -16.0070   28.7350  148.1160 C.3       1 NAD2001     0.0000 
     29 C4D       -15.8530   27.3120  148.6160 C.3       1 NAD2001     0.0000 
     30 O4D       -14.5690   26.7600  148.1650 O.3       1 NAD2001     0.0000 
     31 C3D       -15.7990   27.2460  150.1340 C.3       1 NAD2001     0.0000 
     32 O3D       -16.4440   26.0690  150.6170 O.3       1 NAD2001     0.0000 
     33 C2D       -14.2970   27.2540  150.4280 C.3       1 NAD2001     0.0000 
     34 O2D       -13.9660   26.6940  151.6790 O.3       1 NAD2001     0.0000 
     35 C1D       -13.7720   26.3910  149.2820 C.3       1 NAD2001     0.0000 
     36 N1N       -12.3140   26.5980  149.0770 N.pl3     1 NAD2001     0.0000 
     37 C2N       -11.8250   27.8640  148.7420 C.ar      1 NAD2001     0.0000 
     38 C3N       -10.4630   28.0680  148.5540 C.ar      1 NAD2001     0.0000 
     39 C7N        -9.8950   29.4980  148.1750 C.2       1 NAD2001     0.0000 
     40 O7N        -9.9410   29.8880  147.0220 O.2       1 NAD2001     0.0000 
     41 N7N        -9.3790   30.2210  149.1920 N.am      1 NAD2001     0.0000 
     42 C4N        -9.5100   26.9910  148.6950 C.ar      1 NAD2001     0.0000 
     43 C5N       -10.1000   25.7410  149.0370 C.ar      1 NAD2001     0.0000 
     44 C6N       -11.4420   25.4720  149.2390 C.ar      1 NAD2001     0.0000 
     45 H         -19.4910   32.4062  146.0536 H         1 NAD2001     0.0000 
     46 H         -19.2364   30.6536  146.1122 H         1 NAD2001     0.0000 
     47 H         -19.5664   30.8912  143.4912 H         1 NAD2001     0.0000 
     48 H         -20.1193   33.4818  144.2480 H         1 NAD2001     0.0000 
     49 H         -22.0141   32.9410  145.4008 H         1 NAD2001     0.0000 
     50 H         -22.6221   30.9741  143.2619 H         1 NAD2001     0.0000 
     51 H         -23.3499   32.0403  146.8267 H         1 NAD2001     0.0000 
     52 H         -27.1099   29.2016  147.7165 H         1 NAD2001     0.0000 
     53 H         -27.9057   27.9036  146.7638 H         1 NAD2001     0.0000 
     54 H         -25.6054   27.4421  142.9805 H         1 NAD2001     0.0000 
     55 H         -17.0468   29.0505  148.3137 H         1 NAD2001     0.0000 
     56 H         -15.3571   29.3807  148.7329 H         1 NAD2001     0.0000 
     57 H         -16.6539   26.7061  148.2705 H         1 NAD2001     0.0000 
     58 H         -16.2129   28.1506  150.5153 H         1 NAD2001     0.0000 
     59 H         -13.9401   28.2419  150.2688 H         1 NAD2001     0.0000 
     60 H         -13.9670   25.3596  149.5610 H         1 NAD2001     0.0000 
     61 H         -12.4827   28.6505  148.6343 H         1 NAD2001     0.0000 
     62 H          -9.4427   29.8094  150.1011 H         1 NAD2001     0.0000 
     63 H          -8.9790   31.1038  148.9457 H         1 NAD2001     0.0000 
     64 H          -8.5571   27.1188  148.5662 H         1 NAD2001     0.0000 
     65 H          -9.4104   24.9206  149.1477 H         1 NAD2001     0.0000 
     66 H         -11.7964   24.5823  149.4769 H         1 NAD2001     0.0000 
     67 H         -21.4129   32.1083  142.1070 H         1 NAD2001     0.0000 
     68 H         -23.2808   32.8662  142.8725 H         1 NAD2001     0.0000 
     69 H         -16.4394   26.1616  151.6127 H         1 NAD2001     0.0000 
     70 H         -14.7660   26.1540  151.9404 H         1 NAD2001     0.0000 
@<TRIPOS>BOND
     1    2    1 ar   
     2    3    1 ar   
     3    4    1 1    
     4   23    1 1    
     5    5    4 1    
     6    6    5 1    
     7   45    5 1    
     8   46    5 1    
     9    7    6 1    
    10    8    6 1    
    11   47    6 1    
    12   12    7 1    
    13    9    8 1    
    14   10    8 1    
    15   48    8 1    
    16   67    9 1    
    17   11   10 1    
    18   12   10 1    
    19   49   10 1    
    20   68   11 1    
    21   13   12 1    
    22   50   12 1    
    23   14   13 1    
    24   22   13 1    
    25   15   14 2    
    26   51   14 1    
    27   16   15 1    
    28   17   16 ar   
    29   22   16 ar   
    30   18   17 1    
    31   19   17 ar   
    32   52   18 1    
    33   53   18 1    
    34   20   19 ar   
    35   21   20 ar   
    36   54   20 1    
    37   22   21 ar   
    38   24   23 1    
    39   25   24 ar   
    40   26   24 ar   
    41   27   24 1    
    42   28   27 1    
    43   29   28 1    
    44   55   28 1    
    45   56   28 1    
    46   30   29 1    
    47   31   29 1    
    48   57   29 1    
    49   35   30 1    
    50   32   31 1    
    51   33   31 1    
    52   58   31 1    
    53   69   32 1    
    54   34   33 1    
    55   35   33 1    
    56   59   33 1    
    57   70   34 1    
    58   36   35 1    
    59   60   35 1    
    60   37   36 ar   
    61   44   36 ar   
    62   38   37 ar   
    63   61   37 1    
    64   39   38 1    
    65   42   38 ar   
    66   40   39 2    
    67   41   39 am   
    68   62   41 1    
    69   63   41 1    
    70   43   42 ar   
    71   64   42 1    
    72   44   43 ar   
    73   65   43 1    
    74   66   44 1    
@<TRIPOS>SUBSTRUCTURE
     1 NAD2001     1 GROUP   
@<TRIPOS>SET

