#    Name: 2h8h_H8H_1_INTS_M
#    Modification time : Tue Mar 25 15:43:31 2014

@<TRIPOS>MOLECULE
2h8h_H8H_1_INTS_M
   82     0     6     0     0
SMALL
NO_CHARGES


@<TRIPOS>ATOM
      1 CA         25.0590   18.3690   56.8625 C.3       2 GLC5        0.0000 
      2 CA         26.3740   18.1100   58.2720 C.3       6 GLL5        0.0000 
      3 CA         23.7440   18.6280   55.4530 C.3       4 GLP5        0.0000 
      4 CA         24.2495   19.8360   57.1700 C.3       2 GLC5        0.0000 
      5 CA         24.7550   21.0440   58.8870 C.3       6 GLL5        0.0000 
      6 CA         19.4980   21.7330   60.1460 C.3       2 GLC5        0.0000 
      7 CA         20.1260   20.8250   58.3890 C.3       6 GLL5        0.0000 
      8 CA         18.8700   22.6410   61.9030 C.3       4 GLP5        0.0000 
      9 CA         18.2705   20.8970   60.9765 C.3       2 GLC5        0.0000 
     10 CA         17.6710   19.1530   60.0500 C.3       6 GLL5        0.0000 
     11 CA         20.0330   17.9365   56.7575 C.3       2 GLC5        0.0000 
     12 CA         18.7040   17.8370   58.1730 C.3       6 GLL5        0.0000 
     13 CA         21.3620   18.0360   55.3420 C.3       4 GLP5        0.0000 
     14 CA         18.0930   18.6775   56.2435 C.3       2 GLC5        0.0000 
     15 CA         17.4820   19.5180   54.3140 C.3       4 GLP5        0.0000 
     16 CA         19.7245   24.0235   55.9945 C.3       2 GLC5        0.0000 
     17 CA         18.9680   22.9450   57.7350 C.3       6 GLL5        0.0000 
     18 CA         20.4810   25.1020   54.2540 C.3       4 GLP5        0.0000 
     19 CA         17.5340   23.8960   58.9910 C.3       2 GLC5        0.0000 
     20 CA         16.5270   23.0070   57.2880 C.3       6 GLL5        0.0000 
     21 CA         18.5410   24.7850   60.6940 C.3       4 GLP5        0.0000 
     22 CA         18.7265   25.1245   54.3390 C.3       2 GLC5        0.0000 
     23 CA         16.9720   25.1470   54.4240 C.3       6 GLL5        0.0000 
     24 CA         17.6215   24.6345   52.3965 C.3       2 GLC5        0.0000 
     25 CA         18.2710   24.1220   50.3690 C.3       4 GLP5        0.0000 
     26 CA         15.5580   23.9905   53.4335 C.3       2 GLC5        0.0000 
     27 CA         14.1440   22.8340   52.4430 C.3       4 GLP5        0.0000 
     28 CA         16.5745   26.8905   54.5170 C.3       2 GLC5        0.0000 
     29 CA         16.1770   28.6340   54.6100 C.3       4 GLP5        0.0000 
     30 CA         12.7440   25.0310   57.9860 C.3       2 GLC5        0.0000 
     31 CA         14.1760   24.3080   56.4990 C.3       6 GLL5        0.0000 
     32 CA         11.3120   25.7540   59.4730 C.3       4 GLP5        0.0000 
     33 CA         12.6885   23.9720   58.8600 C.3       2 GLC5        0.0000 
     34 CA         14.2070   23.6040   57.6940 C.3       6 GLL5        0.0000 
     35 CA         11.1700   24.3400   60.0260 C.3       4 GLP5        0.0000 
     36 CA         17.1130   22.3675   60.7550 C.3       2 GLC5        0.0000 
     37 CA         15.3560   22.0940   59.6070 C.3       6 GLL5        0.0000 
     38 CA         15.2375   23.8995   60.4695 C.3       2 GLC5        0.0000 
     39 CA         15.1190   25.7050   61.3320 C.3       4 GLP5        0.0000 
     40 CA         20.3705   24.9745   55.8910 C.3       2 GLC5        0.0000 
     41 CA         20.2600   24.8470   57.5280 C.3       6 GLL5        0.0000 
     42 CA         21.8550   25.9510   56.9705 C.3       2 GLC5        0.0000 
     43 CA         23.4500   27.0550   56.4130 C.3       4 GLP5        0.0000 
     44 CA         20.9445   25.8915   59.1715 C.3       2 GLC5        0.0000 
     45 CA         21.6290   26.9360   60.8150 C.3       4 GLP5        0.0000 
     46 CA         19.4005   24.8160   59.1110 C.3       2 GLC5        0.0000 
     47 N          22.4505   25.1650   58.2500 N.am      1 SEC2        0.0000 
     48 N          21.3810   24.2100   57.8210 N.am      5 SEL2        0.0000 
     49 N          23.5200   26.1200   58.6790 N.am      3 SEP2        0.0000 
     50 CA         26.4775   20.2840   62.0665 C.3       2 GLC5        0.0000 
     51 CA         26.3440   18.5430   60.6840 C.3       6 GLL5        0.0000 
     52 CA         26.6110   22.0250   63.4490 C.3       4 GLP5        0.0000 
     53 CA         24.7310   19.7160   61.4915 C.3       2 GLC5        0.0000 
     54 CA         23.1180   20.8890   62.2990 C.3       4 GLP5        0.0000 
     55 CA         25.9615   21.8335   57.6890 C.3       2 GLC5        0.0000 
     56 CA         26.0190   20.2400   59.1190 C.3       6 GLL5        0.0000 
     57 CA         26.5360   23.0250   56.3750 C.3       4 GLP5        0.0000 
     58 CA         24.2525   20.7655   60.6510 C.3       2 GLC5        0.0000 
     59 CA         22.0368   20.4972   56.9162 C.3       2 GLC5        0.0000 
     60 CA         22.5160   20.8860   58.7490 C.3       6 GLL5        0.0000 
     61 CA         22.1630   20.4580   55.0900 C.3       4 GLP5        0.0000 
     62 CA         21.1500   20.9857   56.6613 C.3       2 GLC5        0.0000 
     63 CA         18.2105   18.7220   62.1743 C.3       2 GLC5        0.0000 
     64 CA         18.9780   18.9550   63.9880 C.3       4 GLP5        0.0000 
     65 CA         18.2680   16.1055   56.9825 C.3       2 GLC5        0.0000 
     66 CA         18.3720   16.5510   58.9550 C.3       6 GLL5        0.0000 
     67 CA         17.9980   15.0170   55.4010 C.3       4 GLP5        0.0000 
     68 CA         18.9462   21.4901   56.2804 C.3       2 GLC5        0.0000 
     69 CA         18.3400   20.7510   54.5770 C.3       4 GLP5        0.0000 
     70 CA         17.4203   22.0545   55.6290 C.3       2 GLC5        0.0000 
     71 CA         15.0145   23.4310   54.1612 C.3       2 GLC5        0.0000 
     72 CA         16.4740   23.7090   56.0740 C.3       6 GLL5        0.0000 
     73 CA         13.3498   23.0180   55.6213 C.3       2 GLC5        0.0000 
     74 CA         12.5080   22.0800   54.1460 C.3       4 GLP5        0.0000 
     75 CA         14.9522   24.4907   59.6103 C.3       2 GLC5        0.0000 
     76 CA         22.0688   21.5157   56.6820 C.3       2 GLC5        0.0000 
     77 CA         21.3850   22.9060   58.1070 C.3       6 GLL5        0.0000 
     78 CA         22.3242   24.2067   59.6080 C.3       2 GLC5        0.0000 
     79 CA         22.5640   22.2410   58.4410 C.3       6 GLL5        0.0000 
     80 CA         22.6740   25.8400   60.9420 C.3       4 GLP5        0.0000 
     81 CA         19.5063   23.7624   59.3501 C.3       2 GLC5        0.0000 
     82 CA         22.6776   21.1389   60.4454 C.3       2 GLC5        0.0000 
@<TRIPOS>BOND
@<TRIPOS>SUBSTRUCTURE
     1 SEC2       47 GROUP        1 X    SEC  0     ROOT SEC X 2
     2 GLC5        1 GROUP        1 X    GLC  0     **** GLC X 6
     3 SEP2       49 GROUP        1 Y    SEP  0     ROOT SEP Y 9
     4 GLP5        3 GROUP        1 Y    GLP  0     **** GLP Y 13
     5 SEL2       48 GROUP        1 Z    SEL  0     ROOT SEL Z 16
     6 GLL5        2 GROUP        1 Z    GLL  0     **** GLL Z 20
@<TRIPOS>SET

