#    Name: 2h8h_H8H_1_ligand
#    Modification time : Tue Mar 25 15:43:32 2014

@<TRIPOS>MOLECULE
2h8h_H8H_1_ligand
   71    76     1     0     0
SMALL
NO_CHARGES


@<TRIPOS>ATOM
      1 C1         27.1610   14.9190   60.1170 C.3       1 H8H534      0.0000 
      2 N2         27.1230   16.3700   59.8410 N.4       1 H8H534      0.0000 
      3 C3         26.4230   16.5910   58.5480 C.3       1 H8H534      0.0000 
      4 C4         26.3740   18.1100   58.2720 C.3       1 H8H534      0.0000 
      5 N5         25.7090   18.8430   59.3760 N.3       1 H8H534      0.0000 
      6 C6         26.0190   20.2400   59.1190 C.3       1 H8H534      0.0000 
      7 C7         24.7550   21.0440   58.8870 C.3       1 H8H534      0.0000 
      8 O8         23.6390   20.2030   59.0860 O.3       1 H8H534      0.0000 
      9 C9         22.5160   20.8860   58.7490 C.ar      1 H8H534      0.0000 
     10 C10        21.3050   20.1870   58.7360 C.ar      1 H8H534      0.0000 
     11 C11        20.1260   20.8250   58.3890 C.ar      1 H8H534      0.0000 
     12 O12        18.9230   20.1760   58.3460 O.3       1 H8H534      0.0000 
     13 C13        18.8930   18.9970   59.1450 C.3       1 H8H534      0.0000 
     14 C14        17.6710   19.1530   60.0500 C.3       1 H8H534      0.0000 
     15 C15        17.2150   17.8250   60.6710 C.3       1 H8H534      0.0000 
     16 O16        17.1820   16.7620   59.7110 O.3       1 H8H534      0.0000 
     17 C17        18.3720   16.5510   58.9550 C.3       1 H8H534      0.0000 
     18 C18        18.7040   17.8370   58.1730 C.3       1 H8H534      0.0000 
     19 C19        20.1480   22.2020   58.0760 C.ar      1 H8H534      0.0000 
     20 C20        18.9680   22.9450   57.7350 C.ar      1 H8H534      0.0000 
     21 N21        17.7110   22.3300   57.6890 N.pl3     1 H8H534      0.0000 
     22 C22        16.5270   23.0070   57.2880 C.ar      1 H8H534      0.0000 
     23 C23        16.4740   23.7090   56.0740 C.ar      1 H8H534      0.0000 
     24 O24        17.3970   23.9430   55.0710 O.3       1 H8H534      0.0000 
     25 C25        16.9720   25.1470   54.4240 C.3       1 H8H534      0.0000 
     26 O26        15.5540   24.9650   54.4830 O.3       1 H8H534      0.0000 
     27 C27        15.2960   24.3470   55.6850 C.ar      1 H8H534      0.0000 
     28 C28        14.1760   24.3080   56.4990 C.ar      1 H8H534      0.0000 
     29 C29        14.2070   23.6040   57.6940 C.ar      1 H8H534      0.0000 
     30 C30        15.3640   22.9490   58.0830 C.ar      1 H8H534      0.0000 
     31 CL3        15.3560   22.0940   59.6070 Cl        1 H8H534      0.0000 
     32 N32        19.1010   24.2560   57.4940 N.ar      1 H8H534      0.0000 
     33 C33        20.2600   24.8470   57.5280 C.ar      1 H8H534      0.0000 
     34 N34        21.3810   24.2100   57.8210 N.ar      1 H8H534      0.0000 
     35 C35        21.3850   22.9060   58.1070 C.ar      1 H8H534      0.0000 
     36 C36        22.5640   22.2410   58.4410 C.ar      1 H8H534      0.0000 
     37 C37        26.3440   18.5430   60.6840 C.3       1 H8H534      0.0000 
     38 C38        26.3870   17.0280   60.9570 C.3       1 H8H534      0.0000 
     39 H          28.1191   16.7521   59.7898 H         1 H8H534      0.0000 
     40 H          25.4082   16.2189   58.5930 H         1 H8H534      0.0000 
     41 H          26.9561   16.1133   57.7370 H         1 H8H534      0.0000 
     42 H          25.8385   18.2667   57.3295 H         1 H8H534      0.0000 
     43 H          27.4019   18.4644   58.1400 H         1 H8H534      0.0000 
     44 H          26.6607   20.3411   58.2320 H         1 H8H534      0.0000 
     45 H          26.5595   20.6828   59.9678 H         1 H8H534      0.0000 
     46 H          24.7932   21.4439   57.8679 H         1 H8H534      0.0000 
     47 H          24.7625   21.8903   59.5824 H         1 H8H534      0.0000 
     48 H          21.2961   19.1860   58.9884 H         1 H8H534      0.0000 
     49 H          19.7530   18.8711   59.7099 H         1 H8H534      0.0000 
     50 H          16.8433   19.5750   59.4673 H         1 H8H534      0.0000 
     51 H          17.9076   19.8587   60.8554 H         1 H8H534      0.0000 
     52 H          16.2201   17.9951   61.1209 H         1 H8H534      0.0000 
     53 H          17.9036   17.5964   61.5045 H         1 H8H534      0.0000 
     54 H          18.2596   15.7447   58.2271 H         1 H8H534      0.0000 
     55 H          19.2295   16.3243   59.5921 H         1 H8H534      0.0000 
     56 H          19.6159   17.6816   57.6098 H         1 H8H534      0.0000 
     57 H          17.8882   18.0585   57.4960 H         1 H8H534      0.0000 
     58 H          17.6300   21.3247   57.9609 H         1 H8H534      0.0000 
     59 H          17.3134   25.1806   53.4129 H         1 H8H534      0.0000 
     60 H          17.2724   26.0080   54.9794 H         1 H8H534      0.0000 
     61 H          13.3168   24.8030   56.2170 H         1 H8H534      0.0000 
     62 H          13.3689   23.5688   58.2916 H         1 H8H534      0.0000 
     63 H          20.3177   25.8964   57.3102 H         1 H8H534      0.0000 
     64 H          23.4531   22.7457   58.4588 H         1 H8H534      0.0000 
     65 H          25.7880   19.0216   61.4974 H         1 H8H534      0.0000 
     66 H          27.3707   18.9240   60.7066 H         1 H8H534      0.0000 
     67 H          26.8940   16.8615   61.8978 H         1 H8H534      0.0000 
     68 H          25.3719   16.6589   61.0134 H         1 H8H534      0.0000 
     69 H          27.6478   14.4175   59.4017 H         1 H8H534      0.0000 
     70 H          27.6214   14.7173   60.9815 H         1 H8H534      0.0000 
     71 H          26.2425   14.5280   60.1759 H         1 H8H534      0.0000 
@<TRIPOS>BOND
     1    2    1 1    
     2   69    1 1    
     3   70    1 1    
     4   71    1 1    
     5    3    2 1    
     6   38    2 1    
     7   39    2 1    
     8    4    3 1    
     9   40    3 1    
    10   41    3 1    
    11    5    4 1    
    12   42    4 1    
    13   43    4 1    
    14    6    5 1    
    15   37    5 1    
    16    7    6 1    
    17   44    6 1    
    18   45    6 1    
    19    8    7 1    
    20   46    7 1    
    21   47    7 1    
    22    9    8 1    
    23   10    9 ar   
    24   36    9 ar   
    25   11   10 ar   
    26   48   10 1    
    27   12   11 1    
    28   19   11 ar   
    29   13   12 1    
    30   14   13 1    
    31   18   13 1    
    32   49   13 1    
    33   15   14 1    
    34   50   14 1    
    35   51   14 1    
    36   16   15 1    
    37   52   15 1    
    38   53   15 1    
    39   17   16 1    
    40   18   17 1    
    41   54   17 1    
    42   55   17 1    
    43   56   18 1    
    44   57   18 1    
    45   20   19 ar   
    46   35   19 ar   
    47   21   20 1    
    48   32   20 ar   
    49   22   21 1    
    50   58   21 1    
    51   23   22 ar   
    52   30   22 ar   
    53   24   23 1    
    54   27   23 ar   
    55   25   24 1    
    56   26   25 1    
    57   59   25 1    
    58   60   25 1    
    59   27   26 1    
    60   28   27 ar   
    61   29   28 ar   
    62   61   28 1    
    63   30   29 ar   
    64   62   29 1    
    65   31   30 1    
    66   33   32 ar   
    67   34   33 ar   
    68   63   33 1    
    69   35   34 ar   
    70   36   35 ar   
    71   64   36 1    
    72   38   37 1    
    73   65   37 1    
    74   66   37 1    
    75   67   38 1    
    76   68   38 1    
@<TRIPOS>SUBSTRUCTURE
     1 H8H534      1 GROUP   
@<TRIPOS>SET

