#    Name: 3h5s_H5S_2_INTS_M
#    Modification time : Tue Mar 25 13:38:48 2014

@<TRIPOS>MOLECULE
3h5s_H5S_2_INTS_M
   70     0     6     0     0
SMALL
NO_CHARGES


@<TRIPOS>ATOM
      1 CA         34.2970   -6.4425   12.9840 C.3       2 GLC5        0.0000 
      2 CA         32.7780   -7.9740   12.8620 C.3       6 GLL5        0.0000 
      3 CA         35.8160   -4.9110   13.1060 C.3       4 GLP5        0.0000 
      4 CA         33.5060  -11.4010    8.4125 C.3       2 GLC5        0.0000 
      5 CA         33.6180  -10.3040   10.0440 C.3       6 GLL5        0.0000 
      6 CA         33.3940  -12.4980    6.7810 C.3       4 GLP5        0.0000 
      7 CA         34.8340   -8.5775    7.3020 C.3       2 GLC5        0.0000 
      8 CA         35.5930  -10.0990    8.4150 C.3       6 GLL5        0.0000 
      9 CA         34.0750   -7.0560    6.1890 C.3       4 GLP5        0.0000 
     10 N          32.6850   -4.5585   12.4665 N.am      1 SEC2        0.0000 
     11 N          32.2970   -5.7910   11.9230 N.am      5 SEL2        0.0000 
     12 N          33.0730   -3.3260   13.0100 N.am      3 SEP2        0.0000 
     13 CA         35.1645  -11.8025   17.7070 C.3       2 GLC5        0.0000 
     14 CA         33.8810  -10.4160   16.7920 C.3       6 GLL5        0.0000 
     15 CA         36.4480  -13.1890   18.6220 C.3       4 GLP5        0.0000 
     16 CA         29.9430   -5.5720    7.5780 C.3       2 GLC5        0.0000 
     17 CA         30.9870   -6.3650    9.2970 C.3       6 GLL5        0.0000 
     18 CA         28.8990   -4.7790    5.8590 C.3       4 GLP5        0.0000 
     19 CA         32.6475   -7.9075    7.4145 C.3       2 GLC5        0.0000 
     20 CA         31.2200   -8.7590    8.6400 C.3       6 GLL5        0.0000 
     21 CA         31.7900  -10.2060    7.5005 C.3       2 GLC5        0.0000 
     22 CA         32.3600  -11.6530    6.3610 C.3       4 GLP5        0.0000 
     23 CA         39.9305   -8.1025    7.7020 C.3       2 GLC5        0.0000 
     24 CA         39.0700   -8.9730    8.8140 C.3       6 GLL5        0.0000 
     25 CA         40.7910   -7.2320    6.5900 C.3       4 GLP5        0.0000 
     26 CA         38.5580   -8.6650    6.1300 C.3       2 GLC5        0.0000 
     27 CA         37.4450   -9.9680    6.7110 C.3       6 GLL5        0.0000 
     28 CA         39.6710   -7.3620    5.5490 C.3       4 GLP5        0.0000 
     29 CA         38.4300  -11.5085    6.3135 C.3       2 GLC5        0.0000 
     30 CA         39.4150  -13.0490    5.9160 C.3       4 GLP5        0.0000 
     31 CA         35.7600   -8.5120    6.4500 C.3       2 GLC5        0.0000 
     32 CA         35.9200  -11.4140    6.3040 C.3       2 GLC5        0.0000 
     33 CA         34.3950  -12.8600    5.8970 C.3       4 GLP5        0.0000 
     34 CA         35.0615  -11.8590   18.9555 C.3       2 GLC5        0.0000 
     35 CA         33.6750  -10.5290   19.2890 C.3       6 GLL5        0.0000 
     36 CA         34.2315   -7.0715   18.6020 C.3       2 GLC5        0.0000 
     37 CA         32.3640   -7.8370   19.1130 C.3       6 GLL5        0.0000 
     38 CA         36.0990   -6.3060   18.0910 C.3       4 GLP5        0.0000 
     39 CA         31.4310   -6.2140   19.4505 C.3       2 GLC5        0.0000 
     40 CA         30.4980   -4.5910   19.7880 C.3       4 GLP5        0.0000 
     41 N          32.8400   -8.7415   24.1150 N.am      1 SEC2        0.0000 
     42 N          33.1750   -8.6000   22.7260 N.am      5 SEL2        0.0000 
     43 N          32.5050   -8.8830   25.5040 N.am      3 SEP2        0.0000 
     44 N          34.4205   -9.7745   22.8105 N.am      1 SEC2        0.0000 
     45 N          35.6660  -10.9490   22.8950 N.am      3 SEP2        0.0000 
     46 CA         30.4870   -6.6365   23.7460 C.3       2 GLC5        0.0000 
     47 CA         30.7150   -7.8450   22.1180 C.3       6 GLL5        0.0000 
     48 CA         30.2590   -5.4280   25.3740 C.3       4 GLP5        0.0000 
     49 CA         30.6065   -6.2180   20.9530 C.3       2 GLC5        0.0000 
     50 CA         38.0228   -7.9495    7.2782 C.3       2 GLC5        0.0000 
     51 CA         37.7790   -9.2930    9.1090 C.3       6 GLL5        0.0000 
     52 CA         38.6930   -6.3610    5.9420 C.3       4 GLP5        0.0000 
     53 CA         36.6700  -10.7515   11.9450 C.3       2 GLC5        0.0000 
     54 CA         37.2880   -9.1430   10.4110 C.3       6 GLL5        0.0000 
     55 CA         36.7160  -12.1920   13.3400 C.3       4 GLP5        0.0000 
     56 CA         36.2963   -7.6886    9.4134 C.3       2 GLC5        0.0000 
     57 CA         36.1880   -5.9460    8.5210 C.3       4 GLP5        0.0000 
     58 CA         35.6045  -10.6557   15.4333 C.3       2 GLC5        0.0000 
     59 CA         33.6790   -9.7830   15.5710 C.3       6 GLL5        0.0000 
     60 CA         37.4290  -11.2120   14.6850 C.3       4 GLP5        0.0000 
     61 CA         32.7139   -6.4135    8.3626 C.3       2 GLC5        0.0000 
     62 CA         32.7490   -7.8230   10.5100 C.3       6 GLL5        0.0000 
     63 CA         33.9160   -5.7440    6.9940 C.3       4 GLP5        0.0000 
     64 CA         39.7094   -9.7728   10.1295 C.3       2 GLC5        0.0000 
     65 CA         41.1170  -10.4500   10.9720 C.3       4 GLP5        0.0000 
     66 CA         39.5446  -10.5343    8.1681 C.3       2 GLC5        0.0000 
     67 CA         40.8780  -11.8130    7.6220 C.3       4 GLP5        0.0000 
     68 CA         37.1996   -7.6007    8.6176 C.3       2 GLC5        0.0000 
     69 CA         34.8025   -9.5252   21.0075 C.3       2 GLC5        0.0000 
     70 CA         36.4510   -8.7390   22.2140 C.3       4 GLP5        0.0000 
@<TRIPOS>BOND
@<TRIPOS>SUBSTRUCTURE
     1 SEC2       10 GROUP        1 X    SEC  0     ROOT SEC X 2
     2 GLC5        1 GROUP        1 X    GLC  0     **** GLC X 6
     3 SEP2       12 GROUP        1 Y    SEP  0     ROOT SEP Y 9
     4 GLP5        3 GROUP        1 Y    GLP  0     **** GLP Y 13
     5 SEL2       11 GROUP        1 Z    SEL  0     ROOT SEL Z 16
     6 GLL5        2 GROUP        1 Z    GLL  0     **** GLL Z 20
@<TRIPOS>SET

