#    Name: 3h5s_H5S_2_ligand
#    Modification time : Tue Mar 25 13:38:48 2014

@<TRIPOS>MOLECULE
3h5s_H5S_2_ligand
   68    72     1     0     0
SMALL
NO_CHARGES


@<TRIPOS>ATOM
      1 C1         32.7490   -7.8230   10.5100 C.3       1 H5S571      0.0000 
      2 C3         33.1260   -9.2720   12.2590 C.2       1 H5S571      0.0000 
      3 C4         32.7780   -7.9740   12.8620 C.2       1 H5S571      0.0000 
      4 C5         32.6090   -7.0840   11.8210 C.2       1 H5S571      0.0000 
      5 C6         33.6180  -10.3040   10.0440 C.3       1 H5S571      0.0000 
      6 C7         35.0820   -9.9600    9.7120 C.ar      1 H5S571      0.0000 
      7 C8         35.5930  -10.0990    8.4150 C.ar      1 H5S571      0.0000 
      8 C9         36.9260   -9.7830    8.1200 C.ar      1 H5S571      0.0000 
      9 C10        37.7790   -9.2930    9.1090 C.ar      1 H5S571      0.0000 
     10 O13        32.2970   -5.7910   11.9230 O.co2     1 H5S571      0.0000 
     11 N2         33.1610   -9.1970   10.9050 N.am      1 H5S571      0.0000 
     12 C11        37.2880   -9.1430   10.4110 C.ar      1 H5S571      0.0000 
     13 C12        35.9600   -9.4790   10.6890 C.ar      1 H5S571      0.0000 
     14 O14        33.4340  -10.2710   12.8740 O.2       1 H5S571      0.0000 
     15 C15        32.6870   -7.6400   14.3200 C.2       1 H5S571      0.0000 
     16 S16        31.9630   -6.3840   16.2770 S.o2      1 H5S571      0.0000 
     17 N17        32.1100   -6.5200   14.6220 N.2       1 H5S571      0.0000 
     18 C18        32.6440   -7.9610   16.6930 C.ar      1 H5S571      0.0000 
     19 C19        33.0390   -8.5280   15.4670 C.ar      1 H5S571      0.0000 
     20 C20        33.6790   -9.7830   15.5710 C.ar      1 H5S571      0.0000 
     21 C21        33.8810  -10.4160   16.7920 C.ar      1 H5S571      0.0000 
     22 O22        32.8350   -5.3530   16.7360 O.2       1 H5S571      0.0000 
     23 O23        30.5810   -6.3240   16.6300 O.2       1 H5S571      0.0000 
     24 C24        31.3240   -7.7790    9.8210 C.3       1 H5S571      0.0000 
     25 C25        30.1700   -8.1310   10.7800 C.3       1 H5S571      0.0000 
     26 C26        30.9870   -6.3650    9.2970 C.3       1 H5S571      0.0000 
     27 C27        31.2200   -8.7590    8.6400 C.3       1 H5S571      0.0000 
     28 F28        39.0700   -8.9730    8.8140 F         1 H5S571      0.0000 
     29 C29        37.4450   -9.9680    6.7110 C.3       1 H5S571      0.0000 
     30 C30        32.8480   -8.5750   17.8950 C.ar      1 H5S571      0.0000 
     31 C31        33.4590   -9.8120   17.9700 C.ar      1 H5S571      0.0000 
     32 C32        33.6750  -10.5290   19.2890 C.3       1 H5S571      0.0000 
     33 C33        32.6330  -10.0940   20.3130 C.3       1 H5S571      0.0000 
     34 N34        32.5520   -8.6140   20.3570 N.pl3     1 H5S571      0.0000 
     35 C35        32.3640   -7.8370   19.1130 C.3       1 H5S571      0.0000 
     36 S36        32.5100   -7.7640   21.7730 S.o2      1 H5S571      0.0000 
     37 O37        33.1750   -8.6000   22.7260 O.2       1 H5S571      0.0000 
     38 O38        32.8980   -6.4730   21.4200 O.2       1 H5S571      0.0000 
     39 C39        30.7150   -7.8450   22.1180 C.3       1 H5S571      0.0000 
     40 H          33.4490   -7.3501    9.9097 H         1 H5S571      0.0000 
     41 H          33.5964  -11.2360   10.5662 H         1 H5S571      0.0000 
     42 H          33.0612  -10.3420    9.1328 H         1 H5S571      0.0000 
     43 H          34.9746  -10.4415    7.6605 H         1 H5S571      0.0000 
     44 H          37.8966   -8.7903   11.1525 H         1 H5S571      0.0000 
     45 H          35.6083   -9.3664   11.6663 H         1 H5S571      0.0000 
     46 H          34.0078  -10.2427   14.6963 H         1 H5S571      0.0000 
     47 H          34.3446  -11.3349   16.8233 H         1 H5S571      0.0000 
     48 H          34.6693  -10.2982   19.6697 H         1 H5S571      0.0000 
     49 H          33.5983  -11.6047   19.1349 H         1 H5S571      0.0000 
     50 H          32.9167  -10.4879   21.2898 H         1 H5S571      0.0000 
     51 H          31.6683  -10.5189   20.0326 H         1 H5S571      0.0000 
     52 H          31.2955   -7.5930   18.9810 H         1 H5S571      0.0000 
     53 H          32.9031   -6.8764   19.1857 H         1 H5S571      0.0000 
     54 H          30.2692   -9.0513   11.1585 H         1 H5S571      0.0000 
     55 H          30.1243   -7.4992   11.5538 H         1 H5S571      0.0000 
     56 H          29.2822   -8.0970   10.3210 H         1 H5S571      0.0000 
     57 H          30.9784   -5.6884   10.0333 H         1 H5S571      0.0000 
     58 H          31.6520   -6.0519    8.6190 H         1 H5S571      0.0000 
     59 H          30.0876   -6.3351    8.8609 H         1 H5S571      0.0000 
     60 H          31.8908   -8.5542    7.9272 H         1 H5S571      0.0000 
     61 H          31.3764   -9.7041    8.9268 H         1 H5S571      0.0000 
     62 H          30.3174   -8.7285    8.2105 H         1 H5S571      0.0000 
     63 H          38.4079   -9.7097    6.6330 H         1 H5S571      0.0000 
     64 H          37.3712  -10.9187    6.4099 H         1 H5S571      0.0000 
     65 H          36.9381   -9.4118    6.0525 H         1 H5S571      0.0000 
     66 H          30.3969   -8.7885   22.2109 H         1 H5S571      0.0000 
     67 H          30.4780   -7.3709   22.9660 H         1 H5S571      0.0000 
     68 H          30.1770   -7.4249   21.3872 H         1 H5S571      0.0000 
@<TRIPOS>BOND
     1    4    1 1    
     2   11    1 1    
     3   24    1 1    
     4   40    1 1    
     5    3    2 1    
     6   11    2 am   
     7   14    2 2    
     8    4    3 2    
     9   15    3 1    
    10   10    4 ar   
    11    6    5 1    
    12   11    5 1    
    13   41    5 1    
    14   42    5 1    
    15    7    6 ar   
    16   13    6 ar   
    17    8    7 ar   
    18   43    7 1    
    19    9    8 ar   
    20   29    8 1    
    21   12    9 ar   
    22   28    9 1    
    23   13   12 ar   
    24   44   12 1    
    25   45   13 1    
    26   17   15 2    
    27   19   15 1    
    28   17   16 1    
    29   18   16 1    
    30   22   16 2    
    31   23   16 2    
    32   19   18 ar   
    33   30   18 ar   
    34   20   19 ar   
    35   21   20 ar   
    36   46   20 1    
    37   31   21 ar   
    38   47   21 1    
    39   25   24 1    
    40   26   24 1    
    41   27   24 1    
    42   54   25 1    
    43   55   25 1    
    44   56   25 1    
    45   57   26 1    
    46   58   26 1    
    47   59   26 1    
    48   60   27 1    
    49   61   27 1    
    50   62   27 1    
    51   63   29 1    
    52   64   29 1    
    53   65   29 1    
    54   31   30 ar   
    55   35   30 1    
    56   32   31 1    
    57   33   32 1    
    58   48   32 1    
    59   49   32 1    
    60   34   33 1    
    61   50   33 1    
    62   51   33 1    
    63   35   34 1    
    64   36   34 1    
    65   52   35 1    
    66   53   35 1    
    67   37   36 2    
    68   38   36 2    
    69   39   36 1    
    70   66   39 1    
    71   67   39 1    
    72   68   39 1    
@<TRIPOS>SUBSTRUCTURE
     1 H5S571      1 GROUP   
@<TRIPOS>SET

