#    Name: 2y1o_T26_1_INTS_M
#    Modification time : Tue Mar 25 07:24:06 2014

@<TRIPOS>MOLECULE
2y1o_T26_1_INTS_M
   56     0    12     0     0
SMALL
NO_CHARGES


@<TRIPOS>ATOM
      1 N          -4.2635   33.1525   54.1320 N.am      2 SEC2        0.0000 
      2 N          -5.3310   32.1810   54.1340 N.am     10 SEL2        0.0000 
      3 N          -3.1960   34.1240   54.1300 N.am      6 SEP2        0.0000 
      4 N          -4.2045   31.2585   57.3070 N.am      2 SEC2        0.0000 
      5 N          -4.4270   31.3180   55.9330 N.am     10 SEL2        0.0000 
      6 N          -3.9820   31.1990   58.6810 N.am      6 SEP2        0.0000 
      7 N          -4.0975   32.5505   56.5655 N.am      2 SEC2        0.0000 
      8 N          -3.7680   33.7830   57.1980 N.am      6 SEP2        0.0000 
      9 CA         -6.0975   29.4315   56.8025 C.3       4 GLC5        0.0000 
     10 CA         -6.2500   30.1090   54.9630 C.3      12 GLL5        0.0000 
     11 CA         -5.9450   28.7540   58.6420 C.3       8 GLP5        0.0000 
     12 CA         -7.1840   31.2510   56.3765 C.3       4 GLC5        0.0000 
     13 CA         -8.1180   32.3930   57.7900 C.3       8 GLP5        0.0000 
     14 CA         -4.6665   30.6030   52.6525 C.3       4 GLC5        0.0000 
     15 CA         -6.1340   29.2490   53.6880 C.3      12 GLL5        0.0000 
     16 CA         -3.1990   31.9570   51.6170 C.3       8 GLP5        0.0000 
     17 NZ         -5.5820   28.0975   50.3920 N.4       3 LYC4        0.0000 
     18 NZ         -7.1980   27.9700   51.1270 N.4      11 LYL4        0.0000 
     19 NZ         -3.9660   28.2250   49.6570 N.4       7 LYP4        0.0000 
     20 CA        -14.8250   28.9330   50.9880 C.3       4 GLC5        0.0000 
     21 CA        -13.3230   29.4360   52.4790 C.3      12 GLL5        0.0000 
     22 CA        -16.3270   28.4300   49.4970 C.3       8 GLP5        0.0000 
     23 CA        -14.5960   30.2695   50.5110 C.3       4 GLC5        0.0000 
     24 CA        -13.2010   30.7770   52.1250 C.3      12 GLL5        0.0000 
     25 CA        -15.9910   29.7620   48.8970 C.3       8 GLP5        0.0000 
     26 CA        -11.8010   33.0940   50.2415 C.3       4 GLC5        0.0000 
     27 CA        -12.9130   33.7270   51.5330 C.3      12 GLL5        0.0000 
     28 CA        -10.6890   32.4610   48.9500 C.3       8 GLP5        0.0000 
     29 CA        -19.8720   35.2395   53.6400 C.3       4 GLC5        0.0000 
     30 CA        -18.7890   34.3340   55.0900 C.3      12 GLL5        0.0000 
     31 CA        -20.9550   36.1450   52.1900 C.3       8 GLP5        0.0000 
     32 CA        -23.0980   34.1210   54.8865 C.3       4 GLC5        0.0000 
     33 CA        -21.6740   34.6740   55.8690 C.3      12 GLL5        0.0000 
     34 CA        -24.5220   33.5680   53.9040 C.3       8 GLP5        0.0000 
     35 CA        -21.3145   35.4095   54.0295 C.3       4 GLC5        0.0000 
     36 CA        -22.3555   36.4185   55.9325 C.3       4 GLC5        0.0000 
     37 CA        -23.0370   38.1630   55.9960 C.3       8 GLP5        0.0000 
     38 CA        -22.4010   34.6170   57.7665 C.3       4 GLC5        0.0000 
     39 CA        -23.1280   34.5600   59.6640 C.3       8 GLP5        0.0000 
     40 CA        -23.7995   34.5100   56.5065 C.3       4 GLC5        0.0000 
     41 CA        -25.9250   34.3460   57.1440 C.3       8 GLP5        0.0000 
     42 CA        -22.4390   32.8300   56.3305 C.3       4 GLC5        0.0000 
     43 CA        -23.2040   30.9860   56.7920 C.3       8 GLP5        0.0000 
     44 O         -20.2025   35.0820   58.7015 O.2       1 ALC1        0.0000 
     45 O         -19.5430   34.8220   57.6150 O.2       9 ALL1        0.0000 
     46 O         -20.8620   35.3420   59.7880 O.2       5 ALP1        0.0000 
     47 CA         -4.2715   28.9635   54.5108 C.3       4 GLC5        0.0000 
     48 CA         -2.3510   28.2480   54.6960 C.3       8 GLP5        0.0000 
     49 CA        -15.0055   30.2067   53.0480 C.3       4 GLC5        0.0000 
     50 CA        -16.7490   30.3070   53.7940 C.3       8 GLP5        0.0000 
     51 CA        -11.5005   31.6981   50.6412 C.3       4 GLC5        0.0000 
     52 CA        -16.1185   32.1865   53.9231 C.3       4 GLC5        0.0000 
     53 CA        -15.1530   33.8200   52.5860 C.3      12 GLL5        0.0000 
     54 CA        -16.7233   36.2905   57.1590 C.3       4 GLC5        0.0000 
     55 CA        -16.2160   34.3910   56.1910 C.3      12 GLL5        0.0000 
     56 CA        -16.5620   38.1480   58.0620 C.3       8 GLP5        0.0000 
@<TRIPOS>BOND
@<TRIPOS>SUBSTRUCTURE
     1 ALC1       44 GROUP        1 X    ALC  0     ROOT ALC X 1
     2 SEC2        1 GROUP        1 X    SEC  0     **** SEC X 2
     3 LYC4       17 GROUP        1 X    LYC  0     **** LYC X 4
     4 GLC5        9 GROUP        1 X    GLC  0     **** GLC X 6
     5 ALP1       46 GROUP        1 Y    ALP  0     ROOT ALP Y 8
     6 SEP2        3 GROUP        1 Y    SEP  0     **** SEP Y 9
     7 LYP4       19 GROUP        1 Y    LYP  0     **** LYP Y 11
     8 GLP5       11 GROUP        1 Y    GLP  0     **** GLP Y 13
     9 ALL1       45 GROUP        1 Z    ALL  0     ROOT ALL Z 15
    10 SEL2        2 GROUP        1 Z    SEL  0     **** SEL Z 16
    11 LYL4       18 GROUP        1 Z    LYL  0     **** LYL Z 18
    12 GLL5       10 GROUP        1 Z    GLL  0     **** GLL Z 20
@<TRIPOS>SET

