#    Name: 2y1o_T26_1_ligand
#    Modification time : Tue Mar 25 07:24:06 2014

@<TRIPOS>MOLECULE
2y1o_T26_1_ligand
   53    55     1     0     0
SMALL
NO_CHARGES


@<TRIPOS>ATOM
      1 OE2        -5.3310   32.1810   54.1340 O.co2     1 T26500      0.0000 
      2 CD         -5.2680   31.2740   54.9930 C.2       1 T26500      0.0000 
      3 OE1        -4.4270   31.3180   55.9330 O.co2     1 T26500      0.0000 
      4 CG         -6.2500   30.1090   54.9630 C.3       1 T26500      0.0000 
      5 CB         -6.1340   29.2490   53.6880 C.3       1 T26500      0.0000 
      6 C          -7.1500   27.4470   52.2920 C.2       1 T26500      0.0000 
      7 OXT        -7.1980   27.9700   51.1270 O.co2     1 T26500      0.0000 
      8 O          -6.9180   26.2310   52.4900 O.co2     1 T26500      0.0000 
      9 N          -8.5350   29.1540   53.3570 N.am      1 T26500      0.0000 
     10 CAU        -9.7600   28.7780   53.7440 C.2       1 T26500      0.0000 
     11 OBC        -9.9110   27.8100   54.4760 O.2       1 T26500      0.0000 
     12 CAT       -10.9480   29.4860   53.2280 C.ar      1 T26500      0.0000 
     13 CAS       -10.8840   30.7730   52.8390 C.ar      1 T26500      0.0000 
     14 CAQ       -12.2500   28.7930   53.1040 C.ar      1 T26500      0.0000 
     15 CAR       -11.9620   31.4140   52.2410 C.ar      1 T26500      0.0000 
     16 CAO       -13.3230   29.4360   52.4790 C.ar      1 T26500      0.0000 
     17 CAP       -13.2010   30.7770   52.1250 C.ar      1 T26500      0.0000 
     18 CAA       -13.7750   33.9140   52.7120 C.ar      1 T26500      0.0000 
     19 CAN       -12.9130   33.7270   51.5330 C.3       1 T26500      0.0000 
     20 NAY       -11.7730   32.7670   51.7230 N.pl3     1 T26500      0.0000 
     21 CAC       -13.2060   34.1790   53.9490 C.ar      1 T26500      0.0000 
     22 CAE       -14.0160   34.3200   55.0630 C.ar      1 T26500      0.0000 
     23 CAB       -15.1530   33.8200   52.5860 C.ar      1 T26500      0.0000 
     24 CAG       -15.9710   33.9720   53.7110 C.ar      1 T26500      0.0000 
     25 CAF       -15.4140   34.2360   54.9560 C.ar      1 T26500      0.0000 
     26 CAH       -16.2160   34.3910   56.1910 C.2       1 T26500      0.0000 
     27 CAI       -17.5530   34.4750   56.3210 C.2       1 T26500      0.0000 
     28 SBG       -18.7890   34.3340   55.0900 S.3       1 T26500      0.0000 
     29 CAL       -19.9650   34.6570   56.3300 C.2       1 T26500      0.0000 
     30 SBH       -21.6740   34.6740   55.8690 S.2       1 T26500      0.0000 
     31 NAX       -19.5430   34.8220   57.6150 N.pl3     1 T26500      0.0000 
     32 CAK       -18.1870   34.7410   57.6220 C.2       1 T26500      0.0000 
     33 CA         -7.3450   28.3040   53.5210 C.3       1 T26500      0.0000 
     34 OBE       -17.5010   34.8700   58.6990 O.2       1 T26500      0.0000 
     35 H          -7.2751   30.4959   55.0325 H         1 T26500      0.0000 
     36 H          -6.0778   29.4660   55.8361 H         1 T26500      0.0000 
     37 H          -5.2239   28.6526   53.7419 H         1 T26500      0.0000 
     38 H          -6.0738   29.9047   52.8200 H         1 T26500      0.0000 
     39 H          -8.3581   30.0848   52.9117 H         1 T26500      0.0000 
     40 H         -10.0029   31.3242   52.9834 H         1 T26500      0.0000 
     41 H         -12.3267   27.8580   53.4817 H         1 T26500      0.0000 
     42 H         -14.1862   28.9248   52.2854 H         1 T26500      0.0000 
     43 H         -14.0141   31.2968   51.7808 H         1 T26500      0.0000 
     44 H         -12.4961   34.7118   51.2131 H         1 T26500      0.0000 
     45 H         -13.5286   33.3781   50.6697 H         1 T26500      0.0000 
     46 H         -10.8395   33.0877   51.4764 H         1 T26500      0.0000 
     47 H         -12.1854   34.2703   54.0372 H         1 T26500      0.0000 
     48 H         -13.5939   34.4899   55.9915 H         1 T26500      0.0000 
     49 H         -15.5788   33.6388   51.6684 H         1 T26500      0.0000 
     50 H         -16.9928   33.8868   53.6108 H         1 T26500      0.0000 
     51 H         -15.6002   34.4384   57.0835 H         1 T26500      0.0000 
     52 H         -20.1048   34.9689   58.3767 H         1 T26500      0.0000 
     53 H          -7.4236   27.7003   54.3858 H         1 T26500      0.0000 
@<TRIPOS>BOND
     1    2    1 ar   
     2    3    2 ar   
     3    4    2 1    
     4    5    4 1    
     5   35    4 1    
     6   36    4 1    
     7   33    5 1    
     8   37    5 1    
     9   38    5 1    
    10    7    6 ar   
    11    8    6 ar   
    12   33    6 1    
    13   10    9 am   
    14   33    9 1    
    15   39    9 1    
    16   11   10 2    
    17   12   10 1    
    18   13   12 ar   
    19   14   12 ar   
    20   15   13 ar   
    21   40   13 1    
    22   16   14 ar   
    23   41   14 1    
    24   17   15 ar   
    25   20   15 1    
    26   17   16 ar   
    27   42   16 1    
    28   43   17 1    
    29   19   18 1    
    30   21   18 ar   
    31   23   18 ar   
    32   20   19 1    
    33   44   19 1    
    34   45   19 1    
    35   46   20 1    
    36   22   21 ar   
    37   47   21 1    
    38   25   22 ar   
    39   48   22 1    
    40   24   23 ar   
    41   49   23 1    
    42   25   24 ar   
    43   50   24 1    
    44   26   25 1    
    45   27   26 2    
    46   51   26 1    
    47   28   27 1    
    48   32   27 1    
    49   29   28 1    
    50   30   29 2    
    51   31   29 1    
    52   32   31 1    
    53   52   31 1    
    54   34   32 2    
    55   53   33 1    
@<TRIPOS>SUBSTRUCTURE
     1 T26500      1 GROUP   
@<TRIPOS>SET

