#    Name: 1qlt_FAD_2_INTS_M
#    Modification time : Mon Mar 24 23:39:18 2014

@<TRIPOS>MOLECULE
1qlt_FAD_2_INTS_M
  115     0     9     0     0
SMALL
NO_CHARGES


@<TRIPOS>ATOM
      1 N          88.4395   34.8895   35.2360 N.am      2 SEC2        0.0000 
      2 N          88.4410   36.5690   35.6850 N.am      8 SEL2        0.0000 
      3 N          88.4380   33.2100   34.7870 N.am      5 SEP2        0.0000 
      4 N          90.1480   39.8155   35.5560 N.am      2 SEC2        0.0000 
      5 N          90.0280   38.4650   35.8480 N.am      8 SEL2        0.0000 
      6 N          90.2680   41.1660   35.2640 N.am      5 SEP2        0.0000 
      7 N          90.9405   38.9490   34.7125 N.am      2 SEC2        0.0000 
      8 N          91.8530   39.4330   33.5770 N.am      5 SEP2        0.0000 
      9 N          89.9715   38.0200   34.3990 N.am      2 SEC2        0.0000 
     10 N          89.9150   37.5750   32.9500 N.am      5 SEP2        0.0000 
     11 CA         91.3015   38.6485   39.0795 C.3       3 GLC5        0.0000 
     12 CA         89.2810   38.2560   38.6720 C.3       9 GLL5        0.0000 
     13 CA         93.3220   39.0410   39.4870 C.3       6 GLP5        0.0000 
     14 CA         85.4740   39.2315   41.9760 C.3       3 GLC5        0.0000 
     15 CA         86.4380   39.9740   40.0850 C.3       9 GLL5        0.0000 
     16 CA         84.5100   38.4890   43.8670 C.3       6 GLP5        0.0000 
     17 CA         89.7210   40.3845   41.7250 C.3       3 GLC5        0.0000 
     18 CA         87.7770   40.2440   40.6520 C.3       9 GLL5        0.0000 
     19 CA         91.6650   40.5250   42.7980 C.3       6 GLP5        0.0000 
     20 N          91.5035   41.7720   37.8265 N.am      2 SEC2        0.0000 
     21 N          90.3510   41.8140   38.5340 N.am      8 SEL2        0.0000 
     22 N          92.6560   41.7300   37.1190 N.am      5 SEP2        0.0000 
     23 CA         88.2775   44.7540   38.5330 C.3       3 GLC5        0.0000 
     24 CA         90.2030   44.2540   39.3340 C.3       9 GLL5        0.0000 
     25 CA         86.3520   45.2540   37.7320 C.3       6 GLP5        0.0000 
     26 CA         92.2910   43.5640   39.7390 C.3       3 GLC5        0.0000 
     27 CA         94.3790   42.8740   40.1440 C.3       6 GLP5        0.0000 
     28 CA         91.4490   45.0415   40.8370 C.3       3 GLC5        0.0000 
     29 CA         92.6950   45.8290   42.3400 C.3       6 GLP5        0.0000 
     30 O          91.9430   45.7625   38.9735 O.2       1 ALC1        0.0000 
     31 O          91.1510   44.7280   38.5500 O.2       7 ALL1        0.0000 
     32 O          92.7350   46.7970   39.3970 O.2       4 ALP1        0.0000 
     33 N          90.1425   46.1090   40.9040 N.am      2 SEC2        0.0000 
     34 N          89.4810   44.9810   40.2520 N.am      8 SEL2        0.0000 
     35 N          90.8040   47.2370   41.5560 N.am      5 SEP2        0.0000 
     36 CA         86.9560   44.8935   39.9430 C.3       3 GLC5        0.0000 
     37 CA         88.5370   44.4270   41.0540 C.3       9 GLL5        0.0000 
     38 CA         85.3750   45.3600   38.8320 C.3       6 GLP5        0.0000 
     39 CA         88.5735   46.3775   41.1880 C.3       3 GLC5        0.0000 
     40 CA         88.6100   48.3280   41.3220 C.3       6 GLP5        0.0000 
     41 CA         90.2490   44.9995   42.3515 C.3       3 GLC5        0.0000 
     42 CA         91.9610   45.5720   43.6490 C.3       6 GLP5        0.0000 
     43 CA         87.6005   43.8360   38.9485 C.3       3 GLC5        0.0000 
     44 CA         88.8490   42.4180   40.1650 C.3       9 GLL5        0.0000 
     45 CA         90.2570   41.4715   41.4815 C.3       3 GLC5        0.0000 
     46 N          92.2520   30.0470   41.6785 N.am      2 SEC2        0.0000 
     47 N          93.2290   29.2130   40.5710 N.am      8 SEL2        0.0000 
     48 N          91.2750   30.8810   42.7860 N.am      5 SEP2        0.0000 
     49 N          94.5930   31.3015   41.5120 N.am      2 SEC2        0.0000 
     50 N          94.2240   30.0730   42.3120 N.am      8 SEL2        0.0000 
     51 N          94.9620   32.5300   40.7120 N.am      5 SEP2        0.0000 
     52 N          95.0785   30.2350   43.5620 N.am      2 SEC2        0.0000 
     53 N          95.9330   30.3970   44.8120 N.am      5 SEP2        0.0000 
     54 N          92.7495   30.4770   42.5490 N.am      2 SEC2        0.0000 
     55 O          96.3675   28.3910   42.4000 O.2       1 ALC1        0.0000 
     56 O          95.1680   28.1710   41.5820 O.2       7 ALL1        0.0000 
     57 O          97.5670   28.6110   43.2180 O.2       4 ALP1        0.0000 
     58 N          96.9555   26.3475   39.6790 N.am      2 SEC2        0.0000 
     59 N          96.0310   26.2710   40.7710 N.am      8 SEL2        0.0000 
     60 N          97.8800   26.4240   38.5870 N.am      5 SEP2        0.0000 
     61 N          96.4550   25.4690   41.7280 N.am      2 SEC2        0.0000 
     62 N          96.8790   24.6670   42.6850 N.am      5 SEP2        0.0000 
     63 CA         91.2655   22.7320   35.7110 C.3       3 GLC5        0.0000 
     64 CA         92.2090   24.0310   34.9000 C.3       9 GLL5        0.0000 
     65 CA         90.3220   21.4330   36.5220 C.3       6 GLP5        0.0000 
     66 CA         90.7985   23.8170   33.4550 C.3       3 GLC5        0.0000 
     67 CA         89.3880   23.6030   32.0100 C.3       6 GLP5        0.0000 
     68 CA         88.9340   27.4560   34.0090 C.3       3 GLC5        0.0000 
     69 CA         90.0700   26.3030   34.6770 C.3       9 GLL5        0.0000 
     70 CA         87.7980   28.6090   33.3410 C.3       6 GLP5        0.0000 
     71 CA         89.7290   24.9530   33.3435 C.3       3 GLC5        0.0000 
     72 CA         89.6105   25.5055   36.5565 C.3       3 GLC5        0.0000 
     73 CA         89.1510   24.7080   38.4360 C.3       6 GLP5        0.0000 
     74 CA         89.4990   29.1870   40.2215 C.3       3 GLC5        0.0000 
     75 CA         91.0670   29.2410   38.9090 C.3       9 GLL5        0.0000 
     76 CA         87.9310   29.1330   41.5340 C.3       6 GLP5        0.0000 
     77 CA         89.7385   27.5565   38.7420 C.3       3 GLC5        0.0000 
     78 CA         88.4100   25.8720   38.5750 C.3       6 GLP5        0.0000 
     79 CA         89.6015   31.5005   36.9660 C.3       3 GLC5        0.0000 
     80 CA         91.1820   30.4110   37.8770 C.3       9 GLL5        0.0000 
     81 CA         88.0210   32.5900   36.0550 C.3       6 GLP5        0.0000 
     82 O          90.6475   30.7930   35.5390 O.2       1 ALC1        0.0000 
     83 O          91.1860   29.8010   36.5740 O.2       7 ALL1        0.0000 
     84 O          90.1090   31.7850   34.5040 O.2       4 ALP1        0.0000 
     85 N          91.3215   31.8690   40.5165 N.am      2 SEC2        0.0000 
     86 N          92.4860   31.3170   39.5670 N.am      8 SEL2        0.0000 
     87 N          90.1570   32.4210   41.4660 N.am      5 SEP2        0.0000 
     88 N          91.8805   31.0990   41.1765 N.am      2 SEC2        0.0000 
     89 CA         94.1965   33.1705   36.0275 C.3       3 GLC5        0.0000 
     90 CA         92.7570   32.3800   37.3810 C.3       9 GLL5        0.0000 
     91 CA         95.6360   33.9610   34.6740 C.3       6 GLP5        0.0000 
     92 N          94.5340   32.7270   39.1915 N.am      2 SEC2        0.0000 
     93 N          94.1060   32.9240   37.6710 N.am      8 SEL2        0.0000 
     94 CA         89.8425   33.0050   36.8565 C.3       3 GLC5        0.0000 
     95 CA         91.6640   33.4200   37.6580 C.3       9 GLL5        0.0000 
     96 N          94.4235   35.9510   36.2645 N.am      2 SEC2        0.0000 
     97 N          93.0980   35.6770   37.0550 N.am      8 SEL2        0.0000 
     98 N          95.7490   36.2250   35.4740 N.am      5 SEP2        0.0000 
     99 N          91.1415   35.2215   33.7365 N.am      2 SEC2        0.0000 
    100 N          92.4310   35.6230   34.6270 N.am      8 SEL2        0.0000 
    101 N          89.8520   34.8200   32.8460 N.am      5 SEP2        0.0000 
    102 N          94.0900   35.9240   35.0505 N.am      2 SEC2        0.0000 
    103 CA         88.9835   37.1448   40.7880 C.3       3 GLC5        0.0000 
    104 CA         89.3320   36.0670   42.4760 C.3       6 GLP5        0.0000 
    105 CA         94.9677   25.0230   37.5573 C.3       3 GLC5        0.0000 
    106 CA         93.0750   26.2530   37.8310 C.3       9 GLL5        0.0000 
    107 CA         96.8920   24.2960   37.7670 C.3       6 GLP5        0.0000 
    108 CA         94.1148   26.1025   35.6547 C.3       3 GLC5        0.0000 
    109 CA         93.0120   25.2470   36.8640 C.3       9 GLL5        0.0000 
    110 CA         95.1860   26.4550   33.9620 C.3       6 GLP5        0.0000 
    111 CA         93.0140   25.7342   34.3350 C.3       3 GLC5        0.0000 
    112 CA         92.1010   25.1980   35.8560 C.3       9 GLL5        0.0000 
    113 CA         93.8730   26.8540   33.2920 C.3       6 GLP5        0.0000 
    114 CA         92.3837   26.8165   34.6262 C.3       3 GLC5        0.0000 
    115 CA         91.1380   26.2470   35.7530 C.3       9 GLL5        0.0000 
@<TRIPOS>BOND
@<TRIPOS>SUBSTRUCTURE
     1 ALC1       30 GROUP        1 X    ALC  0     ROOT ALC X 1
     2 SEC2        1 GROUP        1 X    SEC  0     **** SEC X 2
     3 GLC5       11 GROUP        1 X    GLC  0     **** GLC X 6
     4 ALP1       32 GROUP        1 Y    ALP  0     ROOT ALP Y 8
     5 SEP2        3 GROUP        1 Y    SEP  0     **** SEP Y 9
     6 GLP5       13 GROUP        1 Y    GLP  0     **** GLP Y 13
     7 ALL1       31 GROUP        1 Z    ALL  0     ROOT ALL Z 15
     8 SEL2        2 GROUP        1 Z    SEL  0     **** SEL Z 16
     9 GLL5       12 GROUP        1 Z    GLL  0     **** GLL Z 20
@<TRIPOS>SET

