#    Name: 1qlt_FAD_2_ligand
#    Modification time : Mon Mar 24 23:39:19 2014

@<TRIPOS>MOLECULE
1qlt_FAD_2_ligand
   84    89     1     0     0
SMALL
NO_CHARGES


@<TRIPOS>ATOM
      1 PA         89.6740   37.2320   36.2860 P.3       1 FAD600      0.0000 
      2 O1A        88.4410   36.5690   35.6850 O.co2     1 FAD600      0.0000 
      3 O2A        90.0280   38.4650   35.8480 O.co2     1 FAD600      0.0000 
      4 O5B        89.0620   37.2420   37.6760 O.3       1 FAD600      0.0000 
      5 C5B        89.2810   38.2560   38.6720 C.3       1 FAD600      0.0000 
      6 C4B        87.9890   38.1890   39.5280 C.3       1 FAD600      0.0000 
      7 O4B        88.4400   38.9140   40.7470 O.3       1 FAD600      0.0000 
      8 C3B        86.7430   38.9150   39.0290 C.3       1 FAD600      0.0000 
      9 O3B        85.6130   38.1640   38.6890 O.3       1 FAD600      0.0000 
     10 C2B        86.4380   39.9740   40.0850 C.3       1 FAD600      0.0000 
     11 O2B        85.6430   39.3730   41.0860 O.3       1 FAD600      0.0000 
     12 C1B        87.7770   40.2440   40.6520 C.3       1 FAD600      0.0000 
     13 N9A        88.7340   41.0430   39.8840 N.pl3     1 FAD600      0.0000 
     14 C8A        89.6520   40.7240   38.9080 C.2       1 FAD600      0.0000 
     15 N7A        90.3510   41.8140   38.5340 N.2       1 FAD600      0.0000 
     16 C5A        89.8520   42.8350   39.2880 C.ar      1 FAD600      0.0000 
     17 C6A        90.2030   44.2540   39.3340 C.ar      1 FAD600      0.0000 
     18 N6A        91.1510   44.7280   38.5500 N.pl3     1 FAD600      0.0000 
     19 N1A        89.4810   44.9810   40.2520 N.ar      1 FAD600      0.0000 
     20 C2A        88.5370   44.4270   41.0540 C.ar      1 FAD600      0.0000 
     21 N3A        88.1190   43.1410   41.0740 N.ar      1 FAD600      0.0000 
     22 C4A        88.8490   42.4180   40.1650 C.ar      1 FAD600      0.0000 
     23 N1         93.2290   29.2130   40.5710 N.2       1 FAD600      0.0000 
     24 C2         94.1880   29.2120   41.4920 C.2       1 FAD600      0.0000 
     25 O2         94.2240   30.0730   42.3120 O.2       1 FAD600      0.0000 
     26 N3         95.1680   28.1710   41.5820 N.am      1 FAD600      0.0000 
     27 C4         95.1560   27.1260   40.6790 C.2       1 FAD600      0.0000 
     28 O4         96.0310   26.2710   40.7710 O.2       1 FAD600      0.0000 
     29 C4X        94.1290   27.1420   39.6750 C.2       1 FAD600      0.0000 
     30 N5         94.0720   26.1500   38.7680 N.2       1 FAD600      0.0000 
     31 C5X        93.0750   26.2530   37.8310 C.ar      1 FAD600      0.0000 
     32 C6         93.0120   25.2470   36.8640 C.ar      1 FAD600      0.0000 
     33 C7         92.1010   25.1980   35.8560 C.ar      1 FAD600      0.0000 
     34 C7M        92.2090   24.0310   34.9000 C.3       1 FAD600      0.0000 
     35 C8         91.1380   26.2470   35.7530 C.ar      1 FAD600      0.0000 
     36 C8M        90.0700   26.3030   34.6770 C.3       1 FAD600      0.0000 
     37 C9         91.1850   27.2830   36.7060 C.ar      1 FAD600      0.0000 
     38 C9A        92.1210   27.2890   37.7390 C.ar      1 FAD600      0.0000 
     39 N10        92.1780   28.2670   38.7600 N.pl3     1 FAD600      0.0000 
     40 C10        93.1490   28.2130   39.6760 C.2       1 FAD600      0.0000 
     41 C1'        91.0670   29.2410   38.9090 C.3       1 FAD600      0.0000 
     42 C2'        91.1820   30.4110   37.8770 C.3       1 FAD600      0.0000 
     43 O2'        91.1860   29.8010   36.5740 O.3       1 FAD600      0.0000 
     44 C3'        92.5250   31.0820   38.1570 C.3       1 FAD600      0.0000 
     45 O3'        92.4860   31.3170   39.5670 O.3       1 FAD600      0.0000 
     46 C4'        92.7570   32.3800   37.3810 C.3       1 FAD600      0.0000 
     47 O4'        94.1060   32.9240   37.6710 O.3       1 FAD600      0.0000 
     48 C5'        91.6640   33.4200   37.6580 C.3       1 FAD600      0.0000 
     49 O5'        91.3340   34.2510   36.3130 O.3       1 FAD600      0.0000 
     50 P          92.0130   35.5970   35.9630 P.3       1 FAD600      0.0000 
     51 O1P        93.0980   35.6770   37.0550 O.co2     1 FAD600      0.0000 
     52 O2P        92.4310   35.6230   34.6270 O.co2     1 FAD600      0.0000 
     53 O3P        91.0700   36.5850   36.3940 O.3       1 FAD600      0.0000 
     54 H          89.3446   39.2337   38.2520 H         1 FAD600      0.0000 
     55 H          90.1065   38.0319   39.3080 H         1 FAD600      0.0000 
     56 H          87.7918   37.1902   39.7924 H         1 FAD600      0.0000 
     57 H          87.0974   39.5245   38.1407 H         1 FAD600      0.0000 
     58 H          86.0425   40.8065   39.6383 H         1 FAD600      0.0000 
     59 H          87.6966   40.6142   41.6626 H         1 FAD600      0.0000 
     60 H          89.7681   39.8248   38.5467 H         1 FAD600      0.0000 
     61 H          91.2348   44.2977   37.6513 H         1 FAD600      0.0000 
     62 H          91.7000   45.4747   38.9254 H         1 FAD600      0.0000 
     63 H          88.0580   45.1025   41.7690 H         1 FAD600      0.0000 
     64 H          95.8701   28.2225   42.3262 H         1 FAD600      0.0000 
     65 H          93.7365   24.4687   36.9342 H         1 FAD600      0.0000 
     66 H          90.5017   28.0602   36.6319 H         1 FAD600      0.0000 
     67 H          91.0687   29.6813   39.9100 H         1 FAD600      0.0000 
     68 H          90.1006   28.7542   38.7511 H         1 FAD600      0.0000 
     69 H          90.3985   31.0696   38.0371 H         1 FAD600      0.0000 
     70 H          93.3018   30.3723   37.9239 H         1 FAD600      0.0000 
     71 H          92.7067   32.1305   36.3076 H         1 FAD600      0.0000 
     72 H          91.9943   34.1273   38.3987 H         1 FAD600      0.0000 
     73 H          90.7534   32.9378   37.9682 H         1 FAD600      0.0000 
     74 H          93.0953   24.0107   34.4373 H         1 FAD600      0.0000 
     75 H          92.1037   23.1547   35.3702 H         1 FAD600      0.0000 
     76 H          91.5076   24.0678   34.1882 H         1 FAD600      0.0000 
     77 H          90.4678   26.3329   33.7600 H         1 FAD600      0.0000 
     78 H          89.4679   25.5052   34.7094 H         1 FAD600      0.0000 
     79 H          89.4899   27.1120   34.7713 H         1 FAD600      0.0000 
     80 H          85.0421   38.7845   38.1513 H         1 FAD600      0.0000 
     81 H          85.1989   38.5995   40.6339 H         1 FAD600      0.0000 
     82 H          90.8256   30.5023   35.9590 H         1 FAD600      0.0000 
     83 H          92.2427   30.4346   39.9697 H         1 FAD600      0.0000 
     84 H          94.0127   33.9145   37.5698 H         1 FAD600      0.0000 
@<TRIPOS>BOND
     1    2    1 ar   
     2    3    1 ar   
     3    4    1 1    
     4   53    1 1    
     5    5    4 1    
     6    6    5 1    
     7   54    5 1    
     8   55    5 1    
     9    7    6 1    
    10    8    6 1    
    11   56    6 1    
    12   12    7 1    
    13    9    8 1    
    14   10    8 1    
    15   57    8 1    
    16   80    9 1    
    17   11   10 1    
    18   12   10 1    
    19   58   10 1    
    20   81   11 1    
    21   13   12 1    
    22   59   12 1    
    23   14   13 1    
    24   22   13 1    
    25   15   14 2    
    26   60   14 1    
    27   16   15 1    
    28   17   16 ar   
    29   22   16 ar   
    30   18   17 1    
    31   19   17 ar   
    32   61   18 1    
    33   62   18 1    
    34   20   19 ar   
    35   21   20 ar   
    36   63   20 1    
    37   22   21 ar   
    38   24   23 1    
    39   40   23 2    
    40   25   24 2    
    41   26   24 am   
    42   27   26 am   
    43   64   26 1    
    44   28   27 2    
    45   29   27 1    
    46   30   29 2    
    47   40   29 1    
    48   31   30 1    
    49   32   31 ar   
    50   38   31 ar   
    51   33   32 ar   
    52   65   32 1    
    53   34   33 1    
    54   35   33 ar   
    55   74   34 1    
    56   75   34 1    
    57   76   34 1    
    58   36   35 1    
    59   37   35 ar   
    60   77   36 1    
    61   78   36 1    
    62   79   36 1    
    63   38   37 ar   
    64   66   37 1    
    65   39   38 1    
    66   40   39 1    
    67   41   39 1    
    68   42   41 1    
    69   67   41 1    
    70   68   41 1    
    71   43   42 1    
    72   44   42 1    
    73   69   42 1    
    74   82   43 1    
    75   45   44 1    
    76   46   44 1    
    77   70   44 1    
    78   83   45 1    
    79   47   46 1    
    80   48   46 1    
    81   71   46 1    
    82   84   47 1    
    83   49   48 1    
    84   72   48 1    
    85   73   48 1    
    86   50   49 1    
    87   51   50 ar   
    88   52   50 ar   
    89   53   50 1    
@<TRIPOS>SUBSTRUCTURE
     1 FAD600      1 GROUP   
@<TRIPOS>SET

