#    Name: 2ya3_J7V_1_INTS_M
#    Modification time : Tue Mar 25 07:59:13 2014

@<TRIPOS>MOLECULE
2ya3_J7V_1_INTS_M
  108     0    12     0     0
SMALL
NO_CHARGES


@<TRIPOS>ATOM
      1 NZ          3.8040    8.3165   23.8790 N.4       3 LYC4        0.0000 
      2 NZ          3.9170    7.4340   25.3990 N.4      11 LYL4        0.0000 
      3 NZ          3.6910    9.1990   22.3590 N.4       7 LYP4        0.0000 
      4 N           4.4170    6.9765   26.6750 N.am      2 SEC2        0.0000 
      5 N           3.9170    7.4340   25.3990 N.am     10 SEL2        0.0000 
      6 N           4.9170    6.5190   27.9510 N.am      6 SEP2        0.0000 
      7 N           5.2105    6.6985   25.2540 N.am      2 SEC2        0.0000 
      8 N           6.5040    5.9630   25.1090 N.am      6 SEP2        0.0000 
      9 N           4.8475    8.0860   25.0410 N.am      2 SEC2        0.0000 
     10 N           5.7780    8.7380   24.6830 N.am      6 SEP2        0.0000 
     11 NZ          0.0465    6.1385   24.7435 N.4       3 LYC4        0.0000 
     12 NZ          1.5680    6.5280   25.4540 N.4      11 LYL4        0.0000 
     13 NZ         -2.0210    5.7530   25.2410 N.4       7 LYP4        0.0000 
     14 N           0.0855    6.4505   25.8480 N.am      2 SEC2        0.0000 
     15 N           1.5680    6.5280   25.4540 N.am     10 SEL2        0.0000 
     16 N          -1.3970    6.3730   26.2420 N.am      6 SEP2        0.0000 
     17 N           0.0465    6.1385   24.7435 N.am      2 SEC2        0.0000 
     18 N          -1.4750    5.7490   24.0330 N.am      6 SEP2        0.0000 
     19 NZ          2.8695    8.9325   23.2605 N.4       3 LYC4        0.0000 
     20 NZ          2.0480    8.6660   24.1620 N.4      11 LYL4        0.0000 
     21 N           2.8695    8.9325   23.2605 N.am      2 SEC2        0.0000 
     22 N           2.0480    8.6660   24.1620 N.am     10 SEL2        0.0000 
     23 N           3.6910    9.1990   22.3590 N.am      6 SEP2        0.0000 
     24 N           0.3870   11.1350   27.7260 N.am      2 SEC2        0.0000 
     25 N           1.5140   10.4230   28.0750 N.am     10 SEL2        0.0000 
     26 N          -0.7400   11.8470   27.3770 N.am      6 SEP2        0.0000 
     27 N           1.7820   11.2650   25.1115 N.am      2 SEC2        0.0000 
     28 N           2.7370   10.9780   25.8790 N.am     10 SEL2        0.0000 
     29 N           0.8270   11.5520   24.3440 N.am      6 SEP2        0.0000 
     30 CA          5.8000    9.6890   26.7785 C.3       4 GLC5        0.0000 
     31 CA          4.7660   10.9830   27.9660 C.3      12 GLL5        0.0000 
     32 CA          6.8340    8.3950   25.5910 C.3       8 GLP5        0.0000 
     33 CA          6.7515   10.1835   27.3990 C.3       4 GLC5        0.0000 
     34 CA          5.6330   10.8410   29.2130 C.3      12 GLL5        0.0000 
     35 CA          7.8700    9.5260   25.5850 C.3       8 GLP5        0.0000 
     36 CA          6.4860    8.9080   27.5260 C.3       4 GLC5        0.0000 
     37 CA          6.1380    9.4210   29.4610 C.3      12 GLL5        0.0000 
     38 CA          4.1770    7.5025   29.9705 C.3       4 GLC5        0.0000 
     39 CA          5.4560    8.9640   30.7490 C.3      12 GLL5        0.0000 
     40 CA          2.8980    6.0410   29.1920 C.3       8 GLP5        0.0000 
     41 O           7.6050    7.3550   31.2930 O.2       1 ALC1        0.0000 
     42 O           6.3260    8.2130   31.6100 O.2       9 ALL1        0.0000 
     43 O           8.8840    6.4970   30.9760 O.2       5 ALP1        0.0000 
     44 O           6.6320    7.0465   30.8975 O.2       1 ALC1        0.0000 
     45 O           6.9380    5.8800   30.1850 O.2       5 ALP1        0.0000 
     46 CA          3.6445   11.6430   31.0245 C.3       4 GLC5        0.0000 
     47 CA          4.8960   10.2360   31.3870 C.3      12 GLL5        0.0000 
     48 CA          2.3930   13.0500   30.6620 C.3       8 GLP5        0.0000 
     49 CA          0.7330    9.7270   35.8135 C.3       4 GLC5        0.0000 
     50 CA          0.8720   10.6750   34.1010 C.3      12 GLL5        0.0000 
     51 CA          0.5940    8.7790   37.5260 C.3       8 GLP5        0.0000 
     52 CA          0.0290   12.3545   34.9515 C.3       4 GLC5        0.0000 
     53 CA         -0.8140   14.0340   35.8020 C.3       8 GLP5        0.0000 
     54 O          -1.2300   10.1535   32.9340 O.2       1 ALC1        0.0000 
     55 O          -0.4600   10.4460   34.1380 O.2       9 ALL1        0.0000 
     56 O          -2.0000    9.8610   31.7300 O.2       5 ALP1        0.0000 
     57 O          -1.2680   10.8740   35.2065 O.2       1 ALC1        0.0000 
     58 O          -2.0760   11.3020   36.2750 O.2       5 ALP1        0.0000 
     59 N           0.8730   11.8885   36.3130 N.am      2 SEC2        0.0000 
     60 N           1.4920   11.2550   35.1580 N.am     10 SEL2        0.0000 
     61 N           0.2540   12.5220   37.4680 N.am      6 SEP2        0.0000 
     62 CA          2.3495   11.4715   37.0185 C.3       4 GLC5        0.0000 
     63 CA          2.8140   11.4930   35.1320 C.3      12 GLL5        0.0000 
     64 CA          1.8850   11.4500   38.9050 C.3       8 GLP5        0.0000 
     65 CA          1.5940   13.2385   35.4995 C.3       4 GLC5        0.0000 
     66 CA          0.3740   14.9840   35.8670 C.3       8 GLP5        0.0000 
     67 CA          2.5595    8.4925   33.1705 C.3       4 GLC5        0.0000 
     68 CA          2.9820   10.5760   32.9770 C.3      12 GLL5        0.0000 
     69 CA          2.1370    6.4090   33.3640 C.3       8 GLP5        0.0000 
     70 CA          2.6875   11.8130   31.8195 C.3       4 GLC5        0.0000 
     71 CA         18.3140    8.3275   28.2190 C.3       4 GLC5        0.0000 
     72 CA         17.1980    9.5510   29.3290 C.3      12 GLL5        0.0000 
     73 CA         19.4300    7.1040   27.1090 C.3       8 GLP5        0.0000 
     74 CA         16.3760    7.8995   29.5145 C.3       4 GLC5        0.0000 
     75 CA         15.5540    6.2480   29.7000 C.3       8 GLP5        0.0000 
     76 N           7.5670   10.8545   32.5615 N.am      2 SEC2        0.0000 
     77 N           7.8770   11.1050   31.2290 N.am     10 SEL2        0.0000 
     78 N           7.2570   10.6040   33.8940 N.am      6 SEP2        0.0000 
     79 N          10.6915    9.0395   27.3390 N.am      2 SEC2        0.0000 
     80 N           9.8400    8.6220   28.6880 N.am     10 SEL2        0.0000 
     81 N          11.5430    9.4570   25.9900 N.am      6 SEP2        0.0000 
     82 CA         11.1690   10.7775   32.5695 C.3       4 GLC5        0.0000 
     83 CA         10.5790   11.4970   30.6610 C.3      12 GLL5        0.0000 
     84 CA         11.7590   10.0580   34.4780 C.3       8 GLP5        0.0000 
     85 CA         16.0285   11.3665   31.3455 C.3       4 GLC5        0.0000 
     86 CA         16.9870   12.7190   30.1340 C.3      12 GLL5        0.0000 
     87 CA         15.0700   10.0140   32.5570 C.3       8 GLP5        0.0000 
     88 CA         10.8390    9.2625   31.6155 C.3       4 GLC5        0.0000 
     89 CA          9.8250   10.4650   30.0910 C.3      12 GLL5        0.0000 
     90 CA         11.8530    8.0600   33.1400 C.3       8 GLP5        0.0000 
     91 CA          3.7962   11.9810   29.6258 C.3       4 GLC5        0.0000 
     92 CA          1.0595    8.7318   33.7840 C.3       4 GLC5        0.0000 
     93 CA          1.6200   10.3240   32.9790 C.3      12 GLL5        0.0000 
     94 CA          0.8730    6.9640   34.0280 C.3       8 GLP5        0.0000 
     95 CA          1.1095   11.5473   32.0140 C.3       4 GLC5        0.0000 
     96 CA          0.9730   12.5950   30.4880 C.3       8 GLP5        0.0000 
     97 CA         15.9953   10.0842   30.7593 C.3       4 GLC5        0.0000 
     98 CA         16.6430   10.7580   28.5940 C.3      12 GLL5        0.0000 
     99 CA         14.2447   11.3222   31.6933 C.3       4 GLC5        0.0000 
    100 CA         14.1050   12.6610   30.6880 C.3      12 GLL5        0.0000 
    101 CA         13.2807   13.4663   32.5533 C.3       4 GLC5        0.0000 
    102 CA         13.1420   14.3020   34.2770 C.3       8 GLP5        0.0000 
    103 CA         13.2142    9.2278   27.9580 C.3       4 GLC5        0.0000 
    104 CA         12.5450   10.6530   29.5670 C.3      12 GLL5        0.0000 
    105 CA         13.2040    7.7710   26.4900 C.3       8 GLP5        0.0000 
    106 CA         14.6870   10.6150   31.0595 C.3       4 GLC5        0.0000 
    107 CA         13.9040   10.7160   29.2850 C.3      12 GLL5        0.0000 
    108 CA         13.6583   10.5675   31.2722 C.3       4 GLC5        0.0000 
@<TRIPOS>BOND
@<TRIPOS>SUBSTRUCTURE
     1 ALC1       41 GROUP        1 X    ALC  0     ROOT ALC X 1
     2 SEC2        4 GROUP        1 X    SEC  0     **** SEC X 2
     3 LYC4        1 GROUP        1 X    LYC  0     **** LYC X 4
     4 GLC5       30 GROUP        1 X    GLC  0     **** GLC X 6
     5 ALP1       43 GROUP        1 Y    ALP  0     ROOT ALP Y 8
     6 SEP2        6 GROUP        1 Y    SEP  0     **** SEP Y 9
     7 LYP4        3 GROUP        1 Y    LYP  0     **** LYP Y 11
     8 GLP5       32 GROUP        1 Y    GLP  0     **** GLP Y 13
     9 ALL1       42 GROUP        1 Z    ALL  0     ROOT ALL Z 15
    10 SEL2        5 GROUP        1 Z    SEL  0     **** SEL Z 16
    11 LYL4        2 GROUP        1 Z    LYL  0     **** LYL Z 18
    12 GLL5       31 GROUP        1 Z    GLL  0     **** GLL Z 20
@<TRIPOS>SET

