#    Name: 2ya3_J7V_1_ligand
#    Modification time : Tue Mar 25 07:59:13 2014

@<TRIPOS>MOLECULE
2ya3_J7V_1_ligand
   71    75     1     0     0
SMALL
NO_CHARGES


@<TRIPOS>ATOM
      1 PBR         2.4520    7.7430   25.2850 P.3       1 J7V1325     0.0000 
      2 OAI         3.9170    7.4340   25.3990 O.co2     1 J7V1325     0.0000 
      3 OAF         1.5680    6.5280   25.4540 O.co2     1 J7V1325     0.0000 
      4 OAJ         2.0480    8.6660   24.1620 O.co2     1 J7V1325     0.0000 
      5 PBS         2.5290   10.0420   27.0360 P.3       1 J7V1325     0.0000 
      6 OAK         1.5140   10.4230   28.0750 O.co2     1 J7V1325     0.0000 
      7 OAG         2.7370   10.9780   25.8790 O.co2     1 J7V1325     0.0000 
      8 OBA         2.0970    8.5590   26.6140 O.3       1 J7V1325     0.0000 
      9 OAY         3.9390    9.8360   27.7590 O.3       1 J7V1325     0.0000 
     10 CAT         4.7660   10.9830   27.9660 C.3       1 J7V1325     0.0000 
     11 CBM         5.6330   10.8410   29.2130 C.3       1 J7V1325     0.0000 
     12 OAZ         4.9390   11.2640   30.3910 O.3       1 J7V1325     0.0000 
     13 CBN         6.1380    9.4210   29.4610 C.3       1 J7V1325     0.0000 
     14 CBL         5.4560    8.9640   30.7490 C.3       1 J7V1325     0.0000 
     15 OAH         6.3260    8.2130   31.6100 O.3       1 J7V1325     0.0000 
     16 CBO         4.8960   10.2360   31.3870 C.3       1 J7V1325     0.0000 
     17 N9          3.4720   10.1400   31.8120 N.pl3     1 J7V1325     0.0000 
     18 C8          2.4560    9.6400   31.0910 C.2       1 J7V1325     0.0000 
     19 N7          1.3130    9.7470   31.8010 N.2       1 J7V1325     0.0000 
     20 C5          1.6200   10.3240   32.9790 C.ar      1 J7V1325     0.0000 
     21 C6          0.8720   10.6750   34.1010 C.ar      1 J7V1325     0.0000 
     22 N6         -0.4600   10.4460   34.1380 N.pl3     1 J7V1325     0.0000 
     23 N1          1.4920   11.2550   35.1580 N.ar      1 J7V1325     0.0000 
     24 C2          2.8140   11.4930   35.1320 C.ar      1 J7V1325     0.0000 
     25 N3          3.5550   11.1630   34.0630 N.ar      1 J7V1325     0.0000 
     26 C4          2.9820   10.5760   32.9770 C.ar      1 J7V1325     0.0000 
     27 CAA        17.1980    9.5510   29.3290 C.3       1 J7V1325     0.0000 
     28 CAB        17.1270   13.9310   29.2350 C.3       1 J7V1325     0.0000 
     29 OAD         7.8770   11.1050   31.2290 O.2       1 J7V1325     0.0000 
     30 OAE         9.8400    8.6220   28.6880 O.2       1 J7V1325     0.0000 
     31 CAM        14.1050   12.6610   30.6880 C.ar      1 J7V1325     0.0000 
     32 CAN        12.7340   12.6000   30.9710 C.ar      1 J7V1325     0.0000 
     33 CAP        13.9040   10.7160   29.2850 C.ar      1 J7V1325     0.0000 
     34 CAQ        10.5790   11.4970   30.6610 C.2       1 J7V1325     0.0000 
     35 CAR        16.6430   10.7580   28.5940 C.3       1 J7V1325     0.0000 
     36 CAS        16.9870   12.7190   30.1340 C.3       1 J7V1325     0.0000 
     37 NAX         7.5940    9.6270   29.5300 N.am      1 J7V1325     0.0000 
     38 OBB        11.7980    9.6590   29.0030 O.3       1 J7V1325     0.0000 
     39 CBC         8.3390   10.4040   30.3410 C.2       1 J7V1325     0.0000 
     40 CBE        14.7040   11.7160   29.8390 C.ar      1 J7V1325     0.0000 
     41 CBF         9.8250   10.4650   30.0910 C.2       1 J7V1325     0.0000 
     42 CBG        10.4560    9.5610   29.2400 C.2       1 J7V1325     0.0000 
     43 CBH        11.9480   11.5890   30.4080 C.ar      1 J7V1325     0.0000 
     44 CBI        12.5450   10.6530   29.5670 C.ar      1 J7V1325     0.0000 
     45 NBP        16.0860   11.7350   29.5310 N.pl3     1 J7V1325     0.0000 
     46 H           4.1620   11.9012   28.0816 H         1 J7V1325     0.0000 
     47 H           5.4406   11.1551   27.1077 H         1 J7V1325     0.0000 
     48 H           6.5264   11.4756   29.0768 H         1 J7V1325     0.0000 
     49 H           5.8537    8.8355   28.6437 H         1 J7V1325     0.0000 
     50 H           4.5862    8.3656   30.4384 H         1 J7V1325     0.0000 
     51 H           5.5109   10.5103   32.2206 H         1 J7V1325     0.0000 
     52 H           2.5276    9.2603   30.1991 H         1 J7V1325     0.0000 
     53 H          -0.8554   10.0166   33.3260 H         1 J7V1325     0.0000 
     54 H          -0.9316   10.7263   34.9741 H         1 J7V1325     0.0000 
     55 H           3.2743   11.9446   35.9620 H         1 J7V1325     0.0000 
     56 H          14.6800   13.4051   31.1057 H         1 J7V1325     0.0000 
     57 H          12.3080   13.2967   31.5907 H         1 J7V1325     0.0000 
     58 H          14.3303   10.0143   28.6571 H         1 J7V1325     0.0000 
     59 H          10.1211   12.1885   31.2677 H         1 J7V1325     0.0000 
     60 H          15.8723   10.4128   27.8919 H         1 J7V1325     0.0000 
     61 H          17.4524   11.2071   28.0030 H         1 J7V1325     0.0000 
     62 H          16.6039   13.0483   31.1066 H         1 J7V1325     0.0000 
     63 H          17.9811   12.2858   30.2930 H         1 J7V1325     0.0000 
     64 H           8.1277    9.0264   28.7744 H         1 J7V1325     0.0000 
     65 H          17.5809    8.8759   28.6984 H         1 J7V1325     0.0000 
     66 H          17.9274    9.8058   29.9639 H         1 J7V1325     0.0000 
     67 H          16.4930    9.0855   29.8641 H         1 J7V1325     0.0000 
     68 H          17.7426   14.6148   29.6267 H         1 J7V1325     0.0000 
     69 H          17.4932   13.6870   28.3370 H         1 J7V1325     0.0000 
     70 H          16.2481   14.3822   29.0804 H         1 J7V1325     0.0000 
     71 H           6.5594    7.3918   31.0893 H         1 J7V1325     0.0000 
@<TRIPOS>BOND
     1    2    1 ar   
     2    3    1 ar   
     3    4    1 ar   
     4    8    1 1    
     5    6    5 ar   
     6    7    5 ar   
     7    8    5 1    
     8    9    5 1    
     9   10    9 1    
    10   11   10 1    
    11   46   10 1    
    12   47   10 1    
    13   12   11 1    
    14   13   11 1    
    15   48   11 1    
    16   16   12 1    
    17   14   13 1    
    18   37   13 1    
    19   49   13 1    
    20   15   14 1    
    21   16   14 1    
    22   50   14 1    
    23   71   15 1    
    24   17   16 1    
    25   51   16 1    
    26   18   17 1    
    27   26   17 1    
    28   19   18 2    
    29   52   18 1    
    30   20   19 1    
    31   21   20 ar   
    32   26   20 ar   
    33   22   21 1    
    34   23   21 ar   
    35   53   22 1    
    36   54   22 1    
    37   24   23 ar   
    38   25   24 ar   
    39   55   24 1    
    40   26   25 ar   
    41   35   27 1    
    42   65   27 1    
    43   66   27 1    
    44   67   27 1    
    45   36   28 1    
    46   68   28 1    
    47   69   28 1    
    48   70   28 1    
    49   39   29 2    
    50   42   30 2    
    51   32   31 ar   
    52   40   31 ar   
    53   56   31 1    
    54   43   32 ar   
    55   57   32 1    
    56   40   33 ar   
    57   44   33 ar   
    58   58   33 1    
    59   41   34 2    
    60   43   34 1    
    61   59   34 1    
    62   45   35 1    
    63   60   35 1    
    64   61   35 1    
    65   45   36 1    
    66   62   36 1    
    67   63   36 1    
    68   39   37 am   
    69   64   37 1    
    70   42   38 1    
    71   44   38 1    
    72   41   39 1    
    73   45   40 1    
    74   42   41 1    
    75   44   43 ar   
@<TRIPOS>SUBSTRUCTURE
     1 J7V1325     1 GROUP   
@<TRIPOS>SET

