#    Name: 1t9m_FMN_1_INTS_M
#    Modification time : Tue Mar 25 04:38:27 2014

@<TRIPOS>MOLECULE
1t9m_FMN_1_INTS_M
   78     0    12     0     0
SMALL
NO_CHARGES


@<TRIPOS>ATOM
      1 N          27.8375   62.7550   73.7645 N.am      2 SEC2        0.0000 
      2 N          27.7710   61.8630   74.7880 N.am     10 SEL2        0.0000 
      3 N          27.9040   63.6470   72.7410 N.am      6 SEP2        0.0000 
      4 N          28.0625   60.5905   73.9140 N.am      2 SEC2        0.0000 
      5 N          28.3540   59.3180   73.0400 N.am      6 SEP2        0.0000 
      6 O          28.1950   63.6825   76.6870 O.2       1 ALC1        0.0000 
      7 O          27.4890   62.5300   76.8800 O.2       9 ALL1        0.0000 
      8 O          28.9010   64.8350   76.4940 O.2       5 ALP1        0.0000 
      9 N          25.8230   63.6990   79.7760 N.am      2 SEC2        0.0000 
     10 N          27.0100   63.1240   78.9890 N.am     10 SEL2        0.0000 
     11 N          24.6360   64.2740   80.5630 N.am      6 SEP2        0.0000 
     12 CA         23.9710   61.8810   79.0865 C.3       4 GLC5        0.0000 
     13 CA         24.5000   60.0290   79.6240 C.3      12 GLL5        0.0000 
     14 CA         23.4420   63.7330   78.5490 C.3       8 GLP5        0.0000 
     15 CA         20.5930   58.2135   82.9520 C.3       4 GLC5        0.0000 
     16 CA         22.0130   58.9080   82.2800 C.3      12 GLL5        0.0000 
     17 CA         19.1730   57.5190   83.6240 C.3       8 GLP5        0.0000 
     18 CA         22.0915   56.1550   81.7185 C.3       4 GLC5        0.0000 
     19 CA         21.3410   57.0640   79.9320 C.3      12 GLL5        0.0000 
     20 CA         22.8420   55.2460   83.5050 C.3       8 GLP5        0.0000 
     21 CA         20.0175   56.8575   81.2895 C.3       4 GLC5        0.0000 
     22 CA         18.6940   56.6510   82.6470 C.3       8 GLP5        0.0000 
     23 CA         19.5200   56.4670   78.8170 C.3       4 GLC5        0.0000 
     24 CA         17.6990   55.8700   77.7020 C.3       8 GLP5        0.0000 
     25 CA         22.2400   55.5520   79.6490 C.3       4 GLC5        0.0000 
     26 CA         23.1390   54.0400   79.3660 C.3       8 GLP5        0.0000 
     27 N          21.1975   58.0805   76.0245 N.am      2 SEC2        0.0000 
     28 N          22.1460   59.1620   75.7410 N.am     10 SEL2        0.0000 
     29 N          20.2490   56.9990   76.3080 N.am      6 SEP2        0.0000 
     30 O          22.2730   60.3135   76.4840 O.2       1 ALC1        0.0000 
     31 O          22.1460   59.1620   75.7410 O.2       9 ALL1        0.0000 
     32 O          22.4000   61.4650   77.2270 O.2       5 ALP1        0.0000 
     33 N          25.3805   61.4720   72.5050 N.am      2 SEC2        0.0000 
     34 N          25.2860   60.4310   73.3830 N.am     10 SEL2        0.0000 
     35 N          25.4750   62.5130   71.6270 N.am      6 SEP2        0.0000 
     36 NZ         21.2725   62.1085   70.6020 N.4       3 LYC4        0.0000 
     37 NZ         21.7510   61.0270   69.7550 N.4      11 LYL4        0.0000 
     38 NZ         20.3280   63.9800   70.5030 N.4       7 LYP4        0.0000 
     39 N          21.2725   62.1085   70.6020 N.am      2 SEC2        0.0000 
     40 N          21.7510   61.0270   69.7550 N.am     10 SEL2        0.0000 
     41 N          20.7940   63.1900   71.4490 N.am      6 SEP2        0.0000 
     42 N          21.1150   62.3335   69.4735 N.am      2 SEC2        0.0000 
     43 N          20.4790   63.6400   69.1920 N.am      6 SEP2        0.0000 
     44 NZ         24.8050   62.1230   70.4915 N.4       3 LYC4        0.0000 
     45 NZ         24.1350   61.7330   69.3560 N.4      11 LYL4        0.0000 
     46 NZ         25.4750   62.5130   71.6270 N.4       7 LYP4        0.0000 
     47 N          24.0460   62.8770   68.5515 N.am      2 SEC2        0.0000 
     48 N          24.1350   61.7330   69.3560 N.am     10 SEL2        0.0000 
     49 N          23.9570   64.0210   67.7470 N.am      6 SEP2        0.0000 
     50 N          24.8050   62.1230   70.4915 N.am      2 SEC2        0.0000 
     51 NZ         22.9750   57.9135   69.3815 N.4       3 LYC4        0.0000 
     52 NZ         23.2140   59.3240   68.9200 N.4      11 LYL4        0.0000 
     53 NZ         23.6620   55.6910   70.3500 N.4       7 LYP4        0.0000 
     54 N          24.4135   58.8960   68.6935 N.am      2 SEC2        0.0000 
     55 N          23.2140   59.3240   68.9200 N.am     10 SEL2        0.0000 
     56 N          25.6130   58.4680   68.4670 N.am      6 SEP2        0.0000 
     57 N          22.9750   57.9135   69.3815 N.am      2 SEC2        0.0000 
     58 N          22.7360   56.5030   69.8430 N.am      6 SEP2        0.0000 
     59 CA         22.3732   60.7715   80.2935 C.3       4 GLC5        0.0000 
     60 CA         20.5540   61.6160   80.3270 C.3       8 GLP5        0.0000 
     61 CA         24.6798   61.2515   81.6070 C.3       4 GLC5        0.0000 
     62 CA         23.8850   59.8250   80.8960 C.3      12 GLL5        0.0000 
     63 CA         25.1670   62.5760   82.9540 C.3       8 GLP5        0.0000 
     64 CA         21.5142   60.2377   80.9907 C.3       4 GLC5        0.0000 
     65 CA         22.9360   58.8110   81.0290 C.3      12 GLL5        0.0000 
     66 CA         22.6583   57.0528   82.5797 C.3       4 GLC5        0.0000 
     67 CA         21.2671   59.4034   79.1756 C.3       4 GLC5        0.0000 
     68 CA         22.6040   57.9690   79.9290 C.3      12 GLL5        0.0000 
     69 CA         19.9230   60.9650   79.0400 C.3       8 GLP5        0.0000 
     70 CA         22.3360   60.5670   74.0755 C.3       4 GLC5        0.0000 
     71 CA         23.4910   59.3190   75.2930 C.3      12 GLL5        0.0000 
     72 CA         21.1700   62.0800   73.6070 C.3       8 GLP5        0.0000 
     73 CA         24.5165   61.2400   72.3130 C.3       4 GLC5        0.0000 
     74 CA         24.7670   59.1590   73.0230 C.3      12 GLL5        0.0000 
     75 CA         24.4060   63.3010   72.3530 C.3       8 GLP5        0.0000 
     76 CA         26.4365   58.9095   71.4820 C.3       4 GLC5        0.0000 
     77 CA         24.4870   59.1990   71.5230 C.3      12 GLL5        0.0000 
     78 CA         28.2460   58.6400   70.6910 C.3       8 GLP5        0.0000 
@<TRIPOS>BOND
@<TRIPOS>SUBSTRUCTURE
     1 ALC1        6 GROUP        1 X    ALC  0     ROOT ALC X 1
     2 SEC2        1 GROUP        1 X    SEC  0     **** SEC X 2
     3 LYC4       36 GROUP        1 X    LYC  0     **** LYC X 4
     4 GLC5       12 GROUP        1 X    GLC  0     **** GLC X 6
     5 ALP1        8 GROUP        1 Y    ALP  0     ROOT ALP Y 8
     6 SEP2        3 GROUP        1 Y    SEP  0     **** SEP Y 9
     7 LYP4       38 GROUP        1 Y    LYP  0     **** LYP Y 11
     8 GLP5       14 GROUP        1 Y    GLP  0     **** GLP Y 13
     9 ALL1        7 GROUP        1 Z    ALL  0     ROOT ALL Z 15
    10 SEL2        2 GROUP        1 Z    SEL  0     **** SEL Z 16
    11 LYL4       37 GROUP        1 Z    LYL  0     **** LYL Z 18
    12 GLL5       13 GROUP        1 Z    GLL  0     **** GLL Z 20
@<TRIPOS>SET

