#    Name: 1t9m_FMN_1_ligand
#    Modification time : Tue Mar 25 04:38:27 2014

@<TRIPOS>MOLECULE
1t9m_FMN_1_ligand
   50    52     1     0     0
SMALL
NO_CHARGES


@<TRIPOS>ATOM
      1 N1         26.3240   60.6330   75.9590 N.2       1 FMN250      0.0000 
      2 C2         27.2430   61.6630   75.8550 C.2       1 FMN250      0.0000 
      3 O2         27.7710   61.8630   74.7880 O.2       1 FMN250      0.0000 
      4 N3         27.4890   62.5300   76.8800 N.am      1 FMN250      0.0000 
      5 C4         26.9140   62.2870   78.1110 C.2       1 FMN250      0.0000 
      6 O4         27.0100   63.1240   78.9890 O.2       1 FMN250      0.0000 
      7 C4A        26.0130   61.2550   78.2680 C.2       1 FMN250      0.0000 
      8 N5         25.4400   61.0280   79.5030 N.2       1 FMN250      0.0000 
      9 C5A        24.5000   60.0290   79.6240 C.ar      1 FMN250      0.0000 
     10 C6         23.8850   59.8250   80.8960 C.ar      1 FMN250      0.0000 
     11 C7         22.9360   58.8110   81.0290 C.ar      1 FMN250      0.0000 
     12 C7M        22.0130   58.9080   82.2800 C.3       1 FMN250      0.0000 
     13 C8         22.6040   57.9690   79.9290 C.ar      1 FMN250      0.0000 
     14 C8M        21.3410   57.0640   79.9320 C.3       1 FMN250      0.0000 
     15 C9         23.2500   58.1670   78.6920 C.ar      1 FMN250      0.0000 
     16 C9A        24.1910   59.2060   78.5590 C.ar      1 FMN250      0.0000 
     17 N10        24.8530   59.3720   77.3380 N.pl3     1 FMN250      0.0000 
     18 C10        25.7040   60.4360   77.1910 C.2       1 FMN250      0.0000 
     19 C1'        24.4930   58.5730   76.1530 C.3       1 FMN250      0.0000 
     20 C2'        23.4910   59.3190   75.2930 C.3       1 FMN250      0.0000 
     21 O2'        22.1460   59.1620   75.7410 O.3       1 FMN250      0.0000 
     22 C3'        23.5130   58.7890   73.7950 C.3       1 FMN250      0.0000 
     23 O3'        23.3070   57.4060   73.6960 O.3       1 FMN250      0.0000 
     24 C4'        24.7670   59.1590   73.0230 C.3       1 FMN250      0.0000 
     25 O4'        25.2860   60.4310   73.3830 O.3       1 FMN250      0.0000 
     26 C5'        24.4870   59.1990   71.5230 C.3       1 FMN250      0.0000 
     27 O5'        23.4620   60.1450   71.2970 O.3       1 FMN250      0.0000 
     28 P          23.1830   60.5880   69.7610 P.3       1 FMN250      0.0000 
     29 O1P        21.7510   61.0270   69.7550 O.co2     1 FMN250      0.0000 
     30 O2P        24.1350   61.7330   69.3560 O.co2     1 FMN250      0.0000 
     31 O3P        23.2140   59.3240   68.9200 O.co2     1 FMN250      0.0000 
     32 H          28.0904   63.3509   76.7449 H         1 FMN250      0.0000 
     33 H          24.1431   60.4137   81.6789 H         1 FMN250      0.0000 
     34 H          23.0372   57.5623   77.9001 H         1 FMN250      0.0000 
     35 H          24.0526   57.6176   76.4561 H         1 FMN250      0.0000 
     36 H          25.3825   58.3606   75.5511 H         1 FMN250      0.0000 
     37 H          23.7636   60.3634   75.2368 H         1 FMN250      0.0000 
     38 H          22.6662   59.3240   73.2848 H         1 FMN250      0.0000 
     39 H          25.5138   58.3807   73.1822 H         1 FMN250      0.0000 
     40 H          24.1991   58.1938   71.2121 H         1 FMN250      0.0000 
     41 H          25.4165   59.4668   71.0188 H         1 FMN250      0.0000 
     42 H          22.5371   58.8803   83.1312 H         1 FMN250      0.0000 
     43 H          21.4860   59.7579   82.2877 H         1 FMN250      0.0000 
     44 H          21.3557   58.1552   82.3158 H         1 FMN250      0.0000 
     45 H          21.2596   56.5371   79.0860 H         1 FMN250      0.0000 
     46 H          21.3565   56.4072   80.6859 H         1 FMN250      0.0000 
     47 H          20.5012   57.5987   80.0262 H         1 FMN250      0.0000 
     48 H          21.9790   59.9466   76.3381 H         1 FMN250      0.0000 
     49 H          23.5401   57.1767   72.7510 H         1 FMN250      0.0000 
     50 H          25.8527   60.2605   74.1891 H         1 FMN250      0.0000 
@<TRIPOS>BOND
     1    2    1 1    
     2   18    1 2    
     3    3    2 2    
     4    4    2 am   
     5    5    4 am   
     6   32    4 1    
     7    6    5 2    
     8    7    5 1    
     9    8    7 2    
    10   18    7 1    
    11    9    8 1    
    12   10    9 ar   
    13   16    9 ar   
    14   11   10 ar   
    15   33   10 1    
    16   12   11 1    
    17   13   11 ar   
    18   42   12 1    
    19   43   12 1    
    20   44   12 1    
    21   14   13 1    
    22   15   13 ar   
    23   45   14 1    
    24   46   14 1    
    25   47   14 1    
    26   16   15 ar   
    27   34   15 1    
    28   17   16 1    
    29   18   17 1    
    30   19   17 1    
    31   20   19 1    
    32   35   19 1    
    33   36   19 1    
    34   21   20 1    
    35   22   20 1    
    36   37   20 1    
    37   48   21 1    
    38   23   22 1    
    39   24   22 1    
    40   38   22 1    
    41   49   23 1    
    42   25   24 1    
    43   26   24 1    
    44   39   24 1    
    45   50   25 1    
    46   27   26 1    
    47   40   26 1    
    48   41   26 1    
    49   28   27 1    
    50   29   28 ar   
    51   30   28 ar   
    52   31   28 ar   
@<TRIPOS>SUBSTRUCTURE
     1 FMN250      1 GROUP   
@<TRIPOS>SET

