#    Name: 3a3z_2MV_1_INTS_M
#    Modification time : Tue Mar 25 11:33:46 2014

@<TRIPOS>MOLECULE
3a3z_2MV_1_INTS_M
  117     0     9     0     0
SMALL
NO_CHARGES


@<TRIPOS>ATOM
      1 N           5.2755   27.8835   34.6390 N.am      2 SEC2        0.0000 
      2 N           4.7790   26.5970   34.8970 N.am      8 SEL2        0.0000 
      3 N           5.7720   29.1700   34.3810 N.am      5 SEP2        0.0000 
      4 N           5.1175   26.6895   36.2720 N.am      2 SEC2        0.0000 
      5 N           5.4560   26.7820   37.6470 N.am      5 SEP2        0.0000 
      6 CA          2.4685   23.1115   34.6920 C.3       3 GLC5        0.0000 
      7 CA          4.0670   24.4560   34.1200 C.3       9 GLL5        0.0000 
      8 CA          0.8700   21.7670   35.2640 C.3       6 GLP5        0.0000 
      9 CA          3.9865   25.8365   31.1760 C.3       3 GLC5        0.0000 
     10 CA          5.0230   26.1370   32.5720 C.3       9 GLL5        0.0000 
     11 CA          2.9500   25.5360   29.7800 C.3       6 GLP5        0.0000 
     12 CA          5.7795   26.9600   30.7435 C.3       3 GLC5        0.0000 
     13 CA          6.5360   27.7830   28.9150 C.3       6 GLP5        0.0000 
     14 CA          3.3070   27.4640   32.4495 C.3       3 GLC5        0.0000 
     15 CA          1.5910   28.7910   32.3270 C.3       6 GLP5        0.0000 
     16 CA          7.1675   23.1800   34.4325 C.3       3 GLC5        0.0000 
     17 CA          6.5030   24.9680   34.2950 C.3       9 GLL5        0.0000 
     18 CA          7.8320   21.3920   34.5700 C.3       6 GLP5        0.0000 
     19 CA          8.3180   23.4865   34.9050 C.3       3 GLC5        0.0000 
     20 CA          8.8040   25.5810   35.2400 C.3       9 GLL5        0.0000 
     21 CA          8.4035   24.9810   37.3040 C.3       3 GLC5        0.0000 
     22 CA          8.0030   24.3810   39.3680 C.3       6 GLP5        0.0000 
     23 CA          8.8430   25.6680   30.9530 C.3       3 GLC5        0.0000 
     24 CA          8.3570   26.0970   32.9720 C.3       9 GLL5        0.0000 
     25 CA          9.3290   25.2390   28.9340 C.3       6 GLP5        0.0000 
     26 CA         10.3970   28.8510   33.6765 C.3       3 GLC5        0.0000 
     27 CA         10.1060   27.6880   35.2820 C.3       9 GLL5        0.0000 
     28 CA         10.6880   30.0140   32.0710 C.3       6 GLP5        0.0000 
     29 CA          8.3430   28.6750   34.3340 C.3       3 GLC5        0.0000 
     30 CA          6.5800   29.6620   33.3860 C.3       6 GLP5        0.0000 
     31 CA          9.5240   29.3280   36.1110 C.3       3 GLC5        0.0000 
     32 CA          8.9420   30.9680   36.9400 C.3       6 GLP5        0.0000 
     33 CA         11.9385   28.1340   35.9010 C.3       3 GLC5        0.0000 
     34 CA         13.7710   28.5800   36.5200 C.3       6 GLP5        0.0000 
     35 CA          9.3280   22.3645   34.1780 C.3       3 GLC5        0.0000 
     36 CA         10.8240   23.3370   33.7860 C.3       9 GLL5        0.0000 
     37 CA         12.3465   26.7720   31.7570 C.3       3 GLC5        0.0000 
     38 CA         12.1630   24.9170   32.4060 C.3       9 GLL5        0.0000 
     39 CA         12.5300   28.6270   31.1080 C.3       6 GLP5        0.0000 
     40 CA         12.2725   21.8435   31.2325 C.3       3 GLC5        0.0000 
     41 CA         12.9500   23.8610   31.6020 C.3       9 GLL5        0.0000 
     42 CA         11.5950   19.8260   30.8630 C.3       6 GLP5        0.0000 
     43 CA         14.1480   23.8750   30.0175 C.3       3 GLC5        0.0000 
     44 CA         15.3460   23.8890   28.4330 C.3       6 GLP5        0.0000 
     45 CA         15.7690   23.9805   32.6905 C.3       3 GLC5        0.0000 
     46 CA         14.1550   23.2350   32.3300 C.3       9 GLL5        0.0000 
     47 CA         17.3830   24.7260   33.0510 C.3       6 GLP5        0.0000 
     48 CA         14.6715   22.3155   30.5700 C.3       3 GLC5        0.0000 
     49 CA         15.1880   21.3960   28.8100 C.3       6 GLP5        0.0000 
     50 CA         12.2260   25.1560   38.2985 C.3       3 GLC5        0.0000 
     51 CA         11.7420   25.0730   36.2010 C.3       9 GLL5        0.0000 
     52 CA         12.7100   25.2390   40.3960 C.3       6 GLP5        0.0000 
     53 CA         11.9895   22.4775   37.0640 C.3       3 GLC5        0.0000 
     54 CA         12.8400   24.0140   36.0050 C.3       9 GLL5        0.0000 
     55 CA         11.1390   20.9410   38.1230 C.3       6 GLP5        0.0000 
     56 CA         13.1695   20.2335   32.2800 C.3       3 GLC5        0.0000 
     57 CA         14.7440   20.6410   33.6970 C.3       9 GLL5        0.0000 
     58 CA         11.6060   18.9480   33.2690 C.3       3 GLC5        0.0000 
     59 CA         12.4020   19.2340   35.0670 C.3       9 GLL5        0.0000 
     60 CA         10.8100   18.6620   31.4710 C.3       6 GLP5        0.0000 
     61 CA         11.1685   17.7930   35.9065 C.3       3 GLC5        0.0000 
     62 CA          9.9350   16.3520   36.7460 C.3       6 GLP5        0.0000 
     63 CA         11.7705   20.0875   36.5950 C.3       3 GLC5        0.0000 
     64 CA         14.4575   17.4670   37.7770 C.3       3 GLC5        0.0000 
     65 CA         14.1720   17.7090   35.9070 C.3       9 GLL5        0.0000 
     66 CA         14.7430   17.2250   39.6470 C.3       6 GLP5        0.0000 
     67 CA         15.6855   18.9155   36.6725 C.3       3 GLC5        0.0000 
     68 CA         17.1990   20.1220   37.4380 C.3       6 GLP5        0.0000 
     69 N          13.2715   15.7900   37.3505 N.am      2 SEC2        0.0000 
     70 N          13.1440   17.1310   36.7220 N.am      8 SEL2        0.0000 
     71 N          13.3990   14.4490   37.9790 N.am      5 SEP2        0.0000 
     72 O          11.9415   16.7470   36.1475 O.2       1 ALC1        0.0000 
     73 O          13.1440   17.1310   36.7220 O.2       7 ALL1        0.0000 
     74 O          10.7390   16.3630   35.5730 O.2       4 ALP1        0.0000 
     75 CA         17.0795   15.8850   33.3890 C.3       3 GLC5        0.0000 
     76 CA         15.9330   17.2260   34.1370 C.3       9 GLL5        0.0000 
     77 CA         18.2260   14.5440   32.6410 C.3       6 GLP5        0.0000 
     78 N          17.9580   16.8060   35.2950 N.am      2 SEC2        0.0000 
     79 N          17.0010   17.7780   34.9220 N.am      8 SEL2        0.0000 
     80 N          18.9150   15.8340   35.6680 N.am      5 SEP2        0.0000 
     81 O          17.8600   18.6585   34.2390 O.2       1 ALC1        0.0000 
     82 O          17.0010   17.7780   34.9220 O.2       7 ALL1        0.0000 
     83 O          18.7190   19.5390   33.5560 O.2       4 ALP1        0.0000 
     84 CA         14.0680   15.4205   32.4630 C.3       3 GLC5        0.0000 
     85 CA         13.9390   15.6570   34.3620 C.3       9 GLL5        0.0000 
     86 CA         14.1970   15.1840   30.5640 C.3       6 GLP5        0.0000 
     87 CA         12.7880   16.5165   32.9135 C.3       3 GLC5        0.0000 
     88 CA         11.6370   17.3760   31.4650 C.3       6 GLP5        0.0000 
     89 CA          5.8250   27.7520   33.3300 C.3       3 GLC5        0.0000 
     90 CA          5.1170   25.5470   33.9760 C.3       9 GLL5        0.0000 
     91 CA          7.2927   27.8507   33.5160 C.3       3 GLC5        0.0000 
     92 CA          7.6540   25.9820   34.3200 C.3       9 GLL5        0.0000 
     93 CA          7.2765   26.7883   36.3770 C.3       3 GLC5        0.0000 
     94 CA          6.3240   27.7950   37.9740 C.3       6 GLP5        0.0000 
     95 CA         12.6730   26.9610   36.0087 C.3       3 GLC5        0.0000 
     96 CA         11.4080   25.6110   34.7940 C.3       9 GLL5        0.0000 
     97 CA         11.4558   23.6690   30.4655 C.3       3 GLC5        0.0000 
     98 CA         10.3550   22.9490   28.9270 C.3       6 GLP5        0.0000 
     99 CA         15.3710   24.2275   34.2955 C.3       3 GLC5        0.0000 
    100 CA         13.8110   22.9470   33.7820 C.3       9 GLL5        0.0000 
    101 CA         17.2670   24.9350   34.4480 C.3       6 GLP5        0.0000 
    102 CA         15.0883   21.7878   35.5277 C.3       3 GLC5        0.0000 
    103 CA         16.2340   21.2210   36.9780 C.3       6 GLP5        0.0000 
    104 CA         16.1860   22.0187   34.0740 C.3       3 GLC5        0.0000 
    105 CA         14.0740   21.7620   34.3730 C.3       9 GLL5        0.0000 
    106 CA         17.9630   22.8360   34.1130 C.3       6 GLP5        0.0000 
    107 CA         15.1954   20.3071   35.6975 C.3       3 GLC5        0.0000 
    108 CA         13.6540   18.8010   34.9950 C.3       9 GLL5        0.0000 
    109 CA         14.9258   16.4757   32.1157 C.3       3 GLC5        0.0000 
    110 CA         15.3760   18.3090   33.1980 C.3       9 GLL5        0.0000 
    111 CA         13.1911   18.0316   32.6540 C.3       3 GLC5        0.0000 
    112 CA         17.6758   18.2037   33.3687 C.3       3 GLC5        0.0000 
    113 CA         19.6970   18.6400   33.0700 C.3       6 GLP5        0.0000 
    114 CA         16.5658   17.9093   31.9453 C.3       3 GLC5        0.0000 
    115 CA         17.4770   18.0510   30.2230 C.3       6 GLP5        0.0000 
    116 CA         16.4345   15.8557   35.9263 C.3       3 GLC5        0.0000 
    117 CA         17.4580   14.7880   37.2400 C.3       6 GLP5        0.0000 
@<TRIPOS>BOND
@<TRIPOS>SUBSTRUCTURE
     1 ALC1       72 GROUP        1 X    ALC  0     ROOT ALC X 1
     2 SEC2        1 GROUP        1 X    SEC  0     **** SEC X 2
     3 GLC5        6 GROUP        1 X    GLC  0     **** GLC X 6
     4 ALP1       74 GROUP        1 Y    ALP  0     ROOT ALP Y 8
     5 SEP2        3 GROUP        1 Y    SEP  0     **** SEP Y 9
     6 GLP5        8 GROUP        1 Y    GLP  0     **** GLP Y 13
     7 ALL1       73 GROUP        1 Z    ALL  0     ROOT ALL Z 15
     8 SEL2        2 GROUP        1 Z    SEL  0     **** SEL Z 16
     9 GLL5        7 GROUP        1 Z    GLL  0     **** GLL Z 20
@<TRIPOS>SET

