#    Name: 3a3z_2MV_1_ligand
#    Modification time : Tue Mar 25 11:33:46 2014

@<TRIPOS>MOLECULE
3a3z_2MV_1_ligand
   77    80     1     0     0
SMALL
NO_CHARGES


@<TRIPOS>ATOM
      1 O26         4.7790   26.5970   34.8970 O.3       1 2MV1        0.0000 
      2 C26         5.1170   25.5470   33.9760 C.3       1 2MV1        0.0000 
      3 C27         4.0670   24.4560   34.1200 C.3       1 2MV1        0.0000 
      4 C28         5.0230   26.1370   32.5720 C.3       1 2MV1        0.0000 
      5 C25         6.5030   24.9680   34.2950 C.3       1 2MV1        0.0000 
      6 C23         7.6540   25.9820   34.3200 C.3       1 2MV1        0.0000 
      7 C22         8.8040   25.5810   35.2400 C.3       1 2MV1        0.0000 
      8 C24         8.3570   26.0970   32.9720 C.3       1 2MV1        0.0000 
      9 O20         9.7060   26.4860   33.2520 O.3       1 2MV1        0.0000 
     10 C20        10.0220   26.2970   34.6430 C.3       1 2MV1        0.0000 
     11 C21        10.1060   27.6880   35.2820 C.3       1 2MV1        0.0000 
     12 C17        11.4080   25.6110   34.7940 C.3       1 2MV1        0.0000 
     13 C13        11.8300   24.4890   33.8350 C.3       1 2MV1        0.0000 
     14 C18        10.8240   23.3370   33.7860 C.3       1 2MV1        0.0000 
     15 C12        12.1630   24.9170   32.4060 C.3       1 2MV1        0.0000 
     16 C11        12.9500   23.8610   31.6020 C.3       1 2MV1        0.0000 
     17 C9         14.1550   23.2350   32.3300 C.3       1 2MV1        0.0000 
     18 C16        11.7420   25.0730   36.2010 C.3       1 2MV1        0.0000 
     19 C15        12.8400   24.0140   36.0050 C.3       1 2MV1        0.0000 
     20 C14        13.1390   24.0930   34.5040 C.3       1 2MV1        0.0000 
     21 C8         13.8110   22.9470   33.7820 C.2       1 2MV1        0.0000 
     22 C7         14.0740   21.7620   34.3730 C.2       1 2MV1        0.0000 
     23 C6         14.7440   20.6410   33.6970 C.2       1 2MV1        0.0000 
     24 C5         14.5750   19.3300   33.9810 C.2       1 2MV1        0.0000 
     25 C10        13.6540   18.8010   34.9950 C.2       1 2MV1        0.0000 
     26 C19        12.4020   19.2340   35.0670 C.2       1 2MV1        0.0000 
     27 C1         14.1720   17.7090   35.9070 C.3       1 2MV1        0.0000 
     28 O1         13.1440   17.1310   36.7220 O.3       1 2MV1        0.0000 
     29 C4         15.3760   18.3090   33.1980 C.3       1 2MV1        0.0000 
     30 C3         15.9330   17.2260   34.1370 C.3       1 2MV1        0.0000 
     31 O3         17.0010   17.7780   34.9220 O.3       1 2MV1        0.0000 
     32 C2         14.8890   16.6210   35.0880 C.3       1 2MV1        0.0000 
     33 C29        13.9390   15.6570   34.3620 C.3       1 2MV1        0.0000 
     34 H           6.7383   24.1817   33.5507 H         1 2MV1        0.0000 
     35 H           6.4566   24.4590   35.2780 H         1 2MV1        0.0000 
     36 H           7.3143   26.9491   34.6033 H         1 2MV1        0.0000 
     37 H           8.9516   24.5318   35.1980 H         1 2MV1        0.0000 
     38 H           8.6246   25.9412   36.2211 H         1 2MV1        0.0000 
     39 H           7.8355   26.8389   32.3810 H         1 2MV1        0.0000 
     40 H           8.3065   25.1336   32.4811 H         1 2MV1        0.0000 
     41 H          12.2019   26.4320   34.6366 H         1 2MV1        0.0000 
     42 H          12.7525   25.8462   32.4355 H         1 2MV1        0.0000 
     43 H          11.2285   25.1414   31.8693 H         1 2MV1        0.0000 
     44 H          13.3057   24.3256   30.6631 H         1 2MV1        0.0000 
     45 H          12.2551   23.0523   31.3071 H         1 2MV1        0.0000 
     46 H          14.9923   23.9268   32.2822 H         1 2MV1        0.0000 
     47 H          14.4271   22.3100   31.8277 H         1 2MV1        0.0000 
     48 H          10.8746   24.6165   36.6217 H         1 2MV1        0.0000 
     49 H          12.1150   25.8685   36.8060 H         1 2MV1        0.0000 
     50 H          12.4591   23.0585   36.2456 H         1 2MV1        0.0000 
     51 H          13.6986   24.2860   36.5571 H         1 2MV1        0.0000 
     52 H          13.7946   25.0150   34.3724 H         1 2MV1        0.0000 
     53 H          13.8038   21.5821   35.3720 H         1 2MV1        0.0000 
     54 H          15.4124   20.9351   32.9221 H         1 2MV1        0.0000 
     55 H          14.9489   18.1637   36.5531 H         1 2MV1        0.0000 
     56 H          16.2066   18.8001   32.6960 H         1 2MV1        0.0000 
     57 H          14.7400   17.8355   32.4534 H         1 2MV1        0.0000 
     58 H          16.3228   16.4139   33.5150 H         1 2MV1        0.0000 
     59 H          15.4692   16.0017   35.8264 H         1 2MV1        0.0000 
     60 H           4.2434   23.6873   33.5052 H         1 2MV1        0.0000 
     61 H           4.0392   24.0876   35.0493 H         1 2MV1        0.0000 
     62 H           3.1493   24.7939   33.9111 H         1 2MV1        0.0000 
     63 H           5.6519   26.9047   32.4489 H         1 2MV1        0.0000 
     64 H           5.2448   25.4609   31.8694 H         1 2MV1        0.0000 
     65 H           4.1037   26.4762   32.3725 H         1 2MV1        0.0000 
     66 H          10.2097   27.6348   36.2752 H         1 2MV1        0.0000 
     67 H          10.8843   28.2104   34.9336 H         1 2MV1        0.0000 
     68 H           9.2851   28.2298   35.1016 H         1 2MV1        0.0000 
     69 H          11.1146   22.6167   33.1561 H         1 2MV1        0.0000 
     70 H          10.7032   22.9111   34.6826 H         1 2MV1        0.0000 
     71 H           9.9218   23.6444   33.4836 H         1 2MV1        0.0000 
     72 H          14.4388   14.9656   33.8404 H         1 2MV1        0.0000 
     73 H          13.3450   15.1690   35.0016 H         1 2MV1        0.0000 
     74 H          13.3440   16.1371   33.7174 H         1 2MV1        0.0000 
     75 H           3.8610   26.8889   34.6286 H         1 2MV1        0.0000 
     76 H          12.3982   16.9234   36.0890 H         1 2MV1        0.0000 
     77 H          17.6872   18.0703   34.2560 H         1 2MV1        0.0000 
@<TRIPOS>BOND
     1    2    1 1    
     2   75    1 1    
     3    3    2 1    
     4    4    2 1    
     5    5    2 1    
     6   60    3 1    
     7   61    3 1    
     8   62    3 1    
     9   63    4 1    
    10   64    4 1    
    11   65    4 1    
    12    6    5 1    
    13   34    5 1    
    14   35    5 1    
    15    7    6 1    
    16    8    6 1    
    17   36    6 1    
    18   10    7 1    
    19   37    7 1    
    20   38    7 1    
    21    9    8 1    
    22   39    8 1    
    23   40    8 1    
    24   10    9 1    
    25   11   10 1    
    26   12   10 1    
    27   66   11 1    
    28   67   11 1    
    29   68   11 1    
    30   13   12 1    
    31   18   12 1    
    32   41   12 1    
    33   14   13 1    
    34   15   13 1    
    35   20   13 1    
    36   69   14 1    
    37   70   14 1    
    38   71   14 1    
    39   16   15 1    
    40   42   15 1    
    41   43   15 1    
    42   17   16 1    
    43   44   16 1    
    44   45   16 1    
    45   21   17 1    
    46   46   17 1    
    47   47   17 1    
    48   19   18 1    
    49   48   18 1    
    50   49   18 1    
    51   20   19 1    
    52   50   19 1    
    53   51   19 1    
    54   21   20 1    
    55   52   20 1    
    56   22   21 2    
    57   23   22 1    
    58   53   22 1    
    59   24   23 2    
    60   54   23 1    
    61   25   24 1    
    62   29   24 1    
    63   26   25 2    
    64   27   25 1    
    65   28   27 1    
    66   32   27 1    
    67   55   27 1    
    68   76   28 1    
    69   30   29 1    
    70   56   29 1    
    71   57   29 1    
    72   31   30 1    
    73   32   30 1    
    74   58   30 1    
    75   77   31 1    
    76   33   32 1    
    77   59   32 1    
    78   72   33 1    
    79   73   33 1    
    80   74   33 1    
@<TRIPOS>SUBSTRUCTURE
     1 2MV1        1 GROUP   
@<TRIPOS>SET

