#    Name: 1sn0_T44_2_INTS_M
#    Modification time : Tue Mar 25 02:32:51 2014

@<TRIPOS>MOLECULE
1sn0_T44_2_INTS_M
   67     0     9     0     0
SMALL
NO_CHARGES


@<TRIPOS>ATOM
      1 CA        -42.0840  -23.4525  -19.8325 C.3       3 GLC5        0.0000 
      2 CA        -42.3500  -25.0090  -18.2910 C.3       9 GLL5        0.0000 
      3 CA        -41.8180  -21.8960  -21.3740 C.3       6 GLP5        0.0000 
      4 CA        -43.2685  -22.3355  -18.7180 C.3       3 GLC5        0.0000 
      5 CA        -43.0630  -24.0140  -17.5210 C.3       9 GLL5        0.0000 
      6 CA        -43.4740  -20.6570  -19.9150 C.3       6 GLP5        0.0000 
      7 CA        -40.6000  -25.4610  -14.6575 C.3       3 GLC5        0.0000 
      8 CA        -39.3020  -25.1530  -16.0460 C.3       9 GLL5        0.0000 
      9 CA        -41.8980  -25.7690  -13.2690 C.3       6 GLP5        0.0000 
     10 CA        -44.6115  -25.9420  -15.9640 C.3       3 GLC5        0.0000 
     11 CA        -45.8880  -24.8860  -16.9510 C.3       9 GLL5        0.0000 
     12 CA        -43.3350  -26.9980  -14.9770 C.3       6 GLP5        0.0000 
     13 OD1       -38.0855  -28.1265  -15.4600 O.co2     2 ASC3        0.0000 
     14 OD1       -38.8730  -27.2920  -16.9450 O.co2     8 ASL3        0.0000 
     15 OD1       -37.2980  -28.9610  -13.9750 O.co2     5 ASP3        0.0000 
     16 OD1       -38.7515  -27.2640  -15.3610 O.co2     2 ASC3        0.0000 
     17 OD1       -38.6300  -27.2360  -13.7770 O.co2     5 ASP3        0.0000 
     18 O         -38.7515  -27.2640  -15.3610 O.2       1 ALC1        0.0000 
     19 O         -38.8730  -27.2920  -16.9450 O.2       7 ALL1        0.0000 
     20 O         -38.6300  -27.2360  -13.7770 O.2       4 ALP1        0.0000 
     21 CA        -42.5765  -23.8220  -20.6815 C.3       3 GLC5        0.0000 
     22 CA        -43.3350  -25.7480  -19.9890 C.3       9 GLL5        0.0000 
     23 CA        -45.1445  -24.9705  -20.8880 C.3       3 GLC5        0.0000 
     24 CA        -46.9540  -24.1930  -21.7870 C.3       6 GLP5        0.0000 
     25 CA        -42.8905  -27.7325  -20.0145 C.3       3 GLC5        0.0000 
     26 CA        -42.4460  -29.7170  -20.0400 C.3       6 GLP5        0.0000 
     27 CA        -44.2010  -26.2810  -21.7830 C.3       3 GLC5        0.0000 
     28 CA        -45.0670  -26.8140  -23.5770 C.3       6 GLP5        0.0000 
     29 CA        -47.5355  -25.7025  -14.1615 C.3       3 GLC5        0.0000 
     30 CA        -48.1290  -26.4700  -15.7300 C.3       9 GLL5        0.0000 
     31 CA        -46.9420  -24.9350  -12.5930 C.3       6 GLP5        0.0000 
     32 CA        -47.7415  -27.3275  -17.2945 C.3       3 GLC5        0.0000 
     33 CA        -47.3540  -28.1850  -18.8590 C.3       6 GLP5        0.0000 
     34 CA        -48.9955  -28.3835  -15.6480 C.3       3 GLC5        0.0000 
     35 CA        -49.8620  -30.2970  -15.5660 C.3       6 GLP5        0.0000 
     36 CA        -50.0040  -27.0305  -14.7535 C.3       3 GLC5        0.0000 
     37 CA        -51.8790  -27.5910  -13.7770 C.3       6 GLP5        0.0000 
     38 CA        -43.4060  -19.8690  -15.1655 C.3       3 GLC5        0.0000 
     39 CA        -43.6820  -21.9590  -15.2910 C.3       9 GLL5        0.0000 
     40 CA        -43.1300  -17.7790  -15.0400 C.3       6 GLP5        0.0000 
     41 CA        -44.7930  -21.3480  -13.4600 C.3       3 GLC5        0.0000 
     42 CA        -45.9040  -20.7370  -11.6290 C.3       6 GLP5        0.0000 
     43 CA        -45.4635  -22.8230  -14.3500 C.3       3 GLC5        0.0000 
     44 CA        -47.2450  -23.6870  -13.4090 C.3       6 GLP5        0.0000 
     45 CA        -47.9250  -23.0505  -20.7110 C.3       3 GLC5        0.0000 
     46 CA        -48.8960  -21.9080  -19.6350 C.3       9 GLL5        0.0000 
     47 CA        -48.3575  -20.8550  -18.0890 C.3       3 GLC5        0.0000 
     48 CA        -47.8190  -19.8020  -16.5430 C.3       6 GLP5        0.0000 
     49 CA        -49.5690  -19.9810  -19.8250 C.3       3 GLC5        0.0000 
     50 CA        -50.2420  -18.0540  -20.0150 C.3       6 GLP5        0.0000 
     51 CA        -50.3505  -21.4190  -20.8130 C.3       3 GLC5        0.0000 
     52 CA        -51.8050  -20.9300  -21.9910 C.3       6 GLP5        0.0000 
     53 CA        -42.8672  -25.8019  -16.3801 C.3       3 GLC5        0.0000 
     54 CA        -41.1220  -25.3860  -17.8000 C.3       9 GLL5        0.0000 
     55 CA        -41.8288  -24.8034  -14.7769 C.3       3 GLC5        0.0000 
     56 CA        -42.5450  -23.3800  -16.3110 C.3       9 GLL5        0.0000 
     57 CA        -44.6472  -22.0403  -19.0445 C.3       3 GLC5        0.0000 
     58 CA        -45.3720  -23.8250  -17.8090 C.3       9 GLL5        0.0000 
     59 CA        -46.3872  -23.8083  -19.9805 C.3       3 GLC5        0.0000 
     60 CA        -46.2690  -23.0220  -18.5390 C.3       9 GLL5        0.0000 
     61 CA        -47.4638  -23.9220  -19.9530 C.3       3 GLC5        0.0000 
     62 CA        -48.2690  -24.1640  -17.6970 C.3       9 GLL5        0.0000 
     63 CA        -47.3389  -24.1201  -15.3639 C.3       3 GLC5        0.0000 
     64 CA        -47.3934  -26.3691  -18.0889 C.3       3 GLC5        0.0000 
     65 CA        -47.3050  -24.9990  -16.9300 C.3       9 GLL5        0.0000 
     66 CA        -47.3962  -21.4410  -17.5415 C.3       3 GLC5        0.0000 
     67 CA        -47.6780  -23.1380  -18.5410 C.3       9 GLL5        0.0000 
@<TRIPOS>BOND
@<TRIPOS>SUBSTRUCTURE
     1 ALC1       18 GROUP        1 X    ALC  0     ROOT ALC X 1
     2 ASC3       13 GROUP        1 X    ASC  0     **** ASC X 3
     3 GLC5        1 GROUP        1 X    GLC  0     **** GLC X 6
     4 ALP1       20 GROUP        1 Y    ALP  0     ROOT ALP Y 8
     5 ASP3       15 GROUP        1 Y    ASP  0     **** ASP Y 10
     6 GLP5        3 GROUP        1 Y    GLP  0     **** GLP Y 13
     7 ALL1       19 GROUP        1 Z    ALL  0     ROOT ALL Z 15
     8 ASL3       14 GROUP        1 Z    ASL  0     **** ASL Z 17
     9 GLL5        2 GROUP        1 Z    GLL  0     **** GLL Z 20
@<TRIPOS>SET

