#    Name: 1sn0_T44_2_ligand
#    Modification time : Tue Mar 25 02:32:51 2014

@<TRIPOS>MOLECULE
1sn0_T44_2_ligand
   35    36     1     0     0
SMALL
NO_CHARGES


@<TRIPOS>ATOM
      1 C1        -40.6340  -24.7820  -16.6240 C.ar      1 T44601      0.0000 
      2 C2        -41.1220  -25.3860  -17.8000 C.ar      1 T44601      0.0000 
      3 C3        -42.3500  -25.0090  -18.2910 C.ar      1 T44601      0.0000 
      4 C4        -43.0630  -24.0140  -17.5210 C.ar      1 T44601      0.0000 
      5 C5        -42.5450  -23.3800  -16.3110 C.ar      1 T44601      0.0000 
      6 C6        -41.3140  -23.8090  -15.8930 C.ar      1 T44601      0.0000 
      7 C7        -39.3020  -25.1530  -16.0460 C.3       1 T44601      0.0000 
      8 C8        -38.4330  -25.9060  -17.0350 C.3       1 T44601      0.0000 
      9 C9        -37.0020  -25.7160  -16.6210 C.2       1 T44601      0.0000 
     10 C1'       -45.3720  -23.8250  -17.8090 C.ar      1 T44601      0.0000 
     11 C2'       -45.8880  -24.8860  -16.9510 C.ar      1 T44601      0.0000 
     12 C3'       -47.3050  -24.9990  -16.9300 C.ar      1 T44601      0.0000 
     13 C4'       -48.2690  -24.1640  -17.6970 C.ar      1 T44601      0.0000 
     14 C5'       -47.6780  -23.1380  -18.5410 C.ar      1 T44601      0.0000 
     15 C6'       -46.2690  -23.0220  -18.5390 C.ar      1 T44601      0.0000 
     16 N8        -38.8730  -27.2920  -16.9450 N.4       1 T44601      0.0000 
     17 O4        -44.1710  -23.5490  -17.9960 O.3       1 T44601      0.0000 
     18 O4'       -49.5850  -24.3060  -17.6560 O.3       1 T44601      0.0000 
     19 O9        -36.7500  -25.5740  -15.4300 O.co2     1 T44601      0.0000 
     20 O10       -36.0940  -25.6960  -17.4640 O.co2     1 T44601      0.0000 
     21 I3        -43.3350  -25.7480  -19.9890 I         1 T44601      0.0000 
     22 I3'       -48.1290  -26.4700  -15.7300 I         1 T44601      0.0000 
     23 I5        -43.6820  -21.9590  -15.2910 I         1 T44601      0.0000 
     24 I5'       -48.8960  -21.9080  -19.6350 I         1 T44601      0.0000 
     25 H         -40.5568  -26.0961  -18.2723 H         1 T44601      0.0000 
     26 H         -40.8818  -23.4210  -15.0423 H         1 T44601      0.0000 
     27 H         -39.4483  -25.7778  -15.1528 H         1 T44601      0.0000 
     28 H         -38.7721  -24.2437  -15.7266 H         1 T44601      0.0000 
     29 H         -38.6038  -25.5036  -17.9990 H         1 T44601      0.0000 
     30 H         -45.2923  -25.4629  -16.4392 H         1 T44601      0.0000 
     31 H         -45.8490  -22.2548  -19.1473 H         1 T44601      0.0000 
     32 H         -38.3564  -27.8864  -17.5613 H         1 T44601      0.0000 
     33 H         -38.7600  -27.6583  -16.0214 H         1 T44601      0.0000 
     34 H         -39.8391  -27.3912  -17.1835 H         1 T44601      0.0000 
     35 H         -49.7513  -25.2546  -17.9253 H         1 T44601      0.0000 
@<TRIPOS>BOND
     1    2    1 ar   
     2    6    1 ar   
     3    7    1 1    
     4    3    2 ar   
     5   25    2 1    
     6    4    3 ar   
     7   21    3 1    
     8    5    4 ar   
     9   17    4 1    
    10    6    5 ar   
    11   23    5 1    
    12   26    6 1    
    13    8    7 1    
    14   27    7 1    
    15   28    7 1    
    16    9    8 1    
    17   16    8 1    
    18   29    8 1    
    19   19    9 ar   
    20   20    9 ar   
    21   11   10 ar   
    22   15   10 ar   
    23   17   10 1    
    24   12   11 ar   
    25   30   11 1    
    26   13   12 ar   
    27   22   12 1    
    28   14   13 ar   
    29   18   13 1    
    30   15   14 ar   
    31   24   14 1    
    32   31   15 1    
    33   32   16 1    
    34   33   16 1    
    35   34   16 1    
    36   35   18 1    
@<TRIPOS>SUBSTRUCTURE
     1 T44601      1 GROUP   
@<TRIPOS>SET

