#    Name: 2cdu_FAD_1_INTS_M
#    Modification time : Mon Mar 24 23:33:54 2014

@<TRIPOS>MOLECULE
2cdu_FAD_1_INTS_M
  123     0    12     0     0
SMALL
NO_CHARGES


@<TRIPOS>ATOM
      1 NZ          4.7515    0.2600   -1.9725 N.4       3 LYC4        0.0000 
      2 NZ          3.7760    1.2880   -2.1250 N.4      11 LYL4        0.0000 
      3 NZ          5.7270   -0.7680   -1.8200 N.4       7 LYP4        0.0000 
      4 N           4.9840    2.0250   -2.9855 N.am      2 SEC2        0.0000 
      5 N           3.7760    1.2880   -2.1250 N.am     10 SEL2        0.0000 
      6 N           6.1920    2.7620   -3.8460 N.am      6 SEP2        0.0000 
      7 N           4.7515    0.2600   -1.9725 N.am      2 SEC2        0.0000 
      8 N           5.7270   -0.7680   -1.8200 N.am      6 SEP2        0.0000 
      9 CA         -1.2945    2.9770  -12.4805 C.3       4 GLC5        0.0000 
     10 CA         -0.8520    4.0210  -10.6940 C.3      12 GLL5        0.0000 
     11 CA         -1.7370    1.9330  -14.2670 C.3       8 GLP5        0.0000 
     12 CA         -1.8465    5.6480  -11.7950 C.3       4 GLC5        0.0000 
     13 CA         -2.8410    7.2750  -12.8960 C.3       8 GLP5        0.0000 
     14 O          -0.4845    4.9655  -13.0780 O.2       1 ALC1        0.0000 
     15 O          -0.1140    4.4710  -11.6880 O.2       9 ALL1        0.0000 
     16 O          -0.8550    5.4600  -14.4680 O.2       5 ALP1        0.0000 
     17 N          -2.8270    4.4885  -12.0635 N.am      2 SEC2        0.0000 
     18 N          -2.2160    4.0590  -10.7240 N.am     10 SEL2        0.0000 
     19 N          -3.4380    4.9180  -13.4030 N.am      6 SEP2        0.0000 
     20 CA         -2.4375    5.5715   -9.4415 C.3       4 GLC5        0.0000 
     21 CA         -2.9410    3.6220   -9.7040 C.3      12 GLL5        0.0000 
     22 CA         -1.9340    7.5210   -9.1790 C.3       8 GLP5        0.0000 
     23 CA         -4.3550    2.8730   -8.5490 C.3       4 GLC5        0.0000 
     24 CA         -5.7690    2.1240   -7.3940 C.3       8 GLP5        0.0000 
     25 CA         -2.9195    1.7630  -10.1390 C.3       4 GLC5        0.0000 
     26 CA         -2.8980   -0.0960  -10.5740 C.3       8 GLP5        0.0000 
     27 CA         -3.5110    3.1060  -11.5845 C.3       4 GLC5        0.0000 
     28 CA         -4.0810    2.5900  -13.4650 C.3       8 GLP5        0.0000 
     29 N          -3.4220    1.9050   -8.7215 N.am      2 SEC2        0.0000 
     30 N          -2.3790    3.1140   -8.5940 N.am     10 SEL2        0.0000 
     31 N          -4.4650    0.6960   -8.8490 N.am      6 SEP2        0.0000 
     32 CA         -1.8200    4.0235   -6.8110 C.3       4 GLC5        0.0000 
     33 CA         -1.0510    3.0660   -8.4970 C.3      12 GLL5        0.0000 
     34 CA         -2.5890    4.9810   -5.1250 C.3       8 GLP5        0.0000 
     35 CA         -1.3750    1.3550   -9.1090 C.3       4 GLC5        0.0000 
     36 CA         -1.6990   -0.3560   -9.7210 C.3       8 GLP5        0.0000 
     37 N           7.0795    1.9245    6.9775 N.am      2 SEC2        0.0000 
     38 N           7.6650    0.5370    7.3600 N.am     10 SEL2        0.0000 
     39 N           6.4940    3.3120    6.5950 N.am      6 SEP2        0.0000 
     40 N           6.7100    3.5340    8.8770 N.am      2 SEC2        0.0000 
     41 N           7.5710    2.0330    9.1100 N.am     10 SEL2        0.0000 
     42 N           5.8490    5.0350    8.6440 N.am      6 SEP2        0.0000 
     43 N           8.4390    2.2670   10.2750 N.am      2 SEC2        0.0000 
     44 N           9.3070    2.5010   11.4400 N.am      6 SEP2        0.0000 
     45 O           7.6915   -0.1470   11.0230 O.2       1 ALC1        0.0000 
     46 O           7.7130   -0.2030    9.6210 O.2       9 ALL1        0.0000 
     47 O           7.6700   -0.0910   12.4250 O.2       5 ALP1        0.0000 
     48 N           7.7295   -4.1610    8.3050 N.am      2 SEC2        0.0000 
     49 N           7.9400   -3.1140    7.3470 N.am     10 SEL2        0.0000 
     50 N           7.5190   -5.2080    9.2630 N.am      6 SEP2        0.0000 
     51 CA          5.2645   -7.1740    3.1480 C.3       4 GLC5        0.0000 
     52 CA          7.2100   -6.4080    3.6870 C.3      12 GLL5        0.0000 
     53 CA          3.3190   -7.9400    2.6090 C.3       8 GLP5        0.0000 
     54 CA          6.2620   -5.2215    0.2720 C.3       4 GLC5        0.0000 
     55 CA          6.9770   -4.1640    1.8340 C.3      12 GLL5        0.0000 
     56 CA          5.5470   -6.2790   -1.2900 C.3       8 GLP5        0.0000 
     57 CA          8.3175   -4.0485    0.5830 C.3       4 GLC5        0.0000 
     58 CA          9.6580   -3.9330   -0.6680 C.3       8 GLP5        0.0000 
     59 O           7.1845    2.6400    1.8345 O.2       1 ALC1        0.0000 
     60 O           6.8140    2.7240    3.5300 O.2       9 ALL1        0.0000 
     61 O           7.5550    2.5560    0.1390 O.2       5 ALP1        0.0000 
     62 O           7.2360    3.5110    2.4885 O.2       1 ALC1        0.0000 
     63 O           7.6580    4.2980    1.4470 O.2       5 ALP1        0.0000 
     64 CA          3.0010    1.8835    4.4000 C.3       4 GLC5        0.0000 
     65 CA          4.6090    1.9470    2.9270 C.3      12 GLL5        0.0000 
     66 CA          1.3930    1.8200    5.8730 C.3       8 GLP5        0.0000 
     67 CA          5.8195    3.7520    0.4120 C.3       4 GLC5        0.0000 
     68 CA          4.5110    2.9310    1.7740 C.3      12 GLL5        0.0000 
     69 CA          7.1280    4.5730   -0.9500 C.3       8 GLP5        0.0000 
     70 CA          3.9365    4.5905    2.9985 C.3       4 GLC5        0.0000 
     71 CA          3.3620    6.2500    4.2230 C.3       8 GLP5        0.0000 
     72 N           0.5230    5.2625    1.5430 N.am      2 SEC2        0.0000 
     73 N           1.3130    4.5090    0.5780 N.am     10 SEL2        0.0000 
     74 N          -0.2670    6.0160    2.5080 N.am      6 SEP2        0.0000 
     75 N           4.9035    5.9610    0.0695 N.am      2 SEC2        0.0000 
     76 N           3.7150    5.2980    0.2450 N.am     10 SEL2        0.0000 
     77 N           6.0920    6.6240   -0.1060 N.am      6 SEP2        0.0000 
     78 N          -0.0280    1.2170   -1.4925 N.am      2 SEC2        0.0000 
     79 N           1.3450    1.9850   -2.1230 N.am     10 SEL2        0.0000 
     80 N          -1.4010    0.4490   -0.8620 N.am      6 SEP2        0.0000 
     81 CA          2.9290    3.5970   -3.3490 C.3       4 GLC5        0.0000 
     82 CA          1.3100    2.7430   -3.3070 C.3      12 GLL5        0.0000 
     83 CA          4.5480    4.4510   -3.3910 C.3       8 GLP5        0.0000 
     84 CA         -1.2845    3.6285   -4.5815 C.3       4 GLC5        0.0000 
     85 CA          0.0200    2.2760   -4.0380 C.3      12 GLL5        0.0000 
     86 N          -1.3500    0.3175   -2.3850 N.am      2 SEC2        0.0000 
     87 N          -1.2990    0.1860   -3.9080 N.am     10 SEL2        0.0000 
     88 O          -2.4535    0.8055   -4.3650 O.2       1 ALC1        0.0000 
     89 O          -1.2990    0.1860   -3.9080 O.2       9 ALL1        0.0000 
     90 O          -3.6080    1.4250   -4.8220 O.2       5 ALP1        0.0000 
     91 O          -1.9560   -0.2815   -6.3540 O.2       1 ALC1        0.0000 
     92 O          -0.6850   -0.3170   -6.4940 O.2       9 ALL1        0.0000 
     93 O          -3.2270   -0.2460   -6.2140 O.2       5 ALP1        0.0000 
     94 CA         -1.6030    3.5280   -5.6795 C.3       4 GLC5        0.0000 
     95 CA         -0.6170    2.0750   -6.2340 C.3      12 GLL5        0.0000 
     96 CA         -1.2418    5.6500   -9.6517 C.3       4 GLC5        0.0000 
     97 CA         -0.2470    3.5370   -9.5550 C.3      12 GLL5        0.0000 
     98 CA         -0.3997    1.9830  -10.4047 C.3       4 GLC5        0.0000 
     99 CA         -0.2500    0.1870  -10.6850 C.3       8 GLP5        0.0000 
    100 CA          0.2549    5.1387   -8.6669 C.3       4 GLC5        0.0000 
    101 CA          1.3100    6.8550   -8.0230 C.3       8 GLP5        0.0000 
    102 CA          9.2485   -4.9620    4.8700 C.3       4 GLC5        0.0000 
    103 CA          7.7370   -3.4010    6.0040 C.3      12 GLL5        0.0000 
    104 CA         10.8380   -5.8580    3.9500 C.3       8 GLP5        0.0000 
    105 CA          6.0095   -4.1175    6.7345 C.3       4 GLC5        0.0000 
    106 CA          7.5810   -4.7310    5.5760 C.3      12 GLL5        0.0000 
    107 CA          4.3600   -4.1690    7.6790 C.3       8 GLP5        0.0000 
    108 CA          9.0657   -5.7743    3.9505 C.3       4 GLC5        0.0000 
    109 CA          7.3770   -4.9730    4.2150 C.3      12 GLL5        0.0000 
    110 CA          5.1568   -4.1481    2.9794 C.3       4 GLC5        0.0000 
    111 CA          3.1700   -3.9970    3.1570 C.3       8 GLP5        0.0000 
    112 CA          8.9653   -4.2070    2.9275 C.3       4 GLC5        0.0000 
    113 CA          7.2430   -3.8960    3.3240 C.3      12 GLL5        0.0000 
    114 CA         10.6730   -5.1050    2.6880 C.3       8 GLP5        0.0000 
    115 CA          7.6190    2.3769    4.8628 C.3       4 GLC5        0.0000 
    116 CA          6.0720    1.5600    3.2040 C.3      12 GLL5        0.0000 
    117 CA          8.7590    3.8030    5.8940 C.3       8 GLP5        0.0000 
    118 CA          5.2265    2.5383    5.1255 C.3       4 GLC5        0.0000 
    119 CA          6.1540    0.5800    4.3820 C.3      12 GLL5        0.0000 
    120 CA          5.0920    3.5680    6.8910 C.3       8 GLP5        0.0000 
    121 CA          1.3240    4.1677   -4.7617 C.3       4 GLC5        0.0000 
    122 CA          1.9830    5.8260   -5.8510 C.3       8 GLP5        0.0000 
    123 CA         -0.9848    0.5243   -7.8865 C.3       4 GLC5        0.0000 
@<TRIPOS>BOND
@<TRIPOS>SUBSTRUCTURE
     1 ALC1       14 GROUP        1 X    ALC  0     ROOT ALC X 1
     2 SEC2        4 GROUP        1 X    SEC  0     **** SEC X 2
     3 LYC4        1 GROUP        1 X    LYC  0     **** LYC X 4
     4 GLC5        9 GROUP        1 X    GLC  0     **** GLC X 6
     5 ALP1       16 GROUP        1 Y    ALP  0     ROOT ALP Y 8
     6 SEP2        6 GROUP        1 Y    SEP  0     **** SEP Y 9
     7 LYP4        3 GROUP        1 Y    LYP  0     **** LYP Y 11
     8 GLP5       11 GROUP        1 Y    GLP  0     **** GLP Y 13
     9 ALL1       15 GROUP        1 Z    ALL  0     ROOT ALL Z 15
    10 SEL2        5 GROUP        1 Z    SEL  0     **** SEL Z 16
    11 LYL4        2 GROUP        1 Z    LYL  0     **** LYL Z 18
    12 GLL5       10 GROUP        1 Z    GLL  0     **** GLL Z 20
@<TRIPOS>SET

