#    Name: 2cdu_FAD_1_ligand
#    Modification time : Mon Mar 24 23:33:54 2014

@<TRIPOS>MOLECULE
2cdu_FAD_1_ligand
   84    89     1     0     0
SMALL
NO_CHARGES


@<TRIPOS>ATOM
      1 PA          2.6760    1.7860   -1.2410 P.3       1 FAD500      0.0000 
      2 O1A         3.7760    1.2880   -2.1250 O.co2     1 FAD500      0.0000 
      3 O2A         2.2590    0.9180   -0.1150 O.co2     1 FAD500      0.0000 
      4 N9A        -0.2280    2.6250   -7.5440 N.pl3     1 FAD500      0.0000 
      5 C8A         1.0120    2.8160   -7.9930 C.2       1 FAD500      0.0000 
      6 N7A         1.0160    3.3530   -9.2070 N.2       1 FAD500      0.0000 
      7 C5A        -0.2470    3.5370   -9.5550 C.ar      1 FAD500      0.0000 
      8 C6A        -0.8520    4.0210  -10.6940 C.ar      1 FAD500      0.0000 
      9 N6A        -0.1140    4.4710  -11.6880 N.pl3     1 FAD500      0.0000 
     10 N1A        -2.2160    4.0590  -10.7240 N.ar      1 FAD500      0.0000 
     11 C2A        -2.9410    3.6220   -9.7040 C.ar      1 FAD500      0.0000 
     12 N3A        -2.3790    3.1140   -8.5940 N.ar      1 FAD500      0.0000 
     13 C4A        -1.0510    3.0660   -8.4970 C.ar      1 FAD500      0.0000 
     14 N1          7.6650    0.5370    7.3600 N.2       1 FAD500      0.0000 
     15 C2          7.6450    0.8540    8.7150 C.2       1 FAD500      0.0000 
     16 O2          7.5710    2.0330    9.1100 O.2       1 FAD500      0.0000 
     17 N3          7.7130   -0.2030    9.6210 N.am      1 FAD500      0.0000 
     18 C4          7.8120   -1.5190    9.2080 C.2       1 FAD500      0.0000 
     19 O4          7.8410   -2.3880   10.0950 O.2       1 FAD500      0.0000 
     20 C4X         7.8440   -1.8060    7.8280 C.2       1 FAD500      0.0000 
     21 N5          7.9400   -3.1140    7.3470 N.2       1 FAD500      0.0000 
     22 C5X         7.7370   -3.4010    6.0040 C.ar      1 FAD500      0.0000 
     23 C6          7.5810   -4.7310    5.5760 C.ar      1 FAD500      0.0000 
     24 C7          7.3770   -4.9730    4.2150 C.ar      1 FAD500      0.0000 
     25 C7M         7.2100   -6.4080    3.6870 C.3       1 FAD500      0.0000 
     26 C8          7.2430   -3.8960    3.3240 C.ar      1 FAD500      0.0000 
     27 C8M         6.9770   -4.1640    1.8340 C.3       1 FAD500      0.0000 
     28 C9          7.4050   -2.5880    3.7550 C.ar      1 FAD500      0.0000 
     29 C9A         7.6550   -2.3390    5.0940 C.ar      1 FAD500      0.0000 
     30 N10         7.7530   -1.0000    5.5400 N.pl3     1 FAD500      0.0000 
     31 C10         7.7870   -0.7520    6.9100 C.2       1 FAD500      0.0000 
     32 C1'         7.6180    0.1030    4.5360 C.3       1 FAD500      0.0000 
     33 C2'         6.1540    0.5800    4.3820 C.3       1 FAD500      0.0000 
     34 O2'         5.2300   -0.5010    4.0690 O.3       1 FAD500      0.0000 
     35 C3'         6.0720    1.5600    3.2040 C.3       1 FAD500      0.0000 
     36 O3'         6.8140    2.7240    3.5300 O.3       1 FAD500      0.0000 
     37 C4'         4.6090    1.9470    2.9270 C.3       1 FAD500      0.0000 
     38 O4'         3.8090    0.8060    2.5640 O.3       1 FAD500      0.0000 
     39 C5'         4.5110    2.9310    1.7740 C.3       1 FAD500      0.0000 
     40 O5'         3.1570    3.4250    1.7320 O.3       1 FAD500      0.0000 
     41 P           2.7460    4.2120    0.4480 P.3       1 FAD500      0.0000 
     42 O1P         1.3130    4.5090    0.5780 O.co2     1 FAD500      0.0000 
     43 O2P         3.7150    5.2980    0.2450 O.co2     1 FAD500      0.0000 
     44 O3P         3.1120    3.2520   -0.8070 O.3       1 FAD500      0.0000 
     45 O5B         1.3450    1.9850   -2.1230 O.3       1 FAD500      0.0000 
     46 C5B         1.3100    2.7430   -3.3070 C.3       1 FAD500      0.0000 
     47 C4B         0.0200    2.2760   -4.0380 C.3       1 FAD500      0.0000 
     48 O4B         0.0030    2.9930   -5.2990 O.3       1 FAD500      0.0000 
     49 C3B        -0.0410    0.7610   -4.3550 C.3       1 FAD500      0.0000 
     50 O3B        -1.2990    0.1860   -3.9080 O.3       1 FAD500      0.0000 
     51 C2B         0.0760    0.7340   -5.8700 C.3       1 FAD500      0.0000 
     52 O2B        -0.6850   -0.3170   -6.4940 O.3       1 FAD500      0.0000 
     53 C1B        -0.6170    2.0750   -6.2340 C.3       1 FAD500      0.0000 
     54 H           1.8310    2.5841   -7.4801 H         1 FAD500      0.0000 
     55 H           0.8745    4.4722  -11.5367 H         1 FAD500      0.0000 
     56 H          -0.6094    4.7704  -12.5034 H         1 FAD500      0.0000 
     57 H          -3.9996    3.6714   -9.7579 H         1 FAD500      0.0000 
     58 H           7.6881    0.0103   10.6423 H         1 FAD500      0.0000 
     59 H           7.6163   -5.4941    6.2425 H         1 FAD500      0.0000 
     60 H           7.3400   -1.8121    3.0870 H         1 FAD500      0.0000 
     61 H           7.9725   -0.2341    3.5549 H         1 FAD500      0.0000 
     62 H           8.2279    0.9632    4.8360 H         1 FAD500      0.0000 
     63 H           5.8590    1.1040    5.2633 H         1 FAD500      0.0000 
     64 H           6.4627    1.0708    2.3319 H         1 FAD500      0.0000 
     65 H           4.2064    2.4276    3.8072 H         1 FAD500      0.0000 
     66 H           4.7744    2.4113    0.8563 H         1 FAD500      0.0000 
     67 H           5.2232    3.7339    1.9469 H         1 FAD500      0.0000 
     68 H           2.1384    2.5419   -3.9648 H         1 FAD500      0.0000 
     69 H           1.2105    3.8006   -3.1315 H         1 FAD500      0.0000 
     70 H          -0.8272    2.5518   -3.4494 H         1 FAD500      0.0000 
     71 H           0.8098    0.3057   -3.9357 H         1 FAD500      0.0000 
     72 H           1.0667    0.8028   -6.1601 H         1 FAD500      0.0000 
     73 H          -1.6271    2.0176   -6.0844 H         1 FAD500      0.0000 
     74 H           8.0127   -6.9714    3.8824 H         1 FAD500      0.0000 
     75 H           6.4228   -6.8663    4.0996 H         1 FAD500      0.0000 
     76 H           7.0735   -6.4258    2.6965 H         1 FAD500      0.0000 
     77 H           7.7112   -4.6991    1.4160 H         1 FAD500      0.0000 
     78 H           6.1274   -4.6726    1.6940 H         1 FAD500      0.0000 
     79 H           6.8996   -3.3146    1.3119 H         1 FAD500      0.0000 
     80 H           4.9472   -0.3342    3.1244 H         1 FAD500      0.0000 
     81 H           6.9836    3.1763    2.6544 H         1 FAD500      0.0000 
     82 H           3.4504    1.0200    1.6553 H         1 FAD500      0.0000 
     83 H          -2.0068    0.7510   -4.3320 H         1 FAD500      0.0000 
     84 H          -1.5674    0.0985   -6.7147 H         1 FAD500      0.0000 
@<TRIPOS>BOND
     1    2    1 ar   
     2    3    1 ar   
     3   44    1 1    
     4   45    1 1    
     5    5    4 1    
     6   13    4 1    
     7   53    4 1    
     8    6    5 2    
     9   54    5 1    
    10    7    6 1    
    11    8    7 ar   
    12   13    7 ar   
    13    9    8 1    
    14   10    8 ar   
    15   55    9 1    
    16   56    9 1    
    17   11   10 ar   
    18   12   11 ar   
    19   57   11 1    
    20   13   12 ar   
    21   15   14 1    
    22   31   14 2    
    23   16   15 2    
    24   17   15 am   
    25   18   17 am   
    26   58   17 1    
    27   19   18 2    
    28   20   18 1    
    29   21   20 2    
    30   31   20 1    
    31   22   21 1    
    32   23   22 ar   
    33   29   22 ar   
    34   24   23 ar   
    35   59   23 1    
    36   25   24 1    
    37   26   24 ar   
    38   74   25 1    
    39   75   25 1    
    40   76   25 1    
    41   27   26 1    
    42   28   26 ar   
    43   77   27 1    
    44   78   27 1    
    45   79   27 1    
    46   29   28 ar   
    47   60   28 1    
    48   30   29 1    
    49   31   30 1    
    50   32   30 1    
    51   33   32 1    
    52   61   32 1    
    53   62   32 1    
    54   34   33 1    
    55   35   33 1    
    56   63   33 1    
    57   80   34 1    
    58   36   35 1    
    59   37   35 1    
    60   64   35 1    
    61   81   36 1    
    62   38   37 1    
    63   39   37 1    
    64   65   37 1    
    65   82   38 1    
    66   40   39 1    
    67   66   39 1    
    68   67   39 1    
    69   41   40 1    
    70   42   41 ar   
    71   43   41 ar   
    72   44   41 1    
    73   46   45 1    
    74   47   46 1    
    75   68   46 1    
    76   69   46 1    
    77   48   47 1    
    78   49   47 1    
    79   70   47 1    
    80   53   48 1    
    81   50   49 1    
    82   51   49 1    
    83   71   49 1    
    84   83   50 1    
    85   52   51 1    
    86   53   51 1    
    87   72   51 1    
    88   84   52 1    
    89   73   53 1    
@<TRIPOS>SUBSTRUCTURE
     1 FAD500      1 GROUP   
@<TRIPOS>SET

