#    Name: 2yix_YIX_1_INTS_M
#    Modification time : Tue Mar 25 09:23:22 2014

@<TRIPOS>MOLECULE
2yix_YIX_1_INTS_M
   86     0     9     0     0
SMALL
NO_CHARGES


@<TRIPOS>ATOM
      1 CA          9.1980   17.5835   34.5920 C.3       3 GLC5        0.0000 
      2 CA          8.5280   17.2300   36.3980 C.3       9 GLL5        0.0000 
      3 CA          9.8680   17.9370   32.7860 C.3       6 GLP5        0.0000 
      4 CA         10.0440   17.3835   37.2825 C.3       3 GLC5        0.0000 
      5 CA         11.5600   17.5370   38.1670 C.3       6 GLP5        0.0000 
      6 CA          8.3970   16.3825   38.0335 C.3       3 GLC5        0.0000 
      7 CA          8.2660   15.5350   39.6690 C.3       6 GLP5        0.0000 
      8 CA          5.3260   17.2195   36.4310 C.3       3 GLC5        0.0000 
      9 CA          7.1460   16.5010   36.3100 C.3       9 GLL5        0.0000 
     10 CA          3.5060   17.9380   36.5520 C.3       6 GLP5        0.0000 
     11 CA          7.3915   15.4650   37.7240 C.3       3 GLC5        0.0000 
     12 CA          7.6370   14.4290   39.1380 C.3       6 GLP5        0.0000 
     13 O           7.4000   16.6910   33.3145 O.2       1 ALC1        0.0000 
     14 O           6.9180   16.2210   34.8940 O.2       7 ALL1        0.0000 
     15 O           7.8820   17.1610   31.7350 O.2       4 ALP1        0.0000 
     16 N           4.2820   15.6335   35.8520 N.am      2 SEC2        0.0000 
     17 N           5.2290   14.7830   35.1330 N.am      8 SEL2        0.0000 
     18 N           3.3350   16.4840   36.5710 N.am      5 SEP2        0.0000 
     19 O           6.8735   16.1840   32.3915 O.2       1 ALC1        0.0000 
     20 O           5.8650   15.2070   33.0480 O.2       7 ALL1        0.0000 
     21 CA          3.0830   13.7480   33.5560 C.3       3 GLC5        0.0000 
     22 CA          4.8920   14.3470   32.3640 C.3       9 GLL5        0.0000 
     23 CA          1.2740   13.1490   34.7480 C.3       6 GLP5        0.0000 
     24 CA          8.4745   13.7170   32.1065 C.3       3 GLC5        0.0000 
     25 CA          6.8000   13.1650   31.0270 C.3       9 GLL5        0.0000 
     26 CA         10.1490   14.2690   33.1860 C.3       6 GLP5        0.0000 
     27 CA          9.0640   12.6275   29.4120 C.3       3 GLC5        0.0000 
     28 CA          7.2070   12.3470   29.9600 C.3       9 GLL5        0.0000 
     29 CA         10.9210   12.9080   28.8640 C.3       6 GLP5        0.0000 
     30 CA          1.5315   14.2955   29.4080 C.3       3 GLC5        0.0000 
     31 CA          2.6740   13.3220   30.4940 C.3       9 GLL5        0.0000 
     32 CA          0.3890   15.2690   28.3220 C.3       6 GLP5        0.0000 
     33 CA          3.0535   13.5480   28.2915 C.3       3 GLC5        0.0000 
     34 CA          3.4330   13.7740   26.0890 C.3       6 GLP5        0.0000 
     35 CA          1.9740   13.2355   32.6210 C.3       3 GLC5        0.0000 
     36 CA          3.9935   10.2595   33.4185 C.3       3 GLC5        0.0000 
     37 CA          2.9500   10.7500   31.6200 C.3       9 GLL5        0.0000 
     38 CA          5.0370    9.7690   35.2170 C.3       6 GLP5        0.0000 
     39 CA          3.2595    9.0435   33.5615 C.3       3 GLC5        0.0000 
     40 CA          2.4100    9.4980   31.9660 C.3       9 GLL5        0.0000 
     41 CA          4.1090    8.5890   35.1570 C.3       6 GLP5        0.0000 
     42 N           0.0645    6.7405   31.9580 N.am      2 SEC2        0.0000 
     43 N           0.2130    8.1030   31.8050 N.am      8 SEL2        0.0000 
     44 N          -0.0840    5.3780   32.1110 N.am      5 SEP2        0.0000 
     45 N          -0.5180    6.8825   31.7160 N.am      2 SEC2        0.0000 
     46 N          -0.9520    8.3870   31.3210 N.am      8 SEL2        0.0000 
     47 N          -1.7735    6.9585   31.2265 N.am      2 SEC2        0.0000 
     48 N          -2.5950    5.5300   31.1320 N.am      5 SEP2        0.0000 
     49 CA         -0.9955    8.2450   28.4190 C.3       3 GLC5        0.0000 
     50 CA         -2.3640    9.9260   28.7240 C.3       9 GLL5        0.0000 
     51 CA          0.3730    6.5640   28.1140 C.3       6 GLP5        0.0000 
     52 CA         -3.2410   12.1525   30.7895 C.3       3 GLC5        0.0000 
     53 CA         -3.4370   10.1460   30.8860 C.3       9 GLL5        0.0000 
     54 CA         -3.0450   14.1590   30.6930 C.3       6 GLP5        0.0000 
     55 CA         -4.7910    8.9295   31.3625 C.3       3 GLC5        0.0000 
     56 CA         -6.1450    7.7130   31.8390 C.3       6 GLP5        0.0000 
     57 CA         -4.7945   11.1845   32.2920 C.3       3 GLC5        0.0000 
     58 CA         -6.1520   12.2230   33.6980 C.3       6 GLP5        0.0000 
     59 CA          8.4860   15.1523   35.8820 C.3       3 GLC5        0.0000 
     60 CA          9.1350   13.4390   35.4100 C.3       6 GLP5        0.0000 
     61 CA          7.1545   18.4413   35.5990 C.3       3 GLC5        0.0000 
     62 CA          6.4720   20.0170   34.8440 C.3       6 GLP5        0.0000 
     63 CA          6.0697   11.2082   31.4115 C.3       3 GLC5        0.0000 
     64 CA          6.0340    9.0890   31.7170 C.3       6 GLP5        0.0000 
     65 CA          6.3807   10.5920   30.6100 C.3       3 GLC5        0.0000 
     66 CA          6.2480   11.8430   29.0460 C.3       9 GLL5        0.0000 
     67 CA          4.6668   10.1947   28.7460 C.3       3 GLC5        0.0000 
     68 CA          3.7650    8.3960   28.3750 C.3       6 GLP5        0.0000 
     69 CA          4.0505   13.1650   27.9070 C.3       3 GLC5        0.0000 
     70 CA          4.8890   12.1440   29.1880 C.3       9 GLL5        0.0000 
     71 CA          6.4426   13.0228   27.8272 C.3       3 GLC5        0.0000 
     72 CA          7.0770   13.9260   26.3090 C.3       6 GLP5        0.0000 
     73 CA          5.3510   10.8225   30.7210 C.3       3 GLC5        0.0000 
     74 CA          6.0456   14.6869   29.5810 C.3       3 GLC5        0.0000 
     75 CA          4.4470   12.9680   30.2620 C.3       9 GLL5        0.0000 
     76 CA          6.8150   16.2260   28.4780 C.3       6 GLP5        0.0000 
     77 CA          0.6600   12.2892   32.4885 C.3       3 GLC5        0.0000 
     78 CA          2.1030   11.7270   30.9540 C.3       9 GLL5        0.0000 
     79 CA         -0.1170   13.0080   34.1640 C.3       6 GLP5        0.0000 
     80 CA          3.2225    9.2600   30.0840 C.3       3 GLC5        0.0000 
     81 CA          4.3570    9.6065   31.7550 C.3       3 GLC5        0.0000 
     82 CA          2.2370   10.9650   33.5240 C.3       3 GLC5        0.0000 
     83 CA          1.7940   11.8060   35.2550 C.3       6 GLP5        0.0000 
     84 CA         -2.6347   12.0145   29.3882 C.3       3 GLC5        0.0000 
     85 CA         -2.1310   10.3600   30.1590 C.3       9 GLL5        0.0000 
     86 CA         -3.0220   13.8860   29.3350 C.3       6 GLP5        0.0000 
@<TRIPOS>BOND
@<TRIPOS>SUBSTRUCTURE
     1 ALC1       13 GROUP        1 X    ALC  0     ROOT ALC X 1
     2 SEC2       16 GROUP        1 X    SEC  0     **** SEC X 2
     3 GLC5        1 GROUP        1 X    GLC  0     **** GLC X 6
     4 ALP1       15 GROUP        1 Y    ALP  0     ROOT ALP Y 8
     5 SEP2       18 GROUP        1 Y    SEP  0     **** SEP Y 9
     6 GLP5        3 GROUP        1 Y    GLP  0     **** GLP Y 13
     7 ALL1       14 GROUP        1 Z    ALL  0     ROOT ALL Z 15
     8 SEL2       17 GROUP        1 Z    SEL  0     **** SEL Z 16
     9 GLL5        2 GROUP        1 Z    GLL  0     **** GLL Z 20
@<TRIPOS>SET

