#    Name: 2yix_YIX_1_ligand
#    Modification time : Tue Mar 25 09:23:22 2014

@<TRIPOS>MOLECULE
2yix_YIX_1_ligand
   49    51     1     0     0
SMALL
NO_CHARGES


@<TRIPOS>ATOM
      1 C1          8.5280   17.2300   36.3980 C.3       1 YIX1355     0.0000 
      2 C2          7.1460   16.5010   36.3100 C.3       1 YIX1355     0.0000 
      3 N3          6.9180   16.2210   34.8940 N.am      1 YIX1355     0.0000 
      4 C4          5.9700   15.3700   34.3970 C.2       1 YIX1355     0.0000 
      5 O5          5.2290   14.7830   35.1330 O.2       1 YIX1355     0.0000 
      6 N6          5.8650   15.2070   33.0480 N.am      1 YIX1355     0.0000 
      7 C7          4.8920   14.3470   32.3640 C.3       1 YIX1355     0.0000 
      8 C8          5.4110   13.4900   31.1850 C.ar      1 YIX1355     0.0000 
      9 C9          6.8000   13.1650   31.0270 C.ar      1 YIX1355     0.0000 
     10 C10         7.2070   12.3470   29.9600 C.ar      1 YIX1355     0.0000 
     11 C11         6.2480   11.8430   29.0460 C.ar      1 YIX1355     0.0000 
     12 C12         4.8890   12.1440   29.1880 C.ar      1 YIX1355     0.0000 
     13 C13         4.4470   12.9680   30.2620 C.ar      1 YIX1355     0.0000 
     14 S14         2.6740   13.3220   30.4940 S.3       1 YIX1355     0.0000 
     15 C15         2.1030   11.7270   30.9540 C.2       1 YIX1355     0.0000 
     16 C16         2.9500   10.7500   31.6200 C.2       1 YIX1355     0.0000 
     17 C17         2.4100    9.4980   31.9660 C.2       1 YIX1355     0.0000 
     18 C18         1.0220    9.1850   31.6420 C.2       1 YIX1355     0.0000 
     19 N19         0.2130    8.1030   31.8050 N.2       1 YIX1355     0.0000 
     20 N20        -0.9520    8.3870   31.3210 N.2       1 YIX1355     0.0000 
     21 C21        -0.9800    9.6140   30.8150 C.2       1 YIX1355     0.0000 
     22 C22        -2.1310   10.3600   30.1590 C.3       1 YIX1355     0.0000 
     23 C23        -2.3640    9.9260   28.7240 C.3       1 YIX1355     0.0000 
     24 C24        -3.4370   10.1460   30.8860 C.3       1 YIX1355     0.0000 
     25 N25         0.2480   10.1580   30.9960 N.pl3     1 YIX1355     0.0000 
     26 C26         0.7710   11.4140   30.6720 C.2       1 YIX1355     0.0000 
     27 H           6.4016   17.1634   36.7121 H         1 YIX1355     0.0000 
     28 H           7.2153   15.5994   36.8904 H         1 YIX1355     0.0000 
     29 H           7.5589   16.7380   34.2261 H         1 YIX1355     0.0000 
     30 H           6.5253   15.7295   32.4014 H         1 YIX1355     0.0000 
     31 H           4.0392   14.9625   31.9735 H         1 YIX1355     0.0000 
     32 H           4.4145   13.6444   33.0968 H         1 YIX1355     0.0000 
     33 H           7.4760   13.5320   31.6917 H         1 YIX1355     0.0000 
     34 H           8.1939   12.1119   29.8378 H         1 YIX1355     0.0000 
     35 H           6.5642   11.2470   28.2683 H         1 YIX1355     0.0000 
     36 H           4.2029   11.7768   28.5247 H         1 YIX1355     0.0000 
     37 H           3.9095   10.9878   31.8218 H         1 YIX1355     0.0000 
     38 H           2.9675    8.7958   32.4419 H         1 YIX1355     0.0000 
     39 H          -1.9176   11.4242   30.1563 H         1 YIX1355     0.0000 
     40 H           0.1663   12.1162   30.2201 H         1 YIX1355     0.0000 
     41 H           9.2696   16.6650   36.0363 H         1 YIX1355     0.0000 
     42 H           8.5308   18.0847   35.8789 H         1 YIX1355     0.0000 
     43 H           8.7675   17.4593   37.3414 H         1 YIX1355     0.0000 
     44 H          -1.5594   10.0864   28.1522 H         1 YIX1355     0.0000 
     45 H          -2.5788    8.9514   28.6610 H         1 YIX1355     0.0000 
     46 H          -3.1249   10.4215   28.3050 H         1 YIX1355     0.0000 
     47 H          -3.6932    9.1797   30.9127 H         1 YIX1355     0.0000 
     48 H          -3.3911   10.4633   31.8332 H         1 YIX1355     0.0000 
     49 H          -4.1904   10.6370   30.4485 H         1 YIX1355     0.0000 
@<TRIPOS>BOND
     1    2    1 1    
     2   41    1 1    
     3   42    1 1    
     4   43    1 1    
     5    3    2 1    
     6   27    2 1    
     7   28    2 1    
     8    4    3 am   
     9   29    3 1    
    10    5    4 2    
    11    6    4 am   
    12    7    6 1    
    13   30    6 1    
    14    8    7 1    
    15   31    7 1    
    16   32    7 1    
    17    9    8 ar   
    18   13    8 ar   
    19   10    9 ar   
    20   33    9 1    
    21   11   10 ar   
    22   34   10 1    
    23   12   11 ar   
    24   35   11 1    
    25   13   12 ar   
    26   36   12 1    
    27   14   13 1    
    28   15   14 1    
    29   16   15 1    
    30   26   15 2    
    31   17   16 2    
    32   37   16 1    
    33   18   17 1    
    34   38   17 1    
    35   19   18 2    
    36   25   18 1    
    37   20   19 1    
    38   21   20 2    
    39   22   21 1    
    40   25   21 1    
    41   23   22 1    
    42   24   22 1    
    43   39   22 1    
    44   44   23 1    
    45   45   23 1    
    46   46   23 1    
    47   47   24 1    
    48   48   24 1    
    49   49   24 1    
    50   26   25 1    
    51   40   26 1    
@<TRIPOS>SUBSTRUCTURE
     1 YIX1355     1 GROUP   
@<TRIPOS>SET

