#    Name: 3tqa_NDP_1_INTS_M
#    Modification time : Mon Mar 24 20:48:42 2014

@<TRIPOS>MOLECULE
3tqa_NDP_1_INTS_M
  106     0    12     0     0
SMALL
NO_CHARGES


@<TRIPOS>ATOM
      1 N          18.4470    7.0380    7.9530 N.am      2 SEC2        0.0000 
      2 N          18.8700    8.2210    6.9960 N.am     10 SEL2        0.0000 
      3 N          18.0240    5.8550    8.9100 N.am      6 SEP2        0.0000 
      4 N          20.2250    8.7730   10.8310 N.am      2 SEC2        0.0000 
      5 N          19.4730    8.3750    9.5360 N.am     10 SEL2        0.0000 
      6 N          20.9770    9.1710   12.1260 N.am      6 SEP2        0.0000 
      7 N          19.0835    7.8470   10.5830 N.am      2 SEC2        0.0000 
      8 N          18.6940    7.3190   11.6300 N.am      6 SEP2        0.0000 
      9 N          18.7485    7.1150    9.2230 N.am      2 SEC2        0.0000 
     10 CA         24.3470    9.9280    7.9965 C.3       4 GLC5        0.0000 
     11 CA         22.7610   10.2010    6.5380 C.3      12 GLL5        0.0000 
     12 CA         25.9330    9.6550    9.4550 C.3       8 GLP5        0.0000 
     13 N          23.6750    8.4275    7.9425 N.am      2 SEC2        0.0000 
     14 N          23.2410    8.8530    6.4890 N.am     10 SEL2        0.0000 
     15 N          24.1090    8.0020    9.3960 N.am      6 SEP2        0.0000 
     16 CA         25.0820    9.1855    7.4605 C.3       4 GLC5        0.0000 
     17 CA         24.2310    8.7160    5.4660 C.3      12 GLL5        0.0000 
     18 CA         21.9945    7.8310    2.2285 C.3       4 GLC5        0.0000 
     19 CA         23.5600    6.5360    2.5570 C.3      12 GLL5        0.0000 
     20 CA         20.4290    9.1260    1.9000 C.3       8 GLP5        0.0000 
     21 CA         22.6095    5.3195    3.8150 C.3       4 GLC5        0.0000 
     22 CA         21.6590    4.1030    5.0730 C.3       8 GLP5        0.0000 
     23 O          22.4615    4.2525    0.3810 O.2       1 ALC1        0.0000 
     24 O          23.3970    5.0790    0.5690 O.2       9 ALL1        0.0000 
     25 O          21.5260    3.4260    0.1930 O.2       5 ALP1        0.0000 
     26 CA         26.0355    5.3010    3.3560 C.3       4 GLC5        0.0000 
     27 CA         26.2900    6.5410    2.1250 C.3      12 GLL5        0.0000 
     28 CA         25.7810    4.0610    4.5870 C.3       8 GLP5        0.0000 
     29 CA         27.2575    7.1080    3.9770 C.3       4 GLC5        0.0000 
     30 CA         28.2250    7.6750    5.8290 C.3       8 GLP5        0.0000 
     31 CA         27.1535    7.9130    1.6415 C.3       4 GLC5        0.0000 
     32 CA         28.0170    9.2850    1.1580 C.3       8 GLP5        0.0000 
     33 CA         26.9500    4.5025    1.7370 C.3       4 GLC5        0.0000 
     34 CA         27.6100    2.4640    1.3490 C.3       8 GLP5        0.0000 
     35 CA         26.3505    7.4770    4.6320 C.3       4 GLC5        0.0000 
     36 CA         24.4760    7.2790    3.4350 C.3      12 GLL5        0.0000 
     37 N          18.8975   11.8545    7.3360 N.am      2 SEC2        0.0000 
     38 N          18.7610   10.4550    8.2440 N.am     10 SEL2        0.0000 
     39 N          19.0340   13.2540    6.4280 N.am      6 SEP2        0.0000 
     40 N          15.9470    8.7835    7.0900 N.am      2 SEC2        0.0000 
     41 N          16.5550   10.0530    7.0310 N.am     10 SEL2        0.0000 
     42 N          15.3390    7.5140    7.1490 N.am      6 SEP2        0.0000 
     43 N          16.4860    8.8705    5.7625 N.am      2 SEC2        0.0000 
     44 N          16.4170    7.6880    4.4940 N.am      6 SEP2        0.0000 
     45 N          17.9975   12.7215    7.4495 N.am      2 SEC2        0.0000 
     46 N          16.9610   12.1890    8.4710 N.am     10 SEL2        0.0000 
     47 CA         18.9260   11.1605   10.6235 C.3       4 GLC5        0.0000 
     48 CA         16.8200   10.4770   10.8720 C.3      12 GLL5        0.0000 
     49 CA         21.0320   11.8440   10.3750 C.3       8 GLP5        0.0000 
     50 CA         16.7785    8.5165    9.8720 C.3       4 GLC5        0.0000 
     51 CA         16.7370    6.5560    8.8720 C.3       8 GLP5        0.0000 
     52 CA         13.7290   11.3705   10.5770 C.3       4 GLC5        0.0000 
     53 CA         15.4350   10.7700   11.4360 C.3      12 GLL5        0.0000 
     54 CA         12.0230   11.9710    9.7180 C.3       8 GLP5        0.0000 
     55 CA         15.8600   13.0145   13.4165 C.3       4 GLC5        0.0000 
     56 CA         15.4830   11.2440   12.8810 C.3      12 GLL5        0.0000 
     57 CA         16.2370   14.7850   13.9520 C.3       8 GLP5        0.0000 
     58 O          13.4670   12.4895   14.3890 O.2       1 ALC1        0.0000 
     59 O          14.5370   12.2970   13.0840 O.2       9 ALL1        0.0000 
     60 O          12.3970   12.6820   15.6940 O.2       5 ALP1        0.0000 
     61 CA         12.5860   10.5075   12.8025 C.3       4 GLC5        0.0000 
     62 CA         14.2150    9.2340   12.7360 C.3      12 GLL5        0.0000 
     63 CA         10.9570   11.7810   12.8690 C.3       8 GLP5        0.0000 
     64 N          10.8275    3.1385   14.3160 N.am      2 SEC2        0.0000 
     65 N          12.0230    3.8970   14.4390 N.am     10 SEL2        0.0000 
     66 N           9.6320    2.3800   14.1930 N.am      6 SEP2        0.0000 
     67 O           9.7070    5.3890   14.0970 O.2       1 ALC1        0.0000 
     68 O          10.8920    5.8200   14.4470 O.2       9 ALL1        0.0000 
     69 O           8.5220    4.9580   13.7470 O.2       5 ALP1        0.0000 
     70 O          10.6915    7.5085   14.0915 O.2       1 ALC1        0.0000 
     71 O          10.4910    9.1970   13.7360 O.2       5 ALP1        0.0000 
     72 CA         16.2850    4.8010   11.3195 C.3       4 GLC5        0.0000 
     73 CA         15.6200    5.7900   12.9220 C.3      12 GLL5        0.0000 
     74 CA         16.9500    3.8120    9.7170 C.3       8 GLP5        0.0000 
     75 NZ         25.7600   13.7125    6.8635 N.4       3 LYC4        0.0000 
     76 NZ         25.7890   12.9770    5.4920 N.4      11 LYL4        0.0000 
     77 NZ         25.8580   13.8070    9.3920 N.4       7 LYP4        0.0000 
     78 N          25.7600   13.7125    6.8635 N.am      2 SEC2        0.0000 
     79 N          25.7890   12.9770    5.4920 N.am     10 SEL2        0.0000 
     80 N          25.7310   14.4480    8.2350 N.am      6 SEP2        0.0000 
     81 NZ         26.9930   12.1680    8.1145 N.4       3 LYC4        0.0000 
     82 NZ         27.5460   11.7260    6.8090 N.4      11 LYL4        0.0000 
     83 N          26.9930   12.1680    8.1145 N.am      2 SEC2        0.0000 
     84 N          27.5460   11.7260    6.8090 N.am     10 SEL2        0.0000 
     85 N          26.4400   12.6100    9.4200 N.am      6 SEP2        0.0000 
     86 N          28.3825   10.7085    6.7920 N.am      2 SEC2        0.0000 
     87 N          29.2190    9.6910    6.7750 N.am      6 SEP2        0.0000 
     88 N          28.5080   12.6600    7.4415 N.am      2 SEC2        0.0000 
     89 N          29.4700   13.5940    8.0740 N.am      6 SEP2        0.0000 
     90 N          28.1850   10.1500    4.1535 N.am      2 SEC2        0.0000 
     91 N          27.2970   11.2870    4.3200 N.am     10 SEL2        0.0000 
     92 N          29.0730    9.0130    3.9870 N.am      6 SEP2        0.0000 
     93 CA         21.8040   11.5010    7.9703 C.3       4 GLC5        0.0000 
     94 CA         21.6030   12.8060    9.3350 C.3       8 GLP5        0.0000 
     95 CA         26.3108    8.5500    5.5410 C.3       4 GLC5        0.0000 
     96 CA         24.5620   10.1340    5.0400 C.3      12 GLL5        0.0000 
     97 CA         24.9749    5.3910    3.6504 C.3       4 GLC5        0.0000 
     98 CA         11.6698    7.0380   12.3212 C.3       4 GLC5        0.0000 
     99 CA         13.2210    7.1540   13.4440 C.3      12 GLL5        0.0000 
    100 CA         10.1190    7.6050   11.0710 C.3       8 GLP5        0.0000 
    101 CA         12.5452    7.3055   15.3488 C.3       4 GLC5        0.0000 
    102 CA         11.8700    8.1400   17.1260 C.3       8 GLP5        0.0000 
    103 CA         17.4145    6.2670   13.2042 C.3       4 GLC5        0.0000 
    104 CA         15.4700    7.1560   12.7130 C.3      12 GLL5        0.0000 
    105 CA         19.2840    6.0610   13.5910 C.3       8 GLP5        0.0000 
    106 CA         16.1410    6.5145   10.8448 C.3       4 GLC5        0.0000 
@<TRIPOS>BOND
@<TRIPOS>SUBSTRUCTURE
     1 ALC1       23 GROUP        1 X    ALC  0     ROOT ALC X 1
     2 SEC2        1 GROUP        1 X    SEC  0     **** SEC X 2
     3 LYC4       75 GROUP        1 X    LYC  0     **** LYC X 4
     4 GLC5       10 GROUP        1 X    GLC  0     **** GLC X 6
     5 ALP1       25 GROUP        1 Y    ALP  0     ROOT ALP Y 8
     6 SEP2        3 GROUP        1 Y    SEP  0     **** SEP Y 9
     7 LYP4       77 GROUP        1 Y    LYP  0     **** LYP Y 11
     8 GLP5       12 GROUP        1 Y    GLP  0     **** GLP Y 13
     9 ALL1       24 GROUP        1 Z    ALL  0     ROOT ALL Z 15
    10 SEL2        2 GROUP        1 Z    SEL  0     **** SEL Z 16
    11 LYL4       76 GROUP        1 Z    LYL  0     **** LYL Z 18
    12 GLL5       11 GROUP        1 Z    GLL  0     **** GLL Z 20
@<TRIPOS>SET

