#    Name: 3tqa_NDP_1_ligand
#    Modification time : Mon Mar 24 20:48:42 2014

@<TRIPOS>MOLECULE
3tqa_NDP_1_ligand
   74    78     1     0     0
SMALL
NO_CHARGES


@<TRIPOS>ATOM
      1 PA         19.4400    8.9910    8.1620 P.3       1 NDP1001     0.0000 
      2 O1A        18.8700    8.2210    6.9960 O.co2     1 NDP1001     0.0000 
      3 O2A        19.4730    8.3750    9.5360 O.co2     1 NDP1001     0.0000 
      4 O5B        20.9500    9.3760    7.8020 O.3       1 NDP1001     0.0000 
      5 C5B        21.2490   10.1910    6.6730 C.3       1 NDP1001     0.0000 
      6 C4B        22.7610   10.2010    6.5380 C.3       1 NDP1001     0.0000 
      7 O4B        23.2410    8.8530    6.4890 O.3       1 NDP1001     0.0000 
      8 C3B        23.2700   10.8790    5.2780 C.3       1 NDP1001     0.0000 
      9 O3B        23.4570   12.2830    5.4690 O.3       1 NDP1001     0.0000 
     10 C2B        24.5620   10.1340    5.0400 C.3       1 NDP1001     0.0000 
     11 O2B        25.5780   10.5840    5.9310 O.3       1 NDP1001     0.0000 
     12 C1B        24.2310    8.7160    5.4660 C.3       1 NDP1001     0.0000 
     13 N9A        23.7180    7.8690    4.3600 N.pl3     1 NDP1001     0.0000 
     14 C8A        22.4300    7.5420    4.1300 C.2       1 NDP1001     0.0000 
     15 N7A        22.3230    6.7400    3.0370 N.2       1 NDP1001     0.0000 
     16 C5A        23.5600    6.5360    2.5570 C.ar      1 NDP1001     0.0000 
     17 C6A        24.1630    5.7900    1.4280 C.ar      1 NDP1001     0.0000 
     18 N6A        23.3970    5.0790    0.5690 N.pl3     1 NDP1001     0.0000 
     19 N1A        25.5060    5.8400    1.2810 N.ar      1 NDP1001     0.0000 
     20 C2A        26.2900    6.5410    2.1250 C.ar      1 NDP1001     0.0000 
     21 N3A        25.8030    7.2410    3.1700 N.ar      1 NDP1001     0.0000 
     22 C4A        24.4760    7.2790    3.4350 C.ar      1 NDP1001     0.0000 
     23 O3         18.7610   10.4550    8.2440 O.3       1 NDP1001     0.0000 
     24 PN         17.1710   10.7120    8.2440 P.3       1 NDP1001     0.0000 
     25 O1N        16.5550   10.0530    7.0310 O.co2     1 NDP1001     0.0000 
     26 O2N        16.9610   12.1890    8.4710 O.co2     1 NDP1001     0.0000 
     27 O5D        16.6770    9.9290    9.5610 O.3       1 NDP1001     0.0000 
     28 C5D        16.8200   10.4770   10.8720 C.3       1 NDP1001     0.0000 
     29 C4D        15.4350   10.7700   11.4360 C.3       1 NDP1001     0.0000 
     30 O4D        14.6490    9.5720   11.4140 O.3       1 NDP1001     0.0000 
     31 C3D        15.4830   11.2440   12.8810 C.3       1 NDP1001     0.0000 
     32 O3D        14.5370   12.2970   13.0840 O.3       1 NDP1001     0.0000 
     33 C2D        15.0930   10.0270   13.6950 C.3       1 NDP1001     0.0000 
     34 O2D        14.3880   10.3880   14.8890 O.3       1 NDP1001     0.0000 
     35 C1D        14.2150    9.2340   12.7360 C.3       1 NDP1001     0.0000 
     36 N1N        14.3100    7.7890   12.9740 N.pl3     1 NDP1001     0.0000 
     37 C2N        13.2210    7.1540   13.4440 C.2       1 NDP1001     0.0000 
     38 C3N        13.2200    5.7880   13.6990 C.2       1 NDP1001     0.0000 
     39 C7N        11.9930    5.1000   14.2250 C.2       1 NDP1001     0.0000 
     40 O7N        12.0230    3.8970   14.4390 O.2       1 NDP1001     0.0000 
     41 N7N        10.8920    5.8200   14.4470 N.am      1 NDP1001     0.0000 
     42 C4N        14.4890    5.0290   13.4300 C.3       1 NDP1001     0.0000 
     43 C5N        15.6200    5.7900   12.9220 C.2       1 NDP1001     0.0000 
     44 C6N        15.4700    7.1560   12.7130 C.2       1 NDP1001     0.0000 
     45 P2B        26.6410   11.7390    5.6020 P.3       1 NDP1001     0.0000 
     46 O1X        25.7890   12.9770    5.4920 O.co2     1 NDP1001     0.0000 
     47 O2X        27.5460   11.7260    6.8090 O.co2     1 NDP1001     0.0000 
     48 O3X        27.2970   11.2870    4.3200 O.co2     1 NDP1001     0.0000 
     49 H          20.9137   11.2133    6.8082 H         1 NDP1001     0.0000 
     50 H          20.8293    9.7889    5.7576 H         1 NDP1001     0.0000 
     51 H          23.1896   10.7090    7.3932 H         1 NDP1001     0.0000 
     52 H          22.5963   10.6352    4.4879 H         1 NDP1001     0.0000 
     53 H          24.8180   10.1437    4.0426 H         1 NDP1001     0.0000 
     54 H          25.1285    8.2795    5.8850 H         1 NDP1001     0.0000 
     55 H          21.6707    7.8385    4.6725 H         1 NDP1001     0.0000 
     56 H          23.4717    5.3280   -0.3966 H         1 NDP1001     0.0000 
     57 H          22.8240    4.3675    0.9758 H         1 NDP1001     0.0000 
     58 H          27.3399    6.5420    1.9593 H         1 NDP1001     0.0000 
     59 H          17.3842   11.4128   10.8617 H         1 NDP1001     0.0000 
     60 H          17.3196    9.7814   11.5507 H         1 NDP1001     0.0000 
     61 H          14.9686   11.5364   10.8410 H         1 NDP1001     0.0000 
     62 H          16.4745   11.5142   13.1183 H         1 NDP1001     0.0000 
     63 H          15.9752    9.4552   13.8799 H         1 NDP1001     0.0000 
     64 H          13.1931    9.5711   12.8848 H         1 NDP1001     0.0000 
     65 H          12.3374    7.6889   13.6296 H         1 NDP1001     0.0000 
     66 H          10.0933    5.3137   14.7721 H         1 NDP1001     0.0000 
     67 H          10.9645    6.8012   14.2683 H         1 NDP1001     0.0000 
     68 H          14.2456    4.1885   12.7198 H         1 NDP1001     0.0000 
     69 H          14.7827    4.4983   14.3798 H         1 NDP1001     0.0000 
     70 H          16.4867    5.3070   12.7336 H         1 NDP1001     0.0000 
     71 H          16.2913    7.6906   12.3424 H         1 NDP1001     0.0000 
     72 H          24.3059   12.4989    4.9865 H         1 NDP1001     0.0000 
     73 H          14.0950   12.0833   13.9552 H         1 NDP1001     0.0000 
     74 H          13.5066    9.9206   14.8202 H         1 NDP1001     0.0000 
@<TRIPOS>BOND
     1    2    1 ar   
     2    3    1 ar   
     3    4    1 1    
     4   23    1 1    
     5    5    4 1    
     6    6    5 1    
     7   49    5 1    
     8   50    5 1    
     9    7    6 1    
    10    8    6 1    
    11   51    6 1    
    12   12    7 1    
    13    9    8 1    
    14   10    8 1    
    15   52    8 1    
    16   72    9 1    
    17   11   10 1    
    18   12   10 1    
    19   53   10 1    
    20   45   11 1    
    21   13   12 1    
    22   54   12 1    
    23   14   13 1    
    24   22   13 1    
    25   15   14 2    
    26   55   14 1    
    27   16   15 1    
    28   17   16 ar   
    29   22   16 ar   
    30   18   17 1    
    31   19   17 ar   
    32   56   18 1    
    33   57   18 1    
    34   20   19 ar   
    35   21   20 ar   
    36   58   20 1    
    37   22   21 ar   
    38   24   23 1    
    39   25   24 ar   
    40   26   24 ar   
    41   27   24 1    
    42   28   27 1    
    43   29   28 1    
    44   59   28 1    
    45   60   28 1    
    46   30   29 1    
    47   31   29 1    
    48   61   29 1    
    49   35   30 1    
    50   32   31 1    
    51   33   31 1    
    52   62   31 1    
    53   73   32 1    
    54   34   33 1    
    55   35   33 1    
    56   63   33 1    
    57   74   34 1    
    58   36   35 1    
    59   64   35 1    
    60   37   36 1    
    61   44   36 1    
    62   38   37 2    
    63   65   37 1    
    64   39   38 1    
    65   42   38 1    
    66   40   39 2    
    67   41   39 am   
    68   66   41 1    
    69   67   41 1    
    70   43   42 1    
    71   68   42 1    
    72   69   42 1    
    73   44   43 2    
    74   70   43 1    
    75   71   44 1    
    76   46   45 ar   
    77   47   45 ar   
    78   48   45 ar   
@<TRIPOS>SUBSTRUCTURE
     1 NDP1001     1 GROUP   
@<TRIPOS>SET

