#    Name: 4b12_C23_5_INTS_M
#    Modification time : Tue Mar 25 06:29:56 2014

@<TRIPOS>MOLECULE
4b12_C23_5_INTS_M
   65     0     6     0     0
SMALL
NO_CHARGES


@<TRIPOS>ATOM
      1 CA          3.8435   -7.4605   91.9255 C.3       2 GLC5        0.0000 
      2 CA          3.9030   -9.2270   92.2470 C.3       6 GLL5        0.0000 
      3 CA          3.7840   -5.6940   91.6040 C.3       4 GLP5        0.0000 
      4 CA          4.0800  -16.1045   94.0275 C.3       2 GLC5        0.0000 
      5 CA          3.1900  -14.1940   93.3660 C.3       6 GLL5        0.0000 
      6 CA          4.9700  -18.0150   94.6890 C.3       4 GLP5        0.0000 
      7 CA          1.7180  -15.8145   93.3720 C.3       2 GLC5        0.0000 
      8 CA          0.2460  -17.4350   93.3780 C.3       4 GLP5        0.0000 
      9 CA          1.2495   -6.9535   89.7110 C.3       2 GLC5        0.0000 
     10 CA          2.1670   -8.8630   90.2730 C.3       6 GLL5        0.0000 
     11 CA          0.3320   -5.0440   89.1490 C.3       4 GLP5        0.0000 
     12 CA          4.0350  -11.3630   89.1840 C.3       2 GLC5        0.0000 
     13 CA          4.3460   -9.6250   88.8910 C.3       6 GLL5        0.0000 
     14 CA          3.7240  -13.1010   89.4770 C.3       4 GLP5        0.0000 
     15 CA          4.1360   -7.6220   89.5560 C.3       2 GLC5        0.0000 
     16 CA          3.9260   -5.6190   90.2210 C.3       4 GLP5        0.0000 
     17 CA         -2.0805   -7.0520   85.9710 C.3       2 GLC5        0.0000 
     18 CA         -0.1640   -8.0840   86.5170 C.3       6 GLL5        0.0000 
     19 CA         -3.9970   -6.0200   85.4250 C.3       4 GLP5        0.0000 
     20 CA          0.3200   -6.6365   85.4135 C.3       2 GLC5        0.0000 
     21 CA          0.8040   -5.1890   84.3100 C.3       4 GLP5        0.0000 
     22 CA          0.7245   -6.4955   86.7095 C.3       2 GLC5        0.0000 
     23 CA         -0.2360   -8.0420   87.9050 C.3       6 GLL5        0.0000 
     24 CA          1.6850   -4.9490   85.5140 C.3       4 GLP5        0.0000 
     25 CA          6.1395   -9.1210   85.1685 C.3       2 GLC5        0.0000 
     26 CA          5.6030  -10.9870   84.5170 C.3       6 GLL5        0.0000 
     27 CA          6.6760   -7.2550   85.8200 C.3       4 GLP5        0.0000 
     28 OD1         5.2400  -12.5835   83.8330 O.co2     1 ASC3        0.0000 
     29 OD1         5.1540  -12.0060   85.4710 O.co2     5 ASL3        0.0000 
     30 OD1         5.3260  -13.1610   82.1950 O.co2     3 ASP3        0.0000 
     31 OD1         4.2930  -13.0265   84.1415 O.co2     1 ASC3        0.0000 
     32 OD1         3.4320  -14.0470   82.8120 O.co2     3 ASP3        0.0000 
     33 CA          4.3710  -12.9390   87.4525 C.3       2 GLC5        0.0000 
     34 CA          3.7600  -12.2900   85.8160 C.3       6 GLL5        0.0000 
     35 CA          4.9820  -13.5880   89.0890 C.3       4 GLP5        0.0000 
     36 CA          1.3900  -12.3400   83.5195 C.3       2 GLC5        0.0000 
     37 CA          2.7440  -11.5420   84.9920 C.3       6 GLL5        0.0000 
     38 CA          0.0360  -13.1380   82.0470 C.3       4 GLP5        0.0000 
     39 CA          1.0740  -11.5465   86.1025 C.3       2 GLC5        0.0000 
     40 CA         -0.5960  -11.5510   87.2130 C.3       4 GLP5        0.0000 
     41 CA          6.5082  -12.9567   92.3665 C.3       2 GLC5        0.0000 
     42 CA          4.6960  -12.2730   93.2740 C.3       6 GLL5        0.0000 
     43 CA          8.4340  -12.9460   91.4950 C.3       4 GLP5        0.0000 
     44 CA          6.0373  -13.8228   94.2295 C.3       2 GLC5        0.0000 
     45 CA          7.4920  -14.6780   95.2210 C.3       4 GLP5        0.0000 
     46 CA          5.2162  -12.2248   94.8740 C.3       2 GLC5        0.0000 
     47 CA          4.4690  -13.6620   93.2020 C.3       6 GLL5        0.0000 
     48 CA          5.8500  -11.4820   96.5100 C.3       4 GLP5        0.0000 
     49 CA          2.2802  -14.6445   95.0198 C.3       2 GLC5        0.0000 
     50 CA          1.9020  -15.5320   96.5590 C.3       4 GLP5        0.0000 
     51 CA          3.7308  -11.3600   95.3254 C.3       2 GLC5        0.0000 
     52 CA          2.3480  -11.9510   93.6960 C.3       6 GLL5        0.0000 
     53 CA          4.4200  -11.4140   97.0140 C.3       4 GLP5        0.0000 
     54 CA          0.9185   -6.8455   88.7278 C.3       2 GLC5        0.0000 
     55 CA          0.9080   -8.4310   88.6180 C.3       6 GLL5        0.0000 
     56 CA          1.6375   -6.8255   85.8770 C.3       2 GLC5        0.0000 
     57 CA          2.1650   -8.9080   86.5950 C.3       6 GLL5        0.0000 
     58 CA          0.0660   -6.5535   88.1800 C.3       2 GLC5        0.0000 
     59 CA         -1.9870   -8.8625   87.6250 C.3       2 GLC5        0.0000 
     60 CA         -3.7740   -9.6620   88.0390 C.3       4 GLP5        0.0000 
     61 CA          4.5800   -8.2245   84.1270 C.3       2 GLC5        0.0000 
     62 CA          3.2190  -10.1260   84.7020 C.3       6 GLL5        0.0000 
     63 CA          5.2940   -6.3030   83.9710 C.3       4 GLP5        0.0000 
     64 CA          2.4245  -13.6205   85.8360 C.3       2 GLC5        0.0000 
     65 CA          1.5970  -15.3250   86.2680 C.3       4 GLP5        0.0000 
@<TRIPOS>BOND
@<TRIPOS>SUBSTRUCTURE
     1 ASC3       28 GROUP        1 X    ASC  0     ROOT ASC X 3
     2 GLC5        1 GROUP        1 X    GLC  0     **** GLC X 6
     3 ASP3       30 GROUP        1 Y    ASP  0     ROOT ASP Y 10
     4 GLP5        3 GROUP        1 Y    GLP  0     **** GLP Y 13
     5 ASL3       29 GROUP        1 Z    ASL  0     ROOT ASL Z 17
     6 GLL5        2 GROUP        1 Z    GLL  0     **** GLL Z 20
@<TRIPOS>SET

