#    Name: 4b12_C23_5_ligand
#    Modification time : Tue Mar 25 06:29:57 2014

@<TRIPOS>MOLECULE
4b12_C23_5_ligand
   51    54     1     0     0
SMALL
NO_CHARGES


@<TRIPOS>ATOM
      1 O2          1.5820   -8.7070   92.4980 O.2       1 C231411     0.0000 
      2 C14         2.4950   -8.9290   91.7360 C.2       1 C231411     0.0000 
      3 C15         3.9030   -9.2270   92.2470 C.3       1 C231411     0.0000 
      4 C16         3.8360   -9.9060   93.6240 C.3       1 C231411     0.0000 
      5 C17         3.6340  -11.4160   93.5310 C.ar      1 C231411     0.0000 
      6 C22         4.6960  -12.2730   93.2740 C.ar      1 C231411     0.0000 
      7 C21         4.4690  -13.6620   93.2020 C.ar      1 C231411     0.0000 
      8 C20         3.1900  -14.1940   93.3660 C.ar      1 C231411     0.0000 
      9 C19         2.1270  -13.3200   93.5950 C.ar      1 C231411     0.0000 
     10 C18         2.3480  -11.9510   93.6960 C.ar      1 C231411     0.0000 
     11 C2          2.1670   -8.8630   90.2730 C.2       1 C231411     0.0000 
     12 O           1.0010   -8.4650   89.9550 O.3       1 C231411     0.0000 
     13 C3          0.9080   -8.4310   88.6180 C.ar      1 C231411     0.0000 
     14 C13         2.1020   -8.8630   87.9950 C.ar      1 C231411     0.0000 
     15 C1          2.9330   -9.1310   89.1130 C.2       1 C231411     0.0000 
     16 C           4.3460   -9.6250   88.8910 C.3       1 C231411     0.0000 
     17 C7          2.1650   -8.9080   86.5950 C.ar      1 C231411     0.0000 
     18 C6          1.0150   -8.4960   85.8850 C.ar      1 C231411     0.0000 
     19 C5         -0.1640   -8.0840   86.5170 C.ar      1 C231411     0.0000 
     20 C4         -0.2360   -8.0420   87.9050 C.ar      1 C231411     0.0000 
     21 O1          3.3070   -9.3320   85.9250 O.3       1 C231411     0.0000 
     22 C8          3.2190  -10.1260   84.7020 C.3       1 C231411     0.0000 
     23 C12         4.5130  -10.1660   83.8640 C.3       1 C231411     0.0000 
     24 C11         5.6030  -10.9870   84.5170 C.3       1 C231411     0.0000 
     25 N           5.1540  -12.0060   85.4710 N.4       1 C231411     0.0000 
     26 C10         3.7600  -12.2900   85.8160 C.3       1 C231411     0.0000 
     27 C9          2.7440  -11.5420   84.9920 C.3       1 C231411     0.0000 
     28 H           4.4598   -8.2996   92.3352 H         1 C231411     0.0000 
     29 H           4.4088   -9.8873   91.5498 H         1 C231411     0.0000 
     30 H           3.0102   -9.4657   94.1956 H         1 C231411     0.0000 
     31 H           4.7665   -9.6988   94.1661 H         1 C231411     0.0000 
     32 H           5.6414  -11.9072   93.1363 H         1 C231411     0.0000 
     33 H           5.2678  -14.2920   93.0244 H         1 C231411     0.0000 
     34 H           3.0355  -15.1983   93.3196 H         1 C231411     0.0000 
     35 H           1.1709  -13.6942   93.6898 H         1 C231411     0.0000 
     36 H           1.5590  -11.3158   93.8948 H         1 C231411     0.0000 
     37 H           1.0518   -8.5010   84.8413 H         1 C231411     0.0000 
     38 H          -0.9773   -7.8123   85.9494 H         1 C231411     0.0000 
     39 H          -1.0706   -7.7460   88.3834 H         1 C231411     0.0000 
     40 H           2.4370   -9.6752   84.0373 H         1 C231411     0.0000 
     41 H           4.8639   -9.1377   83.7165 H         1 C231411     0.0000 
     42 H           4.2764  -10.5843   82.8785 H         1 C231411     0.0000 
     43 H           6.3127  -10.2823   85.0202 H         1 C231411     0.0000 
     44 H           6.2080  -11.4664   83.7061 H         1 C231411     0.0000 
     45 H           3.5786  -12.0565   86.8908 H         1 C231411     0.0000 
     46 H           3.5574  -13.3814   85.7143 H         1 C231411     0.0000 
     47 H           2.5810  -12.0643   84.0472 H         1 C231411     0.0000 
     48 H           1.7954  -11.4969   85.5308 H         1 C231411     0.0000 
     49 H           5.0223   -9.0111   89.2980 H         1 C231411     0.0000 
     50 H           4.4909  -10.5289   89.2934 H         1 C231411     0.0000 
     51 H           4.5651   -9.6987   87.9181 H         1 C231411     0.0000 
@<TRIPOS>BOND
     1    2    1 2    
     2    3    2 1    
     3   11    2 1    
     4    4    3 1    
     5   28    3 1    
     6   29    3 1    
     7    5    4 1    
     8   30    4 1    
     9   31    4 1    
    10    6    5 ar   
    11   10    5 ar   
    12    7    6 ar   
    13   32    6 1    
    14    8    7 ar   
    15   33    7 1    
    16    9    8 ar   
    17   34    8 1    
    18   10    9 ar   
    19   35    9 1    
    20   36   10 1    
    21   12   11 1    
    22   15   11 2    
    23   13   12 1    
    24   14   13 ar   
    25   20   13 ar   
    26   15   14 1    
    27   17   14 ar   
    28   16   15 1    
    29   49   16 1    
    30   50   16 1    
    31   51   16 1    
    32   18   17 ar   
    33   21   17 1    
    34   19   18 ar   
    35   37   18 1    
    36   20   19 ar   
    37   38   19 1    
    38   39   20 1    
    39   22   21 1    
    40   23   22 1    
    41   27   22 1    
    42   40   22 1    
    43   24   23 1    
    44   41   23 1    
    45   42   23 1    
    46   25   24 1    
    47   43   24 1    
    48   44   24 1    
    49   26   25 1    
    50   27   26 1    
    51   45   26 1    
    52   46   26 1    
    53   47   27 1    
    54   48   27 1    
@<TRIPOS>SUBSTRUCTURE
     1 C231411     1 GROUP   
@<TRIPOS>SET

