#    Name: 1t48_BB3_1_INTS_M
#    Modification time : Tue Mar 25 04:20:32 2014

@<TRIPOS>MOLECULE
1t48_BB3_1_INTS_M
   63     0     6     0     0
SMALL
NO_CHARGES


@<TRIPOS>ATOM
      1 CA         46.9890   30.2875   27.0630 C.3       2 GLC5        0.0000 
      2 CA         48.6060   31.1550   25.9510 C.3       6 GLL5        0.0000 
      3 CA         45.3720   29.4200   28.1750 C.3       4 GLP5        0.0000 
      4 CA         51.1215   32.9320   26.3545 C.3       2 GLC5        0.0000 
      5 CA         50.4400   30.9340   25.6340 C.3       6 GLL5        0.0000 
      6 CA         51.8030   34.9300   27.0750 C.3       4 GLP5        0.0000 
      7 CA         52.5650   28.1995   27.0965 C.3       2 GLC5        0.0000 
      8 CA         53.6820   29.6420   27.9680 C.3       6 GLL5        0.0000 
      9 CA         51.4480   26.7570   26.2250 C.3       4 GLP5        0.0000 
     10 CA         54.8250   30.8585   27.0505 C.3       2 GLC5        0.0000 
     11 CA         55.9680   32.0750   26.1330 C.3       4 GLP5        0.0000 
     12 CA         53.2470   31.5060   28.3615 C.3       2 GLC5        0.0000 
     13 CA         52.8120   33.3700   28.7550 C.3       4 GLP5        0.0000 
     14 N          51.1980   32.5415   21.8830 N.am      1 SEC2        0.0000 
     15 N          52.5540   32.0930   22.1590 N.am      5 SEL2        0.0000 
     16 N          49.8420   32.9900   21.6070 N.am      3 SEP2        0.0000 
     17 CA         52.2700   30.4135   21.4170 C.3       2 GLC5        0.0000 
     18 CA         54.1870   30.6490   22.5100 C.3       6 GLL5        0.0000 
     19 CA         50.3530   30.1780   20.3240 C.3       4 GLP5        0.0000 
     20 CA         56.5770   29.6860   23.5720 C.3       2 GLC5        0.0000 
     21 CA         54.6610   29.4340   22.8460 C.3       6 GLL5        0.0000 
     22 CA         58.4930   29.9380   24.2980 C.3       4 GLP5        0.0000 
     23 CA         52.7880   27.1765   23.8665 C.3       2 GLC5        0.0000 
     24 CA         54.0160   28.4220   23.7550 C.3       6 GLL5        0.0000 
     25 CA         51.5600   25.9310   23.9780 C.3       4 GLP5        0.0000 
     26 CA         54.0940   26.4485   25.1295 C.3       2 GLC5        0.0000 
     27 CA         55.1230   27.8280   24.6190 C.3       6 GLL5        0.0000 
     28 CA         53.0650   25.0690   25.6400 C.3       4 GLP5        0.0000 
     29 CA         56.7420   26.8625   23.4310 C.3       2 GLC5        0.0000 
     30 CA         58.3610   25.8970   22.2430 C.3       4 GLP5        0.0000 
     31 CA         56.1395   27.0630   26.2190 C.3       2 GLC5        0.0000 
     32 CA         57.1560   26.2980   27.8190 C.3       4 GLP5        0.0000 
     33 CA         55.2000   31.7970   18.8195 C.3       2 GLC5        0.0000 
     34 CA         55.2470   32.4340   20.8940 C.3       6 GLL5        0.0000 
     35 CA         55.1530   31.1600   16.7450 C.3       4 GLP5        0.0000 
     36 CA         54.1295   33.8135   21.6275 C.3       2 GLC5        0.0000 
     37 CA         53.0120   35.1930   22.3610 C.3       4 GLP5        0.0000 
     38 CA         56.8680   28.8135   19.8780 C.3       2 GLC5        0.0000 
     39 CA         57.3860   30.4870   20.7030 C.3       6 GLL5        0.0000 
     40 CA         56.3500   27.1400   19.0530 C.3       4 GLP5        0.0000 
     41 CA         56.2910   31.4305   18.3820 C.3       2 GLC5        0.0000 
     42 CA         57.4290   31.7010   20.0190 C.3       6 GLL5        0.0000 
     43 CA         56.0195   32.5870   18.2455 C.3       2 GLC5        0.0000 
     44 CA         56.3890   32.6430   20.1230 C.3       6 GLL5        0.0000 
     45 CA         55.6500   32.5310   16.3680 C.3       4 GLP5        0.0000 
     46 CA         58.6885   32.7435   22.5315 C.3       2 GLC5        0.0000 
     47 CA         59.8570   33.2870   21.2170 C.3       6 GLL5        0.0000 
     48 CA         57.5200   32.2000   23.8460 C.3       4 GLP5        0.0000 
     49 CA         49.6780   29.3713   25.1568 C.3       2 GLC5        0.0000 
     50 CA         49.8330   27.6980   24.5210 C.3       4 GLP5        0.0000 
     51 CA         50.8912   29.0272   25.5825 C.3       2 GLC5        0.0000 
     52 CA         51.2350   30.4560   26.7650 C.3       6 GLL5        0.0000 
     53 CA         52.3807   31.8632   27.6995 C.3       2 GLC5        0.0000 
     54 CA         51.0433   30.6320   22.3205 C.3       2 GLC5        0.0000 
     55 CA         51.0450   31.1900   24.4020 C.3       6 GLL5        0.0000 
     56 CA         50.8833   29.3356   24.5502 C.3       2 GLC5        0.0000 
     57 CA         54.0880   28.4684   21.3997 C.3       2 GLC5        0.0000 
     58 CA         53.9560   27.7050   19.5830 C.3       4 GLP5        0.0000 
     59 CA         55.6842   29.5755   24.9950 C.3       2 GLC5        0.0000 
     60 CA         56.7990   31.0260   25.8030 C.3       4 GLP5        0.0000 
     61 CA         54.8440   29.2242   20.5538 C.3       2 GLC5        0.0000 
     62 CA         56.2690   30.2560   21.4750 C.3       6 GLL5        0.0000 
     63 CA         57.5260   30.2766   22.7059 C.3       2 GLC5        0.0000 
@<TRIPOS>BOND
@<TRIPOS>SUBSTRUCTURE
     1 SEC2       14 GROUP        1 X    SEC  0     ROOT SEC X 2
     2 GLC5        1 GROUP        1 X    GLC  0     **** GLC X 6
     3 SEP2       16 GROUP        1 Y    SEP  0     ROOT SEP Y 9
     4 GLP5        3 GROUP        1 Y    GLP  0     **** GLP Y 13
     5 SEL2       15 GROUP        1 Z    SEL  0     ROOT SEL Z 16
     6 GLL5        2 GROUP        1 Z    GLL  0     **** GLL Z 20
@<TRIPOS>SET

