#    Name: 1t48_BB3_1_ligand
#    Modification time : Tue Mar 25 04:20:32 2014

@<TRIPOS>MOLECULE
1t48_BB3_1_ligand
   45    47     1     0     0
SMALL
NO_CHARGES


@<TRIPOS>ATOM
      1 BR22       48.6060   31.1550   25.9510 Br        1 BB3299      0.0000 
      2 C13        50.4400   30.9340   25.6340 C.ar      1 BB3299      0.0000 
      3 C14        51.2350   30.4560   26.7650 C.ar      1 BB3299      0.0000 
      4 O20        50.7290   30.2220   27.8890 O.3       1 BB3299      0.0000 
      5 C15        52.6640   30.2570   26.5230 C.ar      1 BB3299      0.0000 
      6 BR21       53.6820   29.6420   27.9680 Br        1 BB3299      0.0000 
      7 C16        53.2220   30.5310   25.2820 C.ar      1 BB3299      0.0000 
      8 C12        51.0450   31.1900   24.4020 C.ar      1 BB3299      0.0000 
      9 C11        52.4220   30.9820   24.2320 C.ar      1 BB3299      0.0000 
     10 C03        53.0650   31.2630   22.9060 C.2       1 BB3299      0.0000 
     11 O19        52.5540   32.0930   22.1590 O.2       1 BB3299      0.0000 
     12 C9         54.1870   30.6490   22.5100 C.2       1 BB3299      0.0000 
     13 C8         54.6610   29.4340   22.8460 C.2       1 BB3299      0.0000 
     14 C17        54.0160   28.4220   23.7550 C.3       1 BB3299      0.0000 
     15 C18        55.1230   27.8280   24.6190 C.3       1 BB3299      0.0000 
     16 C5         55.1950   31.2310   21.5740 C.ar      1 BB3299      0.0000 
     17 C6         55.2470   32.4340   20.8940 C.ar      1 BB3299      0.0000 
     18 C4         56.2690   30.2560   21.4750 C.ar      1 BB3299      0.0000 
     19 O7         55.9600   29.1660   22.2390 O.3       1 BB3299      0.0000 
     20 C3         57.3860   30.4870   20.7030 C.ar      1 BB3299      0.0000 
     21 C2         57.4290   31.7010   20.0190 C.ar      1 BB3299      0.0000 
     22 C1         56.3890   32.6430   20.1230 C.ar      1 BB3299      0.0000 
     23 S01        58.8020   32.0390   19.0210 S.o2      1 BB3299      0.0000 
     24 O01        59.1930   30.8750   18.2780 O.2       1 BB3299      0.0000 
     25 O02        58.4490   33.1340   18.0870 O.2       1 BB3299      0.0000 
     26 N01        60.1210   32.5230   20.0110 N.pl3     1 BB3299      0.0000 
     27 C01        59.8570   33.2870   21.2170 C.3       1 BB3299      0.0000 
     28 C02        61.4860   32.1720   19.6500 C.3       1 BB3299      0.0000 
     29 H          54.2337   30.4014   25.1322 H         1 BB3299      0.0000 
     30 H          50.4814   31.5326   23.6139 H         1 BB3299      0.0000 
     31 H          53.5600   27.6401   23.1734 H         1 BB3299      0.0000 
     32 H          53.2900   28.9024   24.3872 H         1 BB3299      0.0000 
     33 H          54.5159   33.1129   20.9484 H         1 BB3299      0.0000 
     34 H          58.1354   29.8203   20.6312 H         1 BB3299      0.0000 
     35 H          56.4827   33.5418   19.5940 H         1 BB3299      0.0000 
     36 H          55.8279   27.3838   24.0659 H         1 BB3299      0.0000 
     37 H          55.5796   28.5267   25.1697 H         1 BB3299      0.0000 
     38 H          54.7705   27.1394   25.2527 H         1 BB3299      0.0000 
     39 H          60.6995   33.5092   21.7078 H         1 BB3299      0.0000 
     40 H          59.3983   34.1524   21.0154 H         1 BB3299      0.0000 
     41 H          59.2706   32.7857   21.8533 H         1 BB3299      0.0000 
     42 H          62.1474   32.5225   20.3131 H         1 BB3299      0.0000 
     43 H          61.6148   31.1814   19.6032 H         1 BB3299      0.0000 
     44 H          61.7412   32.5432   18.7572 H         1 BB3299      0.0000 
     45 H          49.9416   29.6349   27.7011 H         1 BB3299      0.0000 
@<TRIPOS>BOND
     1    2    1 1    
     2    3    2 ar   
     3    8    2 ar   
     4    4    3 1    
     5    5    3 ar   
     6   45    4 1    
     7    6    5 1    
     8    7    5 ar   
     9    9    7 ar   
    10   29    7 1    
    11    9    8 ar   
    12   30    8 1    
    13   10    9 1    
    14   11   10 2    
    15   12   10 1    
    16   13   12 2    
    17   16   12 1    
    18   14   13 1    
    19   19   13 1    
    20   15   14 1    
    21   31   14 1    
    22   32   14 1    
    23   36   15 1    
    24   37   15 1    
    25   38   15 1    
    26   17   16 ar   
    27   18   16 ar   
    28   22   17 ar   
    29   33   17 1    
    30   19   18 1    
    31   20   18 ar   
    32   21   20 ar   
    33   34   20 1    
    34   22   21 ar   
    35   23   21 1    
    36   35   22 1    
    37   24   23 2    
    38   25   23 2    
    39   26   23 1    
    40   27   26 1    
    41   28   26 1    
    42   39   27 1    
    43   40   27 1    
    44   41   27 1    
    45   42   28 1    
    46   43   28 1    
    47   44   28 1    
@<TRIPOS>SUBSTRUCTURE
     1 BB3299      1 GROUP   
@<TRIPOS>SET

