#    Name: 4e0u_0MV_1_INTS_M
#    Modification time : Tue Mar 25 10:28:16 2014

@<TRIPOS>MOLECULE
4e0u_0MV_1_INTS_M
   32     0     9     0     0
SMALL
NO_CHARGES


@<TRIPOS>ATOM
      1 CA          5.8075  -26.1720  -13.3540 C.3       3 GLC5        0.0000 
      2 CA          6.7180  -28.0350  -12.8400 C.3       9 GLL5        0.0000 
      3 CA          4.8970  -24.3090  -13.8680 C.3       6 GLP5        0.0000 
      4 N           9.8290  -28.1665  -10.1210 N.am      2 SEC2        0.0000 
      5 N          10.1700  -27.1330  -10.8240 N.am      8 SEL2        0.0000 
      6 N           9.4880  -29.2000   -9.4180 N.am      5 SEP2        0.0000 
      7 CA         13.9295  -25.8540  -15.7250 C.3       3 GLC5        0.0000 
      8 CA         12.4040  -25.3130  -14.6010 C.3       9 GLL5        0.0000 
      9 CA         15.4550  -26.3950  -16.8490 C.3       6 GLP5        0.0000 
     10 O          12.1610  -21.4685  -11.2860 O.2       1 ALC1        0.0000 
     11 O          12.1990  -22.3730  -12.4540 O.2       7 ALL1        0.0000 
     12 O          12.1230  -20.5640  -10.1180 O.2       4 ALP1        0.0000 
     13 CA          6.9520  -30.1500  -13.2338 C.3       3 GLC5        0.0000 
     14 CA          8.1160  -28.8430  -14.6380 C.3       9 GLL5        0.0000 
     15 CA          6.4160  -31.5260  -12.1180 C.3       6 GLP5        0.0000 
     16 CA          5.1105  -28.8395  -13.2503 C.3       3 GLC5        0.0000 
     17 CA          6.8600  -28.7050  -14.0610 C.3       9 GLL5        0.0000 
     18 CA          3.4320  -29.3090  -13.0500 C.3       6 GLP5        0.0000 
     19 CA          6.2588  -27.3693  -10.7188 C.3       3 GLC5        0.0000 
     20 CA          5.2430  -26.9740   -8.9220 C.3       6 GLP5        0.0000 
     21 CA          6.8453  -29.6452  -12.3167 C.3       3 GLC5        0.0000 
     22 CA          7.8310  -27.4940  -12.1910 C.3       9 GLL5        0.0000 
     23 CA          9.8935  -22.8540  -12.1745 C.3       3 GLC5        0.0000 
     24 CA         11.0900  -23.1440  -14.1710 C.3       9 GLL5        0.0000 
     25 CA          8.6560  -23.0710  -10.6230 C.3       6 GLP5        0.0000 
     26 CA          7.2345  -21.6895  -14.2795 C.3       3 GLC5        0.0000 
     27 CA          9.3200  -21.0740  -14.2860 C.3       9 GLL5        0.0000 
     28 CA          5.1920  -21.7860  -13.8170 C.3       6 GLP5        0.0000 
     29 CA          9.2370  -22.0808  -12.2135 C.3       3 GLC5        0.0000 
     30 CA          8.7095  -19.9202  -12.7690 C.3       3 GLC5        0.0000 
     31 CA         10.3160  -21.1070  -13.3220 C.3       9 GLL5        0.0000 
     32 CA          7.6010  -18.7500  -11.7340 C.3       6 GLP5        0.0000 
@<TRIPOS>BOND
@<TRIPOS>SUBSTRUCTURE
     1 ALC1       10 GROUP        1 X    ALC  0     ROOT ALC X 1
     2 SEC2        4 GROUP        1 X    SEC  0     **** SEC X 2
     3 GLC5        1 GROUP        1 X    GLC  0     **** GLC X 6
     4 ALP1       12 GROUP        1 Y    ALP  0     ROOT ALP Y 8
     5 SEP2        6 GROUP        1 Y    SEP  0     **** SEP Y 9
     6 GLP5        3 GROUP        1 Y    GLP  0     **** GLP Y 13
     7 ALL1       11 GROUP        1 Z    ALL  0     ROOT ALL Z 15
     8 SEL2        5 GROUP        1 Z    SEL  0     **** SEL Z 16
     9 GLL5        2 GROUP        1 Z    GLL  0     **** GLL Z 20
@<TRIPOS>SET

