#    Name: 4e0u_0MV_1_ligand
#    Modification time : Tue Mar 25 10:28:16 2014

@<TRIPOS>MOLECULE
4e0u_0MV_1_ligand
   38    41     1     0     0
SMALL
NO_CHARGES


@<TRIPOS>ATOM
      1 O          12.3670  -27.7690  -15.5700 O.2       1 0MV501      0.0000 
      2 C          11.4010  -27.5100  -14.8510 C.2       1 0MV501      0.0000 
      3 NAM        10.4140  -28.5080  -14.7250 N.am      1 0MV501      0.0000 
      4 CAS         9.2270  -28.3120  -13.9900 C.ar      1 0MV501      0.0000 
      5 CAG         8.1160  -28.8430  -14.6380 C.ar      1 0MV501      0.0000 
      6 CAC         6.8600  -28.7050  -14.0610 C.ar      1 0MV501      0.0000 
      7 CAD         6.7180  -28.0350  -12.8400 C.ar      1 0MV501      0.0000 
      8 CAH         7.8310  -27.4940  -12.1910 C.ar      1 0MV501      0.0000 
      9 CAT         9.0870  -27.6390  -12.7760 C.ar      1 0MV501      0.0000 
     10 CAP        10.1340  -27.0660  -12.0610 C.2       1 0MV501      0.0000 
     11 OAA        10.1700  -27.1330  -10.8240 O.2       1 0MV501      0.0000 
     12 N          11.2000  -26.4360  -12.7290 N.am      1 0MV501      0.0000 
     13 CA         11.2890  -26.2530  -14.2160 C.3       1 0MV501      0.0000 
     14 CB         12.4040  -25.3130  -14.6010 C.3       1 0MV501      0.0000 
     15 CG         12.0790  -23.9920  -13.8760 C.2       1 0MV501      0.0000 
     16 CD2        11.0900  -23.1440  -14.1710 C.ar      1 0MV501      0.0000 
     17 CE3        10.1520  -23.1550  -15.1210 C.ar      1 0MV501      0.0000 
     18 CZ3         9.2340  -22.1120  -15.1980 C.ar      1 0MV501      0.0000 
     19 CH2         9.3200  -21.0740  -14.2860 C.ar      1 0MV501      0.0000 
     20 CZ2        10.3160  -21.1070  -13.3220 C.ar      1 0MV501      0.0000 
     21 CE2        11.1720  -22.1300  -13.2810 C.ar      1 0MV501      0.0000 
     22 NE1        12.1990  -22.3730  -12.4540 N.pl3     1 0MV501      0.0000 
     23 CD1        12.7570  -23.5320  -12.8180 C.2       1 0MV501      0.0000 
     24 H          10.5669  -29.4246  -15.1922 H         1 0MV501      0.0000 
     25 H           8.2244  -29.3308  -15.5319 H         1 0MV501      0.0000 
     26 H           6.0307  -29.0936  -14.5273 H         1 0MV501      0.0000 
     27 H           5.7836  -27.9405  -12.4169 H         1 0MV501      0.0000 
     28 H           7.7238  -27.0023  -11.3052 H         1 0MV501      0.0000 
     29 H          12.0043  -26.0562  -12.1841 H         1 0MV501      0.0000 
     30 H          10.3354  -25.7675  -14.5311 H         1 0MV501      0.0000 
     31 H          12.4011  -25.1431  -15.6529 H         1 0MV501      0.0000 
     32 H          13.3399  -25.6821  -14.2500 H         1 0MV501      0.0000 
     33 H          10.0864  -23.9257  -15.8105 H         1 0MV501      0.0000 
     34 H           8.5086  -22.1152  -15.9180 H         1 0MV501      0.0000 
     35 H           8.6591  -20.2939  -14.3220 H         1 0MV501      0.0000 
     36 H          10.3764  -20.3241  -12.6421 H         1 0MV501      0.0000 
     37 H          12.4842  -21.8076  -11.7231 H         1 0MV501      0.0000 
     38 H          13.5116  -23.9598  -12.3951 H         1 0MV501      0.0000 
@<TRIPOS>BOND
     1    2    1 2    
     2    3    2 am   
     3   13    2 1    
     4    4    3 1    
     5   24    3 1    
     6    5    4 ar   
     7    9    4 ar   
     8    6    5 ar   
     9   25    5 1    
    10    7    6 ar   
    11   26    6 1    
    12    8    7 ar   
    13   27    7 1    
    14    9    8 ar   
    15   28    8 1    
    16   10    9 1    
    17   11   10 2    
    18   12   10 am   
    19   13   12 1    
    20   29   12 1    
    21   14   13 1    
    22   30   13 1    
    23   15   14 1    
    24   31   14 1    
    25   32   14 1    
    26   16   15 1    
    27   23   15 2    
    28   17   16 ar   
    29   21   16 ar   
    30   18   17 ar   
    31   33   17 1    
    32   19   18 ar   
    33   34   18 1    
    34   20   19 ar   
    35   35   19 1    
    36   21   20 ar   
    37   36   20 1    
    38   22   21 1    
    39   23   22 1    
    40   37   22 1    
    41   38   23 1    
@<TRIPOS>SUBSTRUCTURE
     1 0MV501      1 GROUP   
@<TRIPOS>SET

