#    Name: 1h36_R88_1_INTS_M
#    Modification time : Tue Mar 25 04:24:58 2014

@<TRIPOS>MOLECULE
1h36_R88_1_INTS_M
   56     0     6     0     0
SMALL
NO_CHARGES


@<TRIPOS>ATOM
      1 CA         64.4935   67.5550   69.9055 C.3       2 GLC5        0.0000 
      2 CA         64.6280   69.2380   68.7750 C.3       6 GLL5        0.0000 
      3 CA         64.3590   65.8720   71.0360 C.3       4 GLP5        0.0000 
      4 CA         61.9085   69.2830   64.5690 C.3       2 GLC5        0.0000 
      5 CA         63.7110   70.3820   64.6920 C.3       6 GLL5        0.0000 
      6 CA         60.1060   68.1840   64.4460 C.3       4 GLP5        0.0000 
      7 CA         62.0330   69.0620   63.1870 C.3       2 GLC5        0.0000 
      8 CA         63.7110   70.4470   63.1970 C.3       6 GLL5        0.0000 
      9 CA         60.3550   67.6770   63.1770 C.3       4 GLP5        0.0000 
     10 OD1        61.2200   73.0985   59.7160 O.co2     1 ASC3        0.0000 
     11 OD1        62.6080   71.9170   60.3700 O.co2     5 ASL3        0.0000 
     12 OD1        59.8320   74.2800   59.0620 O.co2     3 ASP3        0.0000 
     13 CA         60.9170   74.6100   60.7220 C.3       2 GLC5        0.0000 
     14 CA         61.8180   72.9720   61.0740 C.3       6 GLL5        0.0000 
     15 CA         60.0160   76.2480   60.3700 C.3       4 GLP5        0.0000 
     16 CA         61.9425   74.4185   62.5215 C.3       2 GLC5        0.0000 
     17 CA         62.0670   75.8650   63.9690 C.3       4 GLP5        0.0000 
     18 CA         61.5380   68.2520   58.2945 C.3       2 GLC5        0.0000 
     19 CA         62.5720   69.3970   59.4290 C.3       6 GLL5        0.0000 
     20 CA         60.5040   67.1070   57.1600 C.3       4 GLP5        0.0000 
     21 CA         68.0450   69.5745   65.8215 C.3       2 GLC5        0.0000 
     22 CA         66.4490   70.3940   66.9220 C.3       6 GLL5        0.0000 
     23 CA         69.6410   68.7550   64.7210 C.3       4 GLP5        0.0000 
     24 CA         65.5065   73.2430   71.4035 C.3       2 GLC5        0.0000 
     25 CA         67.3440   71.9970   71.3580 C.3       6 GLL5        0.0000 
     26 CA         63.6690   74.4890   71.4490 C.3       4 GLP5        0.0000 
     27 CA         60.2235   69.5800   57.7950 C.3       2 GLC5        0.0000 
     28 CA         61.5770   70.2770   58.6450 C.3       6 GLL5        0.0000 
     29 CA         58.8700   68.8830   56.9450 C.3       4 GLP5        0.0000 
     30 CA         61.6325   71.8375   57.5360 C.3       2 GLC5        0.0000 
     31 CA         61.6880   73.3980   56.4270 C.3       4 GLP5        0.0000 
     32 CA         71.7035   73.5050   74.8435 C.3       2 GLC5        0.0000 
     33 CA         70.7830   72.8210   73.5480 C.3       6 GLL5        0.0000 
     34 CA         72.6240   74.1890   76.1390 C.3       4 GLP5        0.0000 
     35 CA         72.4255   72.0215   73.2010 C.3       2 GLC5        0.0000 
     36 CA         74.0680   71.2220   72.8540 C.3       4 GLP5        0.0000 
     37 CA         66.8777   71.5233   73.0550 C.3       2 GLC5        0.0000 
     38 CA         67.2630   70.5720   71.4220 C.3       6 GLL5        0.0000 
     39 CA         66.4520   71.7620   74.7200 C.3       4 GLP5        0.0000 
     40 CA         62.6625   68.6975   68.4045 C.3       2 GLC5        0.0000 
     41 CA         60.8470   68.1620   68.7260 C.3       4 GLP5        0.0000 
     42 CA         63.5181   70.8451   69.0580 C.3       2 GLC5        0.0000 
     43 CA         64.3280   69.2280   67.3910 C.3       6 GLL5        0.0000 
     44 CA         62.2550   72.3110   69.9130 C.3       4 GLP5        0.0000 
     45 CA         65.3585   67.9585   65.8687 C.3       2 GLC5        0.0000 
     46 CA         65.9330   66.3990   64.8140 C.3       4 GLP5        0.0000 
     47 CA         65.6480   71.4116   61.8761 C.3       2 GLC5        0.0000 
     48 CA         63.9510   71.6640   61.0140 C.3       6 GLL5        0.0000 
     49 CA         67.4080   71.4860   61.8140 C.3       4 GLP5        0.0000 
     50 CA         67.6792   72.0355   73.5360 C.3       2 GLC5        0.0000 
     51 CA         68.4120   72.6780   71.9980 C.3       6 GLL5        0.0000 
     52 CA         60.8636   69.2269   60.6344 C.3       2 GLC5        0.0000 
     53 CA         61.8950   70.6160   60.1200 C.3       6 GLL5        0.0000 
     54 CA         59.8220   68.3120   62.0590 C.3       4 GLP5        0.0000 
     55 CA         67.6220   70.9728   73.5860 C.3       2 GLC5        0.0000 
     56 CA         68.2590   69.8430   72.1320 C.3       6 GLL5        0.0000 
@<TRIPOS>BOND
@<TRIPOS>SUBSTRUCTURE
     1 ASC3       10 GROUP        1 X    ASC  0     ROOT ASC X 3
     2 GLC5        1 GROUP        1 X    GLC  0     **** GLC X 6
     3 ASP3       12 GROUP        1 Y    ASP  0     ROOT ASP Y 10
     4 GLP5        3 GROUP        1 Y    GLP  0     **** GLP Y 13
     5 ASL3       11 GROUP        1 Z    ASL  0     ROOT ASL Z 17
     6 GLL5        2 GROUP        1 Z    GLL  0     **** GLL Z 20
@<TRIPOS>SET

