#    Name: 1h36_R88_1_ligand
#    Modification time : Tue Mar 25 04:24:58 2014

@<TRIPOS>MOLECULE
1h36_R88_1_ligand
   48    50     1     0     0
SMALL
NO_CHARGES


@<TRIPOS>ATOM
      1 C1A        67.2630   70.5720   71.4220 C.ar      1 R88800      0.0000 
      2 C1         66.1310   69.8080   70.7610 C.2       1 R88800      0.0000 
      3 O2         65.4110   69.1320   71.4890 O.2       1 R88800      0.0000 
      4 C1B        65.8410   69.8230   69.2550 C.ar      1 R88800      0.0000 
      5 C6B        64.6280   69.2380   68.7750 C.ar      1 R88800      0.0000 
      6 C5B        64.3280   69.2280   67.3910 C.ar      1 R88800      0.0000 
      7 C4B        65.2400   69.8080   66.4560 C.ar      1 R88800      0.0000 
      8 C2C        63.7110   70.3820   64.6920 C.3       1 R88800      0.0000 
      9 C3C        63.7110   70.4470   63.1970 C.2       1 R88800      0.0000 
     10 C4C        63.9390   71.5740   62.5280 C.2       1 R88800      0.0000 
     11 C5C        63.9510   71.6640   61.0140 C.3       1 R88800      0.0000 
     12 N1D        62.6080   71.9170   60.3700 N.4       1 R88800      0.0000 
     13 C1F        61.8180   72.9720   61.0740 C.3       1 R88800      0.0000 
     14 C1E        61.8950   70.6160   60.1200 C.3       1 R88800      0.0000 
     15 C2E        62.5720   69.3970   59.4290 C.3       1 R88800      0.0000 
     16 C3B        66.4490   70.3940   66.9220 C.ar      1 R88800      0.0000 
     17 C2B        66.7490   70.4020   68.3110 C.ar      1 R88800      0.0000 
     18 C6A        67.3440   71.9970   71.3580 C.ar      1 R88800      0.0000 
     19 C5A        68.4120   72.6780   71.9980 C.ar      1 R88800      0.0000 
     20 C4A        69.4010   71.9400   72.7060 C.ar      1 R88800      0.0000 
     21 O1C        64.9670   69.8030   65.0830 O.3       1 R88800      0.0000 
     22 C3E        61.5770   70.2770   58.6450 C.3       1 R88800      0.0000 
     23 BR23       70.7830   72.8210   73.5480 Br        1 R88800      0.0000 
     24 C3A        69.3250   70.5240   72.7720 C.ar      1 R88800      0.0000 
     25 C2A        68.2590   69.8430   72.1320 C.ar      1 R88800      0.0000 
     26 H          63.9737   68.8238   69.4430 H         1 R88800      0.0000 
     27 H          63.4629   68.8084   67.0559 H         1 R88800      0.0000 
     28 H          62.8746   69.7706   65.0186 H         1 R88800      0.0000 
     29 H          63.5978   71.3868   65.0889 H         1 R88800      0.0000 
     30 H          63.5180   69.5379   62.7255 H         1 R88800      0.0000 
     31 H          64.1282   72.4876   63.0023 H         1 R88800      0.0000 
     32 H          64.3764   70.7224   60.6039 H         1 R88800      0.0000 
     33 H          64.6546   72.4692   60.7100 H         1 R88800      0.0000 
     34 H          62.8578   72.3343   59.3352 H         1 R88800      0.0000 
     35 H          61.1408   70.2409   60.6160 H         1 R88800      0.0000 
     36 H          62.1032   68.6321   59.7119 H         1 R88800      0.0000 
     37 H          63.4379   69.6719   59.1852 H         1 R88800      0.0000 
     38 H          67.1013   70.8089   66.2582 H         1 R88800      0.0000 
     39 H          67.6171   70.8225   68.6432 H         1 R88800      0.0000 
     40 H          66.6330   72.5204   70.8519 H         1 R88800      0.0000 
     41 H          68.4717   73.6927   71.9515 H         1 R88800      0.0000 
     42 H          62.0850   70.8642   58.1106 H         1 R88800      0.0000 
     43 H          60.7503   69.8244   58.6374 H         1 R88800      0.0000 
     44 H          70.0354   69.9991   73.2784 H         1 R88800      0.0000 
     45 H          68.2027   68.8250   72.1788 H         1 R88800      0.0000 
     46 H          61.6374   72.7271   62.0266 H         1 R88800      0.0000 
     47 H          62.2961   73.8502   61.0827 H         1 R88800      0.0000 
     48 H          60.9314   73.1253   60.6376 H         1 R88800      0.0000 
@<TRIPOS>BOND
     1    2    1 1    
     2   18    1 ar   
     3   25    1 ar   
     4    3    2 2    
     5    4    2 1    
     6    5    4 ar   
     7   17    4 ar   
     8    6    5 ar   
     9   26    5 1    
    10    7    6 ar   
    11   27    6 1    
    12   16    7 ar   
    13   21    7 1    
    14    9    8 1    
    15   21    8 1    
    16   28    8 1    
    17   29    8 1    
    18   10    9 2    
    19   30    9 1    
    20   11   10 1    
    21   31   10 1    
    22   12   11 1    
    23   32   11 1    
    24   33   11 1    
    25   13   12 1    
    26   14   12 1    
    27   34   12 1    
    28   46   13 1    
    29   47   13 1    
    30   48   13 1    
    31   15   14 1    
    32   22   14 1    
    33   35   14 1    
    34   22   15 1    
    35   36   15 1    
    36   37   15 1    
    37   17   16 ar   
    38   38   16 1    
    39   39   17 1    
    40   19   18 ar   
    41   40   18 1    
    42   20   19 ar   
    43   41   19 1    
    44   23   20 1    
    45   24   20 ar   
    46   42   22 1    
    47   43   22 1    
    48   25   24 ar   
    49   44   24 1    
    50   45   25 1    
@<TRIPOS>SUBSTRUCTURE
     1 R88800      1 GROUP   
@<TRIPOS>SET

