#    Name: 3bla_DD3_1_INTS_M
#    Modification time : Mon Mar 24 19:50:16 2014

@<TRIPOS>MOLECULE
3bla_DD3_1_INTS_M
   53     0     9     0     0
SMALL
NO_CHARGES


@<TRIPOS>ATOM
      1 CA          2.3155   -0.8470   19.8480 C.3       3 GLC5        0.0000 
      2 CA          3.7140   -0.0930   20.6220 C.3       9 GLL5        0.0000 
      3 CA          0.9170   -1.6010   19.0740 C.3       6 GLP5        0.0000 
      4 CA          9.0715   -0.3740   25.2035 C.3       3 GLC5        0.0000 
      5 CA          7.9520   -0.1080   23.2770 C.3       9 GLL5        0.0000 
      6 CA         10.1910   -0.6400   27.1300 C.3       6 GLP5        0.0000 
      7 CA          5.6125    2.7850   23.8110 C.3       3 GLC5        0.0000 
      8 CA          6.0620    1.1340   22.4290 C.3       9 GLL5        0.0000 
      9 CA          5.1630    4.4360   25.1930 C.3       6 GLP5        0.0000 
     10 N           1.1685    5.4960   22.4945 N.am      2 SEC2        0.0000 
     11 N           0.3140    4.3310   22.9700 N.am      8 SEL2        0.0000 
     12 N           2.0230    6.6610   22.0190 N.am      5 SEP2        0.0000 
     13 CA          4.1150    1.3420   27.5035 C.3       3 GLC5        0.0000 
     14 CA          2.6910    1.3010   26.2000 C.3       9 GLL5        0.0000 
     15 CA          5.5390    1.3830   28.8070 C.3       6 GLP5        0.0000 
     16 CA          1.2430    2.3490   28.2730 C.3       3 GLC5        0.0000 
     17 CA          1.7320    2.3060   26.3370 C.3       9 GLL5        0.0000 
     18 CA          0.7540    2.3920   30.2090 C.3       6 GLP5        0.0000 
     19 CA          0.8010    5.1895   21.4910 C.3       3 GLC5        0.0000 
     20 CA          1.2330    3.3770   22.7330 C.3       9 GLL5        0.0000 
     21 CA          0.3690    7.0020   20.2490 C.3       6 GLP5        0.0000 
     22 CA         -0.4350    3.2760   21.5785 C.3       3 GLC5        0.0000 
     23 CA         -2.1030    3.1750   20.4240 C.3       6 GLP5        0.0000 
     24 CA         10.1335    2.3655   22.7435 C.3       3 GLC5        0.0000 
     25 CA          8.4420    2.5340   22.6950 C.3       9 GLL5        0.0000 
     26 CA         11.8250    2.1970   22.7920 C.3       6 GLP5        0.0000 
     27 CA          8.7140    3.4865   24.3810 C.3       3 GLC5        0.0000 
     28 CA          8.9860    4.4390   26.0670 C.3       6 GLP5        0.0000 
     29 CA          6.7920    3.9015   23.2930 C.3       3 GLC5        0.0000 
     30 CA          5.1420    5.2690   23.8910 C.3       6 GLP5        0.0000 
     31 O           1.4205    3.7185   20.0870 O.2       1 ALC1        0.0000 
     32 O           1.6140    3.1680   21.4550 O.2       7 ALL1        0.0000 
     33 O           1.2270    4.2690   18.7190 O.2       4 ALP1        0.0000 
     34 CA         -1.6885    3.5375   24.9460 C.3       3 GLC5        0.0000 
     35 CA         -0.1340    4.6170   24.2080 C.3       9 GLL5        0.0000 
     36 CA         -3.2430    2.4580   25.6840 C.3       6 GLP5        0.0000 
     37 CA          1.7780    5.1655   23.9070 C.3       3 GLC5        0.0000 
     38 CA          3.6900    5.7140   23.6060 C.3       6 GLP5        0.0000 
     39 O          -1.1615    5.9460   25.6680 O.2       1 ALC1        0.0000 
     40 O          -1.0590    5.5900   24.2900 O.2       7 ALL1        0.0000 
     41 O          -1.2640    6.3020   27.0460 O.2       4 ALP1        0.0000 
     42 O          -1.2060    6.6795   23.2625 O.2       1 ALC1        0.0000 
     43 O          -1.3530    7.7690   22.2350 O.2       4 ALP1        0.0000 
     44 CA          2.1105   -0.6467   22.0215 C.3       3 GLC5        0.0000 
     45 CA          3.8360    0.0260   22.1340 C.3       9 GLL5        0.0000 
     46 CA          0.4460   -1.2600   22.6650 C.3       6 GLP5        0.0000 
     47 CA          4.0823    2.8380   24.7838 C.3       3 GLC5        0.0000 
     48 CA          2.7870    1.5540   23.7860 C.3       9 GLL5        0.0000 
     49 CA          1.3137    0.2313   26.9838 C.3       3 GLC5        0.0000 
     50 CA          0.4160   -1.3410   27.6990 C.3       6 GLP5        0.0000 
     51 CA          3.6873    3.1197   25.7308 C.3       3 GLC5        0.0000 
     52 CA          2.5322    4.3560   23.9381 C.3       3 GLC5        0.0000 
     53 CA          1.7730    2.6290   23.8940 C.3       9 GLL5        0.0000 
@<TRIPOS>BOND
@<TRIPOS>SUBSTRUCTURE
     1 ALC1       31 GROUP        1 X    ALC  0     ROOT ALC X 1
     2 SEC2       10 GROUP        1 X    SEC  0     **** SEC X 2
     3 GLC5        1 GROUP        1 X    GLC  0     **** GLC X 6
     4 ALP1       33 GROUP        1 Y    ALP  0     ROOT ALP Y 8
     5 SEP2       12 GROUP        1 Y    SEP  0     **** SEP Y 9
     6 GLP5        3 GROUP        1 Y    GLP  0     **** GLP Y 13
     7 ALL1       32 GROUP        1 Z    ALL  0     ROOT ALL Z 15
     8 SEL2       11 GROUP        1 Z    SEL  0     **** SEL Z 16
     9 GLL5        2 GROUP        1 Z    GLL  0     **** GLL Z 20
@<TRIPOS>SET

