#    Name: 3bla_DD3_1_ligand
#    Modification time : Mon Mar 24 19:50:16 2014

@<TRIPOS>MOLECULE
3bla_DD3_1_ligand
   37    39     1     0     0
SMALL
NO_CHARGES


@<TRIPOS>ATOM
      1 C14         5.2650   -0.0070   22.5200 C.ar      1 DD31        0.0000 
      2 C13         3.7140   -0.0930   20.6220 C.3       1 DD31        0.0000 
      3 C12         3.8360    0.0260   22.1340 C.3       1 DD31        0.0000 
      4 C17         7.9520   -0.1080   23.2770 C.ar      1 DD31        0.0000 
      5 C16         7.4030    1.0770   22.8080 C.ar      1 DD31        0.0000 
      6 C15         6.0620    1.1340   22.4290 C.ar      1 DD31        0.0000 
      7 N3          0.3140    4.3310   22.9700 N.ar      1 DD31        0.0000 
      8 C10         2.7870    1.5540   23.7860 C.ar      1 DD31        0.0000 
      9 C8          2.6910    1.3010   26.2000 C.ar      1 DD31        0.0000 
     10 C7          1.7320    2.3060   26.3370 C.ar      1 DD31        0.0000 
     11 C5          1.7730    2.6290   23.8940 C.ar      1 DD31        0.0000 
     12 C4          1.2330    3.3770   22.7330 C.ar      1 DD31        0.0000 
     13 C19         5.8170   -1.1980   22.9900 C.ar      1 DD31        0.0000 
     14 C9          3.2160    0.9260   24.9630 C.ar      1 DD31        0.0000 
     15 CL2         8.4420    2.5340   22.6950 Cl        1 DD31        0.0000 
     16 C18         7.1630   -1.2530   23.3570 C.ar      1 DD31        0.0000 
     17 O11         3.2550    1.2590   22.5320 O.3       1 DD31        0.0000 
     18 C6          1.2460    2.9930   25.2270 C.ar      1 DD31        0.0000 
     19 N1          0.3100    3.9740   25.3150 N.ar      1 DD31        0.0000 
     20 N22         1.6140    3.1680   21.4550 N.pl3     1 DD31        0.0000 
     21 C2         -0.1340    4.6170   24.2080 C.ar      1 DD31        0.0000 
     22 N21        -1.0590    5.5900   24.2900 N.pl3     1 DD31        0.0000 
     23 H           3.3224   -0.8089   22.5745 H         1 DD31        0.0000 
     24 H           8.9373   -0.1431   23.5650 H         1 DD31        0.0000 
     25 H           5.6624    2.0138   22.0838 H         1 DD31        0.0000 
     26 H           3.0290    0.8100   27.0585 H         1 DD31        0.0000 
     27 H           1.3770    2.5437   27.2795 H         1 DD31        0.0000 
     28 H           5.2311   -2.0398   23.0670 H         1 DD31        0.0000 
     29 H           3.9254    0.1811   24.9115 H         1 DD31        0.0000 
     30 H           7.5690   -2.1367   23.6851 H         1 DD31        0.0000 
     31 H           1.2226    3.7853   20.7726 H         1 DD31        0.0000 
     32 H           2.2538    2.4143   21.3042 H         1 DD31        0.0000 
     33 H          -1.3832    5.8125   25.2094 H         1 DD31        0.0000 
     34 H          -1.3400    6.0041   23.4242 H         1 DD31        0.0000 
     35 H           4.1836    0.6541   20.1516 H         1 DD31        0.0000 
     36 H           4.1093   -0.9469   20.2836 H         1 DD31        0.0000 
     37 H           2.7597   -0.0733   20.3237 H         1 DD31        0.0000 
@<TRIPOS>BOND
     1    3    1 1    
     2    6    1 ar   
     3   13    1 ar   
     4    3    2 1    
     5   35    2 1    
     6   36    2 1    
     7   37    2 1    
     8   17    3 1    
     9   23    3 1    
    10    5    4 ar   
    11   16    4 ar   
    12   24    4 1    
    13    6    5 ar   
    14   15    5 1    
    15   25    6 1    
    16   12    7 ar   
    17   21    7 ar   
    18   11    8 ar   
    19   14    8 ar   
    20   17    8 1    
    21   10    9 ar   
    22   14    9 ar   
    23   26    9 1    
    24   18   10 ar   
    25   27   10 1    
    26   12   11 ar   
    27   18   11 ar   
    28   20   12 1    
    29   16   13 ar   
    30   28   13 1    
    31   29   14 1    
    32   30   16 1    
    33   19   18 ar   
    34   21   19 ar   
    35   31   20 1    
    36   32   20 1    
    37   22   21 1    
    38   33   22 1    
    39   34   22 1    
@<TRIPOS>SUBSTRUCTURE
     1 DD31        1 GROUP   
@<TRIPOS>SET

