#    Name: 3hrr_HC8_2_INTS_M
#    Modification time : Tue Mar 25 14:55:39 2014

@<TRIPOS>MOLECULE
3hrr_HC8_2_INTS_M
   43     0     6     0     0
SMALL
NO_CHARGES


@<TRIPOS>ATOM
      1 N         -12.8760  -28.2385   15.3995 N.am      1 SEC2        0.0000 
      2 N         -11.7710  -28.8730   14.9760 N.am      5 SEL2        0.0000 
      3 N         -13.9810  -27.6040   15.8230 N.am      3 SEP2        0.0000 
      4 CA        -13.3610  -29.0540   16.4845 C.3       2 GLC5        0.0000 
      5 CA        -12.5380  -30.9120   15.9010 C.3       6 GLL5        0.0000 
      6 CA        -14.1840  -27.1960   17.0680 C.3       4 GLP5        0.0000 
      7 CA        -13.3915  -31.3295   14.1525 C.3       2 GLC5        0.0000 
      8 CA        -14.2450  -31.7470   12.4040 C.3       4 GLP5        0.0000 
      9 CA        -14.0215  -31.4075   17.1385 C.3       2 GLC5        0.0000 
     10 CA        -15.5050  -31.9030   18.3760 C.3       4 GLP5        0.0000 
     11 CA        -12.7640  -31.2445   17.9490 C.3       2 GLC5        0.0000 
     12 CA        -12.9900  -31.5770   19.9970 C.3       4 GLP5        0.0000 
     13 CA        -10.5965  -27.7675   11.8095 C.3       2 GLC5        0.0000 
     14 CA         -9.7870  -28.3760   13.3060 C.3       6 GLL5        0.0000 
     15 CA        -11.4060  -27.1590   10.3130 C.3       4 GLP5        0.0000 
     16 CA        -11.0125  -29.4785   12.3935 C.3       2 GLC5        0.0000 
     17 CA        -12.2380  -30.5810   11.4810 C.3       4 GLP5        0.0000 
     18 CA         -7.9675  -28.1500   12.0340 C.3       2 GLC5        0.0000 
     19 CA         -6.1480  -27.9240   10.7620 C.3       4 GLP5        0.0000 
     20 CA         -7.6350  -27.2190   15.3240 C.3       2 GLC5        0.0000 
     21 CA         -9.3260  -26.9820   15.5450 C.3       6 GLL5        0.0000 
     22 CA         -5.9440  -27.4560   15.1030 C.3       4 GLP5        0.0000 
     23 CA         -9.2615  -34.0795   13.2660 C.3       2 GLC5        0.0000 
     24 CA         -8.5350  -32.3800   14.4650 C.3       6 GLL5        0.0000 
     25 CA         -9.9880  -35.7790   12.0670 C.3       4 GLP5        0.0000 
     26 CA        -10.2290  -30.4280   12.3840 C.3       2 GLC5        0.0000 
     27 CA         -8.2200  -30.2750   13.2870 C.3       6 GLL5        0.0000 
     28 CA         -7.1840  -29.0995   12.0245 C.3       2 GLC5        0.0000 
     29 CA         -9.1370  -35.1115   14.0765 C.3       2 GLC5        0.0000 
     30 CA         -8.0440  -33.6660   14.8050 C.3       6 GLL5        0.0000 
     31 CA        -10.2300  -36.5570   13.3480 C.3       4 GLP5        0.0000 
     32 CA         -8.4020  -34.9305   13.1720 C.3       2 GLC5        0.0000 
     33 CA         -6.8160  -34.0820   14.2770 C.3       6 GLL5        0.0000 
     34 CA         -7.0460  -31.9010   11.0950 C.3       2 GLC5        0.0000 
     35 CA         -6.5520  -31.9950   13.1080 C.3       6 GLL5        0.0000 
     36 CA         -7.5400  -31.8070    9.0820 C.3       4 GLP5        0.0000 
     37 CA         -4.2820  -34.7270   10.2280 C.3       2 GLC5        0.0000 
     38 CA         -4.3810  -33.3040   11.6110 C.3       6 GLL5        0.0000 
     39 CA         -4.1830  -36.1500    8.8450 C.3       4 GLP5        0.0000 
     40 CA         -5.9605  -32.5555   10.3465 C.3       2 GLC5        0.0000 
     41 CA        -11.0129  -30.8100   13.0355 C.3       2 GLC5        0.0000 
     42 CA         -9.4180  -29.7790   13.7840 C.3       6 GLL5        0.0000 
     43 CA         -7.4276  -28.5661   14.2595 C.3       2 GLC5        0.0000 
@<TRIPOS>BOND
@<TRIPOS>SUBSTRUCTURE
     1 SEC2        1 GROUP        1 X    SEC  0     ROOT SEC X 2
     2 GLC5        4 GROUP        1 X    GLC  0     **** GLC X 6
     3 SEP2        3 GROUP        1 Y    SEP  0     ROOT SEP Y 9
     4 GLP5        6 GROUP        1 Y    GLP  0     **** GLP Y 13
     5 SEL2        2 GROUP        1 Z    SEL  0     ROOT SEL Z 16
     6 GLL5        5 GROUP        1 Z    GLL  0     **** GLL Z 20
@<TRIPOS>SET

