#    Name: 3hrr_HC8_2_ligand
#    Modification time : Tue Mar 25 14:55:39 2014

@<TRIPOS>MOLECULE
3hrr_HC8_2_ligand
   37    38     1     0     0
SMALL
NO_CHARGES


@<TRIPOS>ATOM
      1 O21       -11.7710  -28.8730   14.9760 O.2       1 HC84000     0.0000 
      2 C19       -11.5340  -30.0590   15.1640 C.2       1 HC84000     0.0000 
      3 C20       -12.5380  -30.9120   15.9010 C.3       1 HC84000     0.0000 
      4 C18       -10.2150  -30.5950   14.6300 C.ar      1 HC84000     0.0000 
      5 C5         -9.4180  -29.7790   13.7840 C.ar      1 HC84000     0.0000 
      6 C4         -9.7870  -28.3760   13.3060 C.3       1 HC84000     0.0000 
      7 C2        -10.1580  -27.2730   14.3000 C.2       1 HC84000     0.0000 
      8 O3        -11.1120  -26.5300   14.0340 O.2       1 HC84000     0.0000 
      9 C1         -9.3260  -26.9820   15.5450 C.3       1 HC84000     0.0000 
     10 C16        -9.7590  -31.8910   14.9730 C.ar      1 HC84000     0.0000 
     11 O17       -10.4860  -32.7090   15.7990 O.3       1 HC84000     0.0000 
     12 C15        -8.5350  -32.3800   14.4650 C.ar      1 HC84000     0.0000 
     13 C7         -7.7750  -31.5540   13.6240 C.ar      1 HC84000     0.0000 
     14 C6         -8.2200  -30.2750   13.2870 C.ar      1 HC84000     0.0000 
     15 C13        -8.0440  -33.6660   14.8050 C.ar      1 HC84000     0.0000 
     16 O14        -8.7250  -34.5300   15.6400 O.3       1 HC84000     0.0000 
     17 C12        -6.8160  -34.0820   14.2770 C.ar      1 HC84000     0.0000 
     18 C9         -6.0740  -33.2740   13.4140 C.ar      1 HC84000     0.0000 
     19 C8         -6.5520  -31.9950   13.1080 C.ar      1 HC84000     0.0000 
     20 O10        -4.8540  -33.7240   12.9010 O.3       1 HC84000     0.0000 
     21 C11        -4.3810  -33.3040   11.6110 C.3       1 HC84000     0.0000 
     22 H         -10.6379  -28.4728   12.5604 H         1 HC84000     0.0000 
     23 H          -8.9356  -27.9908   12.6609 H         1 HC84000     0.0000 
     24 H          -7.6455  -29.6888   12.6560 H         1 HC84000     0.0000 
     25 H          -6.4483  -35.0185   14.5358 H         1 HC84000     0.0000 
     26 H          -6.0005  -31.3756   12.4999 H         1 HC84000     0.0000 
     27 H         -12.2292  -31.8593   15.9859 H         1 HC84000     0.0000 
     28 H         -12.7039  -30.5736   16.8273 H         1 HC84000     0.0000 
     29 H         -13.4219  -30.9326   15.4338 H         1 HC84000     0.0000 
     30 H          -8.3870  -26.7279   15.3132 H         1 HC84000     0.0000 
     31 H          -9.7095  -26.2296   16.0805 H         1 HC84000     0.0000 
     32 H          -9.2738  -27.7760   16.1507 H         1 HC84000     0.0000 
     33 H          -3.4976  -33.7157   11.3873 H         1 HC84000     0.0000 
     34 H          -5.0161  -33.5585   10.8817 H         1 HC84000     0.0000 
     35 H          -4.2626  -32.3122   11.5637 H         1 HC84000     0.0000 
     36 H         -11.3509  -32.8578   15.3197 H         1 HC84000     0.0000 
     37 H          -9.4011  -33.9597   16.1066 H         1 HC84000     0.0000 
@<TRIPOS>BOND
     1    2    1 2    
     2    3    2 1    
     3    4    2 1    
     4   27    3 1    
     5   28    3 1    
     6   29    3 1    
     7    5    4 ar   
     8   10    4 ar   
     9    6    5 1    
    10   14    5 ar   
    11    7    6 1    
    12   22    6 1    
    13   23    6 1    
    14    8    7 2    
    15    9    7 1    
    16   30    9 1    
    17   31    9 1    
    18   32    9 1    
    19   11   10 1    
    20   12   10 ar   
    21   36   11 1    
    22   13   12 ar   
    23   15   12 ar   
    24   14   13 ar   
    25   19   13 ar   
    26   24   14 1    
    27   16   15 1    
    28   17   15 ar   
    29   37   16 1    
    30   18   17 ar   
    31   25   17 1    
    32   19   18 ar   
    33   20   18 1    
    34   26   19 1    
    35   21   20 1    
    36   33   21 1    
    37   34   21 1    
    38   35   21 1    
@<TRIPOS>SUBSTRUCTURE
     1 HC84000     1 GROUP   
@<TRIPOS>SET

