#    Name: 1FZF_1_CAVITY_N1_6.mol2
#    Modification time : Tue Mar 11 00:17:00 2014

@<TRIPOS>MOLECULE
1FZF_1_CAVITY_N1_6.mol2
  109     0     5     0     0
SMALL
NO_CHARGES


@<TRIPOS>ATOM
      1 CZ         61.1754  118.5807  134.4706 C.ar      3 PHE5        0.0000 
      2 CZ         59.9761  119.4123  134.8172 C.ar      3 PHE5        0.0000 
      3 CA         60.4214  117.9700  133.3267 C.3       4 GLY6        0.0000 
      4 CZ         59.2221  118.8016  133.6733 C.ar      3 PHE5        0.0000 
      5 CA         59.6674  117.3593  132.1828 C.3       4 GLY6        0.0000 
      6 CA         58.4680  118.1909  132.5294 C.3       4 GLY6        0.0000 
      7 CZ         57.2687  119.0225  132.8760 C.ar      3 PHE5        0.0000 
      8 CZ         56.0694  119.8541  133.2227 C.ar      3 PHE5        0.0000 
      9 CZ         54.8701  120.6856  133.5693 C.ar      3 PHE5        0.0000 
     10 N          57.7140  117.5802  131.3855 N.2       1 ALA2        0.0000 
     11 DU         56.5147  118.4118  131.7321 H         5 CUB7        0.0000 
     12 NZ         55.3154  119.2434  132.0788 N.2       2 LYS4        0.0000 
     13 O          54.1161  120.0749  132.4254 O.2       1 ALA2        0.0000 
     14 N          56.9600  116.9695  130.2416 N.2       1 ALA2        0.0000 
     15 DU         55.7607  117.8011  130.5882 H         5 CUB7        0.0000 
     16 DU         54.5613  118.6327  130.9349 H         5 CUB7        0.0000 
     17 O          53.3620  119.4643  131.2815 O.2       1 ALA2        0.0000 
     18 N          57.4052  115.5273  128.7511 N.2       1 ALA2        0.0000 
     19 CA         56.2059  116.3589  129.0977 C.3       4 GLY6        0.0000 
     20 CA         55.0066  117.1904  129.4444 C.3       4 GLY6        0.0000 
     21 CZ         53.8073  118.0220  129.7910 C.ar      3 PHE5        0.0000 
     22 O          52.6080  118.8536  130.1376 O.2       1 ALA2        0.0000 
     23 CZ         54.2526  116.5797  128.3005 C.ar      3 PHE5        0.0000 
     24 CA         55.5286  116.2341  133.5447 C.3       4 GLY6        0.0000 
     25 NZ         54.3293  117.0657  133.8913 N.2       2 LYS4        0.0000 
     26 N          54.7746  115.6234  132.4008 N.2       1 ALA2        0.0000 
     27 NZ         53.5753  116.4550  132.7475 N.2       2 LYS4        0.0000 
     28 DU         60.3924  120.0152  128.3200 H         5 CUB7        0.0000 
     29 CA         60.8377  118.5729  126.8295 C.3       4 GLY6        0.0000 
     30 DU         59.6384  119.4045  127.1761 H         5 CUB7        0.0000 
     31 DU         58.4391  120.2360  127.5228 H         5 CUB7        0.0000 
     32 DU         57.2397  121.0676  127.8694 H         5 CUB7        0.0000 
     33 NZ         60.0836  117.9622  125.6856 N.2       2 LYS4        0.0000 
     34 NZ         58.8843  118.7938  126.0322 N.2       2 LYS4        0.0000 
     35 NZ         57.6850  119.6254  126.3789 N.2       2 LYS4        0.0000 
     36 NZ         56.4857  120.4569  126.7255 N.2       2 LYS4        0.0000 
     37 NZ         55.2864  121.2885  127.0721 N.2       2 LYS4        0.0000 
     38 CA         54.5136  116.1016  130.3506 C.3       4 GLY6        0.0000 
     39 CZ         53.3143  116.9332  130.6973 C.ar      3 PHE5        0.0000 
     40 CA         52.1150  117.7647  131.0439 C.3       4 GLY6        0.0000 
     41 NZ         56.2827  116.8448  134.6886 N.2       2 LYS4        0.0000 
     42 NZ         55.0834  117.6764  135.0352 N.2       2 LYS4        0.0000 
     43 CZ         61.6685  119.6695  133.5643 C.ar      3 PHE5        0.0000 
     44 CZ         60.9144  119.0589  132.4204 C.ar      3 PHE5        0.0000 
     45 CZ         59.7151  119.8904  132.7670 C.ar      3 PHE5        0.0000 
     46 CZ         54.9179  123.2167  134.1535 C.ar      3 PHE5        0.0000 
     47 CA         61.3597  117.6166  130.9299 C.3       4 GLY6        0.0000 
     48 DU         60.1604  118.4482  131.2765 H         5 CUB7        0.0000 
     49 DU         58.9611  119.2797  131.6231 H         5 CUB7        0.0000 
     50 CZ         57.7618  120.1113  131.9697 C.ar      3 PHE5        0.0000 
     51 CZ         56.5625  120.9429  132.3164 C.ar      3 PHE5        0.0000 
     52 CZ         55.3631  121.7745  132.6630 C.ar      3 PHE5        0.0000 
     53 O          54.1638  122.6060  133.0096 O.2       1 ALA2        0.0000 
     54 N          59.4063  117.8375  130.1326 N.2       1 ALA2        0.0000 
     55 DU         58.2070  118.6691  130.4792 H         5 CUB7        0.0000 
     56 DU         57.0077  119.5006  130.8259 H         5 CUB7        0.0000 
     57 DU         55.8084  120.3322  131.1725 H         5 CUB7        0.0000 
     58 O          54.6091  121.1638  131.5191 O.2       1 ALA2        0.0000 
     59 CA         59.8516  116.3952  128.6421 C.3       4 GLY6        0.0000 
     60 N          58.6523  117.2268  128.9887 N.2       1 ALA2        0.0000 
     61 DU         57.4530  118.0584  129.3353 H         5 CUB7        0.0000 
     62 DU         55.0544  119.7215  130.0286 H         5 CUB7        0.0000 
     63 O          53.8551  120.5531  130.3752 O.2       1 ALA2        0.0000 
     64 CA         59.0976  115.7846  127.4982 C.3       4 GLY6        0.0000 
     65 N          57.8983  116.6161  127.8448 N.2       1 ALA2        0.0000 
     66 CA         56.6990  117.4477  128.1914 C.3       4 GLY6        0.0000 
     67 DU         55.4996  118.2793  128.5381 H         5 CUB7        0.0000 
     68 DU         54.3003  119.1108  128.8847 H         5 CUB7        0.0000 
     69 O          53.1010  119.9424  129.2313 O.2       1 ALA2        0.0000 
     70 N          57.1442  116.0054  126.7009 N.2       1 ALA2        0.0000 
     71 CA         55.9449  116.8370  127.0476 C.3       4 GLY6        0.0000 
     72 CZ         54.7456  117.6686  127.3942 C.ar      3 PHE5        0.0000 
     73 CA         53.5463  118.5001  127.7408 C.3       4 GLY6        0.0000 
     74 CZ         61.7760  118.2195  124.4327 C.ar      3 PHE5        0.0000 
     75 NZ         60.5767  119.0511  124.7793 N.2       2 LYS4        0.0000 
     76 NZ         59.3774  119.8826  125.1259 N.2       2 LYS4        0.0000 
     77 NZ         58.1780  120.7142  125.4726 N.2       2 LYS4        0.0000 
     78 CZ         62.6068  119.3161  131.1675 C.ar      3 PHE5        0.0000 
     79 CA         61.8527  118.7054  130.0236 C.3       4 GLY6        0.0000 
     80 DU         60.6534  119.5370  130.3702 H         5 CUB7        0.0000 
     81 DU         59.4541  120.3686  130.7168 H         5 CUB7        0.0000 
     82 CA         61.0987  118.0948  128.8797 C.3       4 GLY6        0.0000 
     83 DU         59.8994  118.9263  129.2263 H         5 CUB7        0.0000 
     84 DU         57.5008  120.5895  129.9196 H         5 CUB7        0.0000 
     85 DU         56.3014  121.4210  130.2662 H         5 CUB7        0.0000 
     86 CA         60.3446  117.4841  127.7358 C.3       4 GLY6        0.0000 
     87 DU         59.1453  118.3156  128.0824 H         5 CUB7        0.0000 
     88 CA         59.5906  116.8734  126.5919 C.3       4 GLY6        0.0000 
     89 DU         58.3913  117.7050  126.9385 H         5 CUB7        0.0000 
     90 NZ         57.1920  118.5365  127.2852 N.2       2 LYS4        0.0000 
     91 NZ         55.9927  119.3681  127.6318 N.2       2 LYS4        0.0000 
     92 DU         54.7934  120.1997  127.9784 H         5 CUB7        0.0000 
     93 CA         57.6373  117.0943  125.7946 C.3       4 GLY6        0.0000 
     94 NZ         55.2386  118.7574  126.4879 N.2       2 LYS4        0.0000 
     95 NZ         54.0393  119.5890  126.8345 N.2       2 LYS4        0.0000 
     96 CA         52.8400  120.4206  127.1811 C.3       4 GLY6        0.0000 
     97 N          59.4831  118.3234  135.7235 N.2       1 ALA2        0.0000 
     98 CA         58.7291  117.7128  134.5796 C.3       4 GLY6        0.0000 
     99 CZ         57.5297  118.5443  134.9262 C.ar      3 PHE5        0.0000 
    100 CA         57.9750  117.1021  133.4357 C.3       4 GLY6        0.0000 
    101 CZ         56.7757  117.9336  133.7823 C.ar      3 PHE5        0.0000 
    102 CZ         55.5764  118.7652  134.1289 C.ar      3 PHE5        0.0000 
    103 NZ         54.3771  119.5968  134.4756 N.2       2 LYS4        0.0000 
    104 CA         57.2210  116.4914  132.2918 C.3       4 GLY6        0.0000 
    105 CA         56.0217  117.3230  132.6384 C.3       4 GLY6        0.0000 
    106 NZ         54.8224  118.1545  132.9851 N.2       2 LYS4        0.0000 
    107 N          56.4669  115.8807  131.1479 N.2       1 ALA2        0.0000 
    108 N          55.2676  116.7123  131.4945 N.2       1 ALA2        0.0000 
    109 NZ         54.0683  117.5438  131.8412 N.2       2 LYS4        0.0000 
@<TRIPOS>BOND
@<TRIPOS>SUBSTRUCTURE
     1 ALA2       10 GROUP   
     2 LYS4       12 GROUP   
     3 PHE5        1 GROUP   
     4 GLY6        3 GROUP   
     5 CUB7       11 GROUP   
@<TRIPOS>SET

