#    Name: 1fzf_GLY_HIS_ARG_PRO_1_INTS_M
#    Modification time : Tue Mar 25 02:14:07 2014

@<TRIPOS>MOLECULE
1fzf_GLY_HIS_ARG_PRO_1_INTS_M
   46     0    12     0     0
SMALL
NO_CHARGES


@<TRIPOS>ATOM
      1 OD1        53.0880  116.8015  133.9165 O.co2     3 ASC3        0.0000 
      2 OD1        54.0250  115.1450  133.4930 O.co2    11 ASL3        0.0000 
      3 OD1        52.1510  118.4580  134.3400 O.co2     7 ASP3        0.0000 
      4 OD1        52.8400  115.7540  134.0725 O.co2     3 ASC3        0.0000 
      5 OD1        51.6550  116.3630  134.6520 O.co2     7 ASP3        0.0000 
      6 O          52.8400  115.7540  134.0725 O.2       1 ALC1        0.0000 
      7 O          54.0250  115.1450  133.4930 O.2       9 ALL1        0.0000 
      8 O          51.6550  116.3630  134.6520 O.2       5 ALP1        0.0000 
      9 O          53.7665  114.2000  132.4885 O.2       1 ALC1        0.0000 
     10 O          53.5080  113.2550  131.4840 O.2       5 ALP1        0.0000 
     11 O          53.5915  113.8105  134.0905 O.2       1 ALC1        0.0000 
     12 O          53.1580  112.4760  134.6880 O.2       5 ALP1        0.0000 
     13 CA         52.2525  115.5170  130.7740 C.3       4 GLC5        0.0000 
     14 CA         53.7510  115.9390  132.2810 C.3      12 GLL5        0.0000 
     15 CA         50.7540  115.0950  129.2670 C.3       8 GLP5        0.0000 
     16 N          56.1255  114.0050  132.0320 N.am      2 SEC2        0.0000 
     17 N          56.0040  115.4140  131.6870 N.am     10 SEL2        0.0000 
     18 N          56.2470  112.5960  132.3770 N.am      6 SEP2        0.0000 
     19 CA         53.8410  117.0285  127.8905 C.3       4 GLC5        0.0000 
     20 CA         55.7300  117.9380  128.3540 C.3      12 GLL5        0.0000 
     21 CA         51.9520  116.1190  127.4270 C.3       8 GLP5        0.0000 
     22 CA         56.3335  117.1370  125.5195 C.3       4 GLC5        0.0000 
     23 CA         56.8910  118.1640  127.4330 C.3      12 GLL5        0.0000 
     24 CA         55.7760  116.1100  123.6060 C.3       8 GLP5        0.0000 
     25 CA         62.3615  118.2755  132.1135 C.3       4 GLC5        0.0000 
     26 CA         60.3120  118.0810  131.4920 C.3      12 GLL5        0.0000 
     27 CA         64.4110  118.4700  132.7350 C.3       8 GLP5        0.0000 
     28 CA         61.2515  116.8170  130.2595 C.3       4 GLC5        0.0000 
     29 CA         62.1910  115.5530  129.0270 C.3       8 GLP5        0.0000 
     30 CA         59.3390  120.6750  134.5450 C.3       4 GLC5        0.0000 
     31 CA         59.7530  119.2220  133.6980 C.3      12 GLL5        0.0000 
     32 CA         58.9250  122.1280  135.3920 C.3       8 GLP5        0.0000 
     33 O          60.3985  118.7220  136.7660 O.2       1 ALC1        0.0000 
     34 O          59.1170  117.9590  136.1690 O.2       9 ALL1        0.0000 
     35 O          61.6800  119.4850  137.3630 O.2       5 ALP1        0.0000 
     36 O          56.7400  116.1170  136.4075 O.2       1 ALC1        0.0000 
     37 O          57.2320  117.0420  135.2500 O.2       9 ALL1        0.0000 
     38 O          56.2480  115.1920  137.5650 O.2       5 ALP1        0.0000 
     39 CA         55.5652  115.7365  128.6683 C.3       4 GLC5        0.0000 
     40 CA         56.1350  117.3680  129.7110 C.3      12 GLL5        0.0000 
     41 CA         55.1980  113.8200  128.3040 C.3       8 GLP5        0.0000 
     42 CA         62.1240  118.7848  133.6432 C.3       4 GLC5        0.0000 
     43 CA         60.8450  118.6630  132.7890 C.3      12 GLL5        0.0000 
     44 CA         63.9490  118.6270  134.0430 C.3       8 GLP5        0.0000 
     45 CA         59.9284  116.9375  133.6386 C.3       4 GLC5        0.0000 
     46 CA         59.6910  115.0780  134.3580 C.3       8 GLP5        0.0000 
@<TRIPOS>BOND
@<TRIPOS>SUBSTRUCTURE
     1 ALC1        6 GROUP        1 X    ALC  0     ROOT ALC X 1
     2 SEC2       16 GROUP        1 X    SEC  0     **** SEC X 2
     3 ASC3        1 GROUP        1 X    ASC  0     **** ASC X 3
     4 GLC5       13 GROUP        1 X    GLC  0     **** GLC X 6
     5 ALP1        8 GROUP        1 Y    ALP  0     ROOT ALP Y 8
     6 SEP2       18 GROUP        1 Y    SEP  0     **** SEP Y 9
     7 ASP3        3 GROUP        1 Y    ASP  0     **** ASP Y 10
     8 GLP5       15 GROUP        1 Y    GLP  0     **** GLP Y 13
     9 ALL1        7 GROUP        1 Z    ALL  0     ROOT ALL Z 15
    10 SEL2       17 GROUP        1 Z    SEL  0     **** SEL Z 16
    11 ASL3        2 GROUP        1 Z    ASL  0     **** ASL Z 17
    12 GLL5       14 GROUP        1 Z    GLL  0     **** GLL Z 20
@<TRIPOS>SET

