#    Name: 1fzf_GLY_HIS_ARG_PRO_1_ligand
#    Modification time : Tue Mar 25 02:14:07 2014

@<TRIPOS>MOLECULE
1fzf_GLY_HIS_ARG_PRO_1_ligand
   63    64     4     0     0
SMALL
NO_CHARGES


@<TRIPOS>ATOM
      1 N          54.0250  115.1450  133.4930 N.4       1 GLY1        0.0000
      2 CA         53.7510  115.9390  132.2810 C.3       1 GLY1        0.0000
      3 C          55.0150  116.1280  131.4780 C.2       1 GLY1        0.0000
      4 O          56.0040  115.4140  131.6870 O.2       1 GLY1        0.0000
      5 HA2        53.3536  116.9225  132.5532 H         1 GLY1        0.0000
      6 HA3        53.0065  115.4340  131.6565 H         1 GLY1        0.0000
      7 HNCA       54.9600  115.2791  133.8213 H         1 GLY1        0.0000
      8 H          53.4125  115.3907  134.2443 H         1 GLY1        0.0000
      9 H          53.9095  114.1652  133.3291 H         1 GLY1        0.0000
     10 N          54.9780  117.0790  130.5460 N.am      2 HIS2        0.0000
     11 CA         56.1350  117.3680  129.7110 C.3       2 HIS2        0.0000
     12 C          57.0710  118.3450  130.3900 C.2       2 HIS2        0.0000
     13 O          56.6470  119.2660  131.0950 O.2       2 HIS2        0.0000
     14 CB         55.7300  117.9380  128.3540 C.3       2 HIS2        0.0000
     15 CG         56.8910  118.1640  127.4330 C.2       2 HIS2        0.0000
     16 ND1        57.7900  117.1680  127.1090 N.pl3     2 HIS2        0.0000
     17 CD2        57.3000  119.2680  126.7670 C.2       2 HIS2        0.0000
     18 CE1        58.6980  117.6470  126.2800 C.2       2 HIS2        0.0000
     19 NE2        58.4240  118.9190  126.0570 N.2       2 HIS2        0.0000
     20 HNCA       54.1323  117.6553  130.3701 H         2 HIS2        0.0000
     21 HA         56.7004  116.4503  129.5212 H         2 HIS2        0.0000
     22 HB2        55.1963  118.8894  128.5181 H         2 HIS2        0.0000
     23 HB3        55.0122  117.2456  127.8826 H         2 HIS2        0.0000
     24 HD1        57.7330  116.2614  127.4572 H         2 HIS2        0.0000
     25 HD2        56.8951  120.1294  126.7791 H         2 HIS2        0.0000
     26 HE1        59.4440  117.1472  125.8973 H         2 HIS2        0.0000
     27 N          58.3490  118.1610  130.1070 N.am      3 ARG3        0.0000
     28 CA         59.3890  118.9840  130.6720 C.3       3 ARG3        0.0000
     29 C          60.1320  119.6040  129.4910 C.2       3 ARG3        0.0000
     30 O          60.6230  118.8960  128.6160 O.2       3 ARG3        0.0000
     31 CB         60.3120  118.0810  131.4920 C.3       3 ARG3        0.0000
     32 CG         60.8450  118.6630  132.7890 C.3       3 ARG3        0.0000
     33 CD         59.7530  119.2220  133.6980 C.3       3 ARG3        0.0000
     34 NE         58.6270  118.3200  133.9400 N.pl3     3 ARG3        0.0000
     35 CZ         58.3450  117.7500  135.1110 C.cat     3 ARG3        0.0000
     36 NH1        59.1170  117.9590  136.1690 N.pl3     3 ARG3        0.0000
     37 NH2        57.2320  117.0420  135.2500 N.pl3     3 ARG3        0.0000
     38 HNCA       58.6691  117.4045  129.4553 H         3 ARG3        0.0000
     39 HA         58.9930  119.7461  131.2821 H         3 ARG3        0.0000
     40 HB2        61.1725  117.7821  130.8509 H         3 ARG3        0.0000
     41 HB3        59.7691  117.1351  131.7180 H         3 ARG3        0.0000
     42 HG2        61.5613  119.4668  132.5576 H         3 ARG3        0.0000
     43 HG3        61.3980  117.8830  133.3354 H         3 ARG3        0.0000
     44 HD2        59.3932  120.1768  133.2493 H         3 ARG3        0.0000
     45 HD3        60.2296  119.5119  134.6630 H         3 ARG3        0.0000
     46 HE         58.0201  118.1385  133.0873 H         3 ARG3        0.0000
     47 HH11       58.8579  117.4755  137.0051 H         3 ARG3        0.0000
     48 HH12       59.8883  118.5812  136.0349 H         3 ARG3        0.0000
     49 HH21       57.0492  116.6848  136.1660 H         3 ARG3        0.0000
     50 HH22       56.6763  116.9294  134.4262 H         3 ARG3        0.0000
     51 N          60.1490  120.9400  129.4060 N.am      4 PRO4        0.0000
     52 CA         60.8340  121.6420  128.3130 C.3       4 PRO4        0.0000
     53 C          62.3580  121.5430  128.3900 C.2       4 PRO4        0.0000
     54 CB         60.3520  123.0780  128.4880 C.3       4 PRO4        0.0000
     55 CG         60.1230  123.1800  129.9760 C.3       4 PRO4        0.0000
     56 CD         59.4190  121.8880  130.2670 C.3       4 PRO4        0.0000
     57 HA         60.4791  121.2893  127.3713 H         4 PRO4        0.0000
     58 HB2        59.4401  123.2139  127.9656 H         4 PRO4        0.0000
     59 HB3        61.1148  123.7491  128.1867 H         4 PRO4        0.0000
     60 HG2        59.4896  124.0003  130.1889 H         4 PRO4        0.0000
     61 HG3        61.0510  123.2158  130.4830 H         4 PRO4        0.0000
     62 HD2        59.5375  121.6364  131.2929 H         4 PRO4        0.0000
     63 HD3        58.3999  121.9590  129.9732 H         4 PRO4        0.0000
@<TRIPOS>BOND
     1    2    1 1
     2    7    1 1
     3    8    1 1
     4    9    1 1
     5    3    2 1
     6    5    2 1
     7    6    2 1
     8    4    3 2
     9   11   10 1
    10   20   10 1
    11   12   11 1
    12   14   11 1
    13   21   11 1
    14   13   12 2
    15   15   14 1
    16   22   14 1
    17   23   14 1
    18   16   15 1
    19   17   15 2
    20   18   16 1
    21   24   16 1
    22   19   17 1
    23   25   17 1
    24   19   18 2
    25   26   18 1
    26   28   27 1
    27   38   27 1
    28   29   28 1
    29   31   28 1
    30   39   28 1
    31   30   29 2
    32   32   31 1
    33   40   31 1
    34   41   31 1
    35   33   32 1
    36   42   32 1
    37   43   32 1
    38   34   33 1
    39   44   33 1
    40   45   33 1
    41   35   34 ar
    42   46   34 1
    43   36   35 ar
    44   37   35 ar
    45   47   36 1
    46   48   36 1
    47   49   37 1
    48   50   37 1
    49   52   51 1
    50   56   51 1
    51   53   52 1
    52   54   52 1
    53   57   52 1
    54   55   54 1
    55   58   54 1
    56   59   54 1
    57   56   55 1
    58   60   55 1
    59   61   55 1
    60   62   56 1
    61   63   56 1
    62   10    3 am
    63   27   12 am
    64   51   29 am
@<TRIPOS>SUBSTRUCTURE
     1 GLY1        1 RESIDUE
     2 HIS2       10 RESIDUE
     3 ARG3       27 RESIDUE
     4 PRO4       51 RESIDUE
@<TRIPOS>SET

