#    Name: 3VR8_1_CAVITY_N1_6.mol2
#    Modification time : Tue Mar 11 11:57:08 2014

@<TRIPOS>MOLECULE
3VR8_1_CAVITY_N1_6.mol2
   61     0     5     0     0
SMALL
NO_CHARGES


@<TRIPOS>ATOM
      1 CA        -29.8430  -23.7018  -44.7506 C.3       4 GLY6        0.0000 
      2 OG        -33.7143  -21.0152  -48.7562 O.2       1 SER1        0.0000 
      3 OG        -30.4943  -23.4368  -46.7520 O.2       1 SER1        0.0000 
      4 CA        -29.4209  -24.2440  -46.0839 C.3       4 GLY6        0.0000 
      5 CA        -36.0545  -22.7570  -47.1011 C.3       4 GLY6        0.0000 
      6 CA        -32.8339  -21.0028  -43.4201 C.3       4 GLY6        0.0000 
      7 CZ        -31.7605  -21.8100  -42.7520 C.ar      3 PHE5        0.0000 
      8 CA        -33.4851  -20.7378  -45.4215 C.3       4 GLY6        0.0000 
      9 CA        -32.4118  -21.5451  -44.7534 C.3       4 GLY6        0.0000 
     10 CZ        -31.3385  -22.3523  -44.0853 C.ar      3 PHE5        0.0000 
     11 CZ        -30.2651  -23.1595  -43.4172 C.ar      3 PHE5        0.0000 
     12 CA        -34.1364  -20.4729  -47.4229 C.3       4 GLY6        0.0000 
     13 OG        -33.0631  -21.2801  -46.7548 O.2       1 SER1        0.0000 
     14 OG        -31.9897  -22.0873  -46.0867 O.2       1 SER1        0.0000 
     15 CA        -30.9164  -22.8946  -45.4186 C.3       4 GLY6        0.0000 
     16 DU        -33.7929  -22.1449  -43.2592 H         5 CUB7        0.0000 
     17 CZ        -32.7196  -22.9521  -42.5911 C.ar      3 PHE5        0.0000 
     18 CZ        -31.6463  -23.7593  -41.9230 C.ar      3 PHE5        0.0000 
     19 N         -35.5175  -21.0727  -45.9287 N.2       2 ALA2        0.0000 
     20 N         -34.4442  -21.8799  -45.2606 N.2       2 ALA2        0.0000 
     21 DU        -33.3709  -22.6871  -44.5925 H         5 CUB7        0.0000 
     22 DU        -32.2975  -23.4944  -43.9244 H         5 CUB7        0.0000 
     23 CA        -36.1688  -20.8077  -47.9301 C.3       4 GLY6        0.0000 
     24 CA        -35.0955  -21.6150  -47.2620 C.3       4 GLY6        0.0000 
     25 OG        -34.0221  -22.4222  -46.5939 O.2       1 SER1        0.0000 
     26 CA        -35.7467  -21.3500  -49.2634 C.3       4 GLY6        0.0000 
     27 OG        -34.6734  -22.1572  -48.5953 O.2       1 SER1        0.0000 
     28 OG        -30.1859  -17.8539  -47.2375 O.2       1 SER1        0.0000 
     29 CA        -29.1126  -18.6611  -46.5694 C.3       4 GLY6        0.0000 
     30 O         -30.8372  -17.5889  -49.2389 O.2       2 ALA2        0.0000 
     31 O         -29.7638  -18.3962  -48.5708 O.2       2 ALA2        0.0000 
     32 CA        -28.6905  -19.2034  -47.9027 C.3       4 GLY6        0.0000 
     33 O         -29.3417  -18.9384  -49.9041 O.2       2 ALA2        0.0000 
     34 CA        -28.2684  -19.7456  -49.2361 C.3       4 GLY6        0.0000 
     35 CA        -36.7058  -22.4921  -49.1025 C.3       4 GLY6        0.0000 
     36 CA        -31.5670  -18.4537  -45.7432 C.3       4 GLY6        0.0000 
     37 N         -30.4937  -19.2609  -45.0752 N.2       2 ALA2        0.0000 
     38 CZ        -29.4204  -20.0681  -44.4071 C.ar      3 PHE5        0.0000 
     39 CZ        -28.3470  -20.8753  -43.7390 C.ar      3 PHE5        0.0000 
     40 CA        -32.2183  -18.1887  -47.7447 C.3       4 GLY6        0.0000 
     41 O         -31.1450  -18.9960  -47.0766 O.2       2 ALA2        0.0000 
     42 CA        -30.0716  -19.8032  -46.4085 C.3       4 GLY6        0.0000 
     43 CA        -28.9983  -20.6104  -45.7404 C.3       4 GLY6        0.0000 
     44 O         -30.7229  -19.5382  -48.4099 O.2       2 ALA2        0.0000 
     45 CA        -29.6495  -20.3455  -47.7418 C.3       4 GLY6        0.0000 
     46 O         -29.2274  -20.8877  -49.0752 O.2       2 ALA2        0.0000 
     47 CA        -31.4527  -20.4030  -44.9143 C.3       4 GLY6        0.0000 
     48 CZ        -30.3794  -21.2102  -44.2462 C.ar      3 PHE5        0.0000 
     49 CZ        -29.3061  -22.0174  -43.5781 C.ar      3 PHE5        0.0000 
     50 CZ        -28.2327  -22.8246  -42.9100 C.ar      3 PHE5        0.0000 
     51 CA        -33.1773  -19.3308  -47.5838 C.3       4 GLY6        0.0000 
     52 CA        -32.1040  -20.1380  -46.9157 C.3       4 GLY6        0.0000 
     53 DU        -31.0307  -20.9453  -46.2476 H         5 CUB7        0.0000 
     54 DU        -29.9573  -21.7525  -45.5795 H         5 CUB7        0.0000 
     55 CA        -28.8840  -22.5597  -44.9115 C.3       4 GLY6        0.0000 
     56 CZ        -27.8106  -23.3669  -44.2434 C.ar      3 PHE5        0.0000 
     57 OG        -31.6819  -20.6803  -48.2490 O.2       1 SER1        0.0000 
     58 OG        -30.6086  -21.4875  -47.5809 O.2       1 SER1        0.0000 
     59 CZ        -29.5352  -22.2947  -46.9129 C.ar      3 PHE5        0.0000 
     60 CZ        -28.4619  -23.1020  -46.2448 C.ar      3 PHE5        0.0000 
     61 CA        -29.5346  -18.1188  -45.2360 C.3       4 GLY6        0.0000 
@<TRIPOS>BOND
@<TRIPOS>SUBSTRUCTURE
     1 SER1        2 GROUP   
     2 ALA2       19 GROUP   
     3 PHE5        7 GROUP   
     4 GLY6        1 GROUP   
     5 CUB7       16 GROUP   
@<TRIPOS>SET

