#    Name: 3vr8_RQX_1_INTS_M
#    Modification time : Tue Mar 25 01:18:55 2014

@<TRIPOS>MOLECULE
3vr8_RQX_1_INTS_M
   47     0     6     0     0
SMALL
NO_CHARGES


@<TRIPOS>ATOM
      1 N         -30.9305  -16.3695  -46.4075 N.am      1 SEC2        0.0000 
      2 N         -30.9600  -17.7880  -46.0950 N.am      5 SEL2        0.0000 
      3 N         -30.9010  -14.9510  -46.7200 N.am      3 SEP2        0.0000 
      4 CA        -30.2815  -20.5390  -42.8705 C.3       2 GLC5        0.0000 
      5 CA        -30.8610  -20.4190  -44.6730 C.3       6 GLL5        0.0000 
      6 CA        -29.7020  -20.6590  -41.0680 C.3       4 GLP5        0.0000 
      7 CA        -32.2775  -18.5570  -49.0425 C.3       2 GLC5        0.0000 
      8 CA        -30.2150  -18.5640  -48.1700 C.3       6 GLL5        0.0000 
      9 CA        -34.3400  -18.5500  -49.9150 C.3       4 GLP5        0.0000 
     10 CA        -27.9790  -20.1415  -47.9920 C.3       2 GLC5        0.0000 
     11 CA        -29.7440  -19.7200  -48.9970 C.3       6 GLL5        0.0000 
     12 CA        -26.2140  -20.5630  -46.9870 C.3       4 GLP5        0.0000 
     13 N         -30.6400  -19.5635  -50.4825 N.am      1 SEC2        0.0000 
     14 N         -29.3980  -19.5220  -50.3400 N.am      5 SEL2        0.0000 
     15 N         -31.8820  -19.6050  -50.6250 N.am      3 SEP2        0.0000 
     16 N         -30.4150  -19.3155  -51.5685 N.am      1 SEC2        0.0000 
     17 N         -31.4320  -19.1090  -52.7970 N.am      3 SEP2        0.0000 
     18 CA        -26.2010  -19.0770  -50.8265 C.3       2 GLC5        0.0000 
     19 CA        -28.1950  -18.8470  -50.7330 C.3       6 GLL5        0.0000 
     20 CA        -24.2070  -19.3070  -50.9200 C.3       4 GLP5        0.0000 
     21 CA        -27.5330  -20.8505  -50.8915 C.3       2 GLC5        0.0000 
     22 CA        -26.8710  -22.8540  -51.0500 C.3       4 GLP5        0.0000 
     23 CA        -28.3015  -16.8460  -51.0915 C.3       2 GLC5        0.0000 
     24 CA        -28.4080  -14.8450  -51.4500 C.3       4 GLP5        0.0000 
     25 CA        -27.5595  -17.9270  -49.1980 C.3       2 GLC5        0.0000 
     26 CA        -26.9240  -17.0070  -47.6630 C.3       4 GLP5        0.0000 
     27 N         -28.3720  -22.5320  -49.4460 N.am      1 SEC2        0.0000 
     28 N         -29.2890  -22.0430  -49.0710 N.am      5 SEL2        0.0000 
     29 N         -27.4550  -23.0210  -49.8210 N.am      3 SEP2        0.0000 
     30 CA        -30.5855  -26.4440  -45.9430 C.3       2 GLC5        0.0000 
     31 CA        -31.7220  -26.5280  -47.4120 C.3       6 GLL5        0.0000 
     32 CA        -29.4490  -26.3600  -44.4740 C.3       4 GLP5        0.0000 
     33 CA        -32.3038  -19.2185  -45.0513 C.3       2 GLC5        0.0000 
     34 CA        -30.5020  -20.1290  -46.1000 C.3       6 GLL5        0.0000 
     35 CA        -33.9260  -18.1630  -44.7160 C.3       4 GLP5        0.0000 
     36 CA        -28.4517  -18.0745  -48.1232 C.3       2 GLC5        0.0000 
     37 CA        -28.1833  -21.1088  -46.6423 C.3       2 GLC5        0.0000 
     38 CA        -30.0580  -21.2870  -46.8860 C.3       6 GLL5        0.0000 
     39 CA        -28.8492  -23.9775  -47.2660 C.3       2 GLC5        0.0000 
     40 CA        -30.0250  -22.6010  -46.1020 C.3       6 GLL5        0.0000 
     41 CA        -27.3230  -24.7840  -48.0700 C.3       4 GLP5        0.0000 
     42 CA        -31.3852  -24.3477  -48.7175 C.3       2 GLC5        0.0000 
     43 CA        -30.7260  -23.7410  -46.8220 C.3       6 GLL5        0.0000 
     44 CA        -31.3890  -24.7940  -50.6620 C.3       4 GLP5        0.0000 
     45 CA        -30.3276  -24.9883  -45.5335 C.3       2 GLC5        0.0000 
     46 CA        -31.6630  -25.6962  -49.3768 C.3       2 GLC5        0.0000 
     47 CA        -31.7360  -27.3100  -48.7060 C.3       6 GLL5        0.0000 
@<TRIPOS>BOND
@<TRIPOS>SUBSTRUCTURE
     1 SEC2        1 GROUP        1 X    SEC  0     ROOT SEC X 2
     2 GLC5        4 GROUP        1 X    GLC  0     **** GLC X 6
     3 SEP2        3 GROUP        1 Y    SEP  0     ROOT SEP Y 9
     4 GLP5        6 GROUP        1 Y    GLP  0     **** GLP Y 13
     5 SEL2        2 GROUP        1 Z    SEL  0     ROOT SEL Z 16
     6 GLL5        5 GROUP        1 Z    GLL  0     **** GLL Z 20
@<TRIPOS>SET

