#    Name: 3vr8_RQX_1_ligand
#    Modification time : Tue Mar 25 01:18:55 2014

@<TRIPOS>MOLECULE
3vr8_RQX_1_ligand
   41    41     1     0     0
SMALL
NO_CHARGES


@<TRIPOS>ATOM
      1 O2        -30.9600  -17.7880  -46.0950 O.2       1 RQX202      0.0000 
      2 C7        -30.5830  -18.7780  -46.7390 C.2       1 RQX202      0.0000 
      3 C2        -30.5020  -20.1290  -46.1000 C.2       1 RQX202      0.0000 
      4 C1        -30.8610  -20.4190  -44.6730 C.3       1 RQX202      0.0000 
      5 C6        -30.2150  -18.5640  -48.1700 C.2       1 RQX202      0.0000 
      6 N         -30.2920  -17.3260  -48.7320 N.4       1 RQX202      0.0000 
      7 C5        -29.7440  -19.7200  -48.9970 C.2       1 RQX202      0.0000 
      8 O3        -29.3980  -19.5220  -50.3400 O.3       1 RQX202      0.0000 
      9 C8        -28.1950  -18.8470  -50.7330 C.3       1 RQX202      0.0000 
     10 C4        -29.6740  -21.0870  -48.3480 C.2       1 RQX202      0.0000 
     11 O1        -29.2890  -22.0430  -49.0710 O.2       1 RQX202      0.0000 
     12 C3        -30.0580  -21.2870  -46.8860 C.2       1 RQX202      0.0000 
     13 C9        -30.0250  -22.6010  -46.1020 C.3       1 RQX202      0.0000 
     14 C10       -30.7260  -23.7410  -46.8220 C.2       1 RQX202      0.0000 
     15 C11       -32.0370  -24.0620  -46.7240 C.2       1 RQX202      0.0000 
     16 C12       -32.9920  -23.2650  -45.8460 C.3       1 RQX202      0.0000 
     17 C13       -32.5540  -25.2460  -47.5420 C.3       1 RQX202      0.0000 
     18 C14       -31.7220  -26.5280  -47.4120 C.3       1 RQX202      0.0000 
     19 C15       -31.7360  -27.3100  -48.7060 C.3       1 RQX202      0.0000 
     20 H         -30.5009  -22.4427  -45.1242 H         1 RQX202      0.0000 
     21 H         -28.9776  -22.8781  -45.9180 H         1 RQX202      0.0000 
     22 H         -30.0731  -24.2998  -47.4440 H         1 RQX202      0.0000 
     23 H         -32.5927  -24.9552  -48.6074 H         1 RQX202      0.0000 
     24 H         -33.5931  -25.4654  -47.2366 H         1 RQX202      0.0000 
     25 H         -32.1365  -27.1372  -46.6093 H         1 RQX202      0.0000 
     26 H         -30.6977  -26.2589  -47.1556 H         1 RQX202      0.0000 
     27 H         -30.7356  -21.3851  -44.4475 H         1 RQX202      0.0000 
     28 H         -30.2987  -19.8936  -44.0344 H         1 RQX202      0.0000 
     29 H         -31.8154  -20.1937  -44.4770 H         1 RQX202      0.0000 
     30 H         -29.7018  -16.6683  -48.2640 H         1 RQX202      0.0000 
     31 H         -30.0151  -17.3364  -49.6928 H         1 RQX202      0.0000 
     32 H         -31.2222  -16.9604  -48.6990 H         1 RQX202      0.0000 
     33 H         -27.3792  -19.3105  -50.3872 H         1 RQX202      0.0000 
     34 H         -28.1047  -18.7979  -51.7277 H         1 RQX202      0.0000 
     35 H         -28.1667  -17.9083  -50.3894 H         1 RQX202      0.0000 
     36 H         -32.7113  -23.2764  -44.8863 H         1 RQX202      0.0000 
     37 H         -33.0410  -22.3062  -46.1257 H         1 RQX202      0.0000 
     38 H         -33.9226  -23.6292  -45.8835 H         1 RQX202      0.0000 
     39 H         -31.3609  -26.7783  -49.4653 H         1 RQX202      0.0000 
     40 H         -31.1946  -28.1481  -48.6393 H         1 RQX202      0.0000 
     41 H         -32.6629  -27.5798  -48.9669 H         1 RQX202      0.0000 
@<TRIPOS>BOND
     1    2    1 2    
     2    3    2 1    
     3    5    2 1    
     4    4    3 1    
     5   12    3 2    
     6   27    4 1    
     7   28    4 1    
     8   29    4 1    
     9    6    5 1    
    10    7    5 2    
    11   30    6 1    
    12   31    6 1    
    13   32    6 1    
    14    8    7 1    
    15   10    7 1    
    16    9    8 1    
    17   33    9 1    
    18   34    9 1    
    19   35    9 1    
    20   11   10 2    
    21   12   10 1    
    22   13   12 1    
    23   14   13 1    
    24   20   13 1    
    25   21   13 1    
    26   15   14 2    
    27   22   14 1    
    28   16   15 1    
    29   17   15 1    
    30   36   16 1    
    31   37   16 1    
    32   38   16 1    
    33   18   17 1    
    34   23   17 1    
    35   24   17 1    
    36   19   18 1    
    37   25   18 1    
    38   26   18 1    
    39   39   19 1    
    40   40   19 1    
    41   41   19 1    
@<TRIPOS>SUBSTRUCTURE
     1 RQX202      1 GROUP   
@<TRIPOS>SET

