#    Name: 2oun_AMP_1_INTS_M
#    Modification time : Mon Mar 24 17:50:49 2014

@<TRIPOS>MOLECULE
2oun_AMP_1_INTS_M
   49     0    12     0     0
SMALL
NO_CHARGES


@<TRIPOS>ATOM
      1 Zn          9.3070    7.0030   47.4900 Zn        3 ZIC7        0.0000 
      2 Zn          8.9520    7.5490   46.4990 Zn       11 ZIL7        0.0000 
      3 Zn          9.6620    6.4570   48.4810 Zn        7 ZIP7        0.0000 
      4 N          10.1415    8.2715   45.6215 N.am      2 SEC2        0.0000 
      5 N           8.9520    7.5490   46.4990 N.am     10 SEL2        0.0000 
      6 N          11.3310    8.9940   44.7440 N.am      6 SEP2        0.0000 
      7 Zn         10.3970    5.1640   45.0555 Zn        3 ZIC7        0.0000 
      8 Zn         10.1310    6.2040   44.7210 Zn       11 ZIL7        0.0000 
      9 Zn         10.6630    4.1240   45.3900 Zn        7 ZIP7        0.0000 
     10 Zn          9.3015    5.7465   47.5460 Zn        3 ZIC7        0.0000 
     11 Zn          8.9410    5.0360   46.6110 Zn       11 ZIL7        0.0000 
     12 Zn          9.8020    4.5800   46.0005 Zn        3 ZIC7        0.0000 
     13 CA          4.8425    7.9115   45.7595 C.3       4 GLC5        0.0000 
     14 CA          6.6940    7.1850   45.0070 C.3      12 GLL5        0.0000 
     15 CA          2.9910    8.6380   46.5120 C.3       8 GLP5        0.0000 
     16 CA          8.7280   10.3770   45.4540 C.3       4 GLC5        0.0000 
     17 CA          7.7980    9.1460   43.8210 C.3      12 GLL5        0.0000 
     18 CA          9.6580   11.6080   47.0870 C.3       8 GLP5        0.0000 
     19 CA          9.8595    9.5530   43.9435 C.3       4 GLC5        0.0000 
     20 CA         11.9210    9.9600   44.0660 C.3       8 GLP5        0.0000 
     21 N          10.1830    8.8075   44.0445 N.am      2 SEC2        0.0000 
     22 N           9.0350    8.6210   43.3450 N.am     10 SEL2        0.0000 
     23 CA          7.4475   11.7805   41.5915 C.3       4 GLC5        0.0000 
     24 CA          7.2420   10.1770   42.8500 C.3      12 GLL5        0.0000 
     25 CA          7.6530   13.3840   40.3330 C.3       8 GLP5        0.0000 
     26 CA          4.5095    8.5670   42.7325 C.3       4 GLC5        0.0000 
     27 CA          5.7350   10.0690   43.1070 C.3      12 GLL5        0.0000 
     28 CA          3.2840    7.0650   42.3580 C.3       8 GLP5        0.0000 
     29 CA          3.6075   10.3880   43.3440 C.3       4 GLC5        0.0000 
     30 CA          1.4800   10.7070   43.5810 C.3       8 GLP5        0.0000 
     31 O           2.3795   16.3425   44.6545 O.2       1 ALC1        0.0000 
     32 O           3.1140   15.0990   45.1270 O.2       9 ALL1        0.0000 
     33 O           1.6450   17.5860   44.1820 O.2       5 ALP1        0.0000 
     34 N           2.9975   16.0115   42.5110 N.am      2 SEC2        0.0000 
     35 N           3.4320   14.6280   42.8870 N.am     10 SEL2        0.0000 
     36 N           2.5630   17.3950   42.1350 N.am      6 SEP2        0.0000 
     37 CA          4.2880   14.1355   39.8660 C.3       4 GLC5        0.0000 
     38 CA          3.8920   13.7950   41.9380 C.3      12 GLL5        0.0000 
     39 CA          4.6840   14.4760   37.7940 C.3       8 GLP5        0.0000 
     40 CA          1.6960   13.8110   41.6645 C.3       4 GLC5        0.0000 
     41 CA         -0.5000   13.8270   41.3910 C.3       8 GLP5        0.0000 
     42 CA          6.2965   13.7105   43.4225 C.3       4 GLC5        0.0000 
     43 CA          4.6230   12.2980   43.3770 C.3      12 GLL5        0.0000 
     44 CA          7.9700   15.1230   43.4680 C.3       8 GLP5        0.0000 
     45 CA          4.9925    7.3502   43.3828 C.3       4 GLC5        0.0000 
     46 CA          6.7080    8.0860   43.8080 C.3      12 GLL5        0.0000 
     47 CA          5.3320   14.3137   45.3328 C.3       4 GLC5        0.0000 
     48 CA          4.2090   13.0480   44.4640 C.3      12 GLL5        0.0000 
     49 CA          6.7710   14.9660   46.3410 C.3       8 GLP5        0.0000 
@<TRIPOS>BOND
@<TRIPOS>SUBSTRUCTURE
     1 ALC1       31 GROUP        1 X    ALC  0     ROOT ALC X 1
     2 SEC2        4 GROUP        1 X    SEC  0     **** SEC X 2
     3 ZIC7        1 GROUP        1 X    ZIC  0     **** ZIC X 5
     4 GLC5       13 GROUP        1 X    GLC  0     **** GLC X 6
     5 ALP1       33 GROUP        1 Y    ALP  0     ROOT ALP Y 8
     6 SEP2        6 GROUP        1 Y    SEP  0     **** SEP Y 9
     7 ZIP7        3 GROUP        1 Y    ZIP  0     **** ZIP Y 12
     8 GLP5       15 GROUP        1 Y    GLP  0     **** GLP Y 13
     9 ALL1       32 GROUP        1 Z    ALL  0     ROOT ALL Z 15
    10 SEL2        5 GROUP        1 Z    SEL  0     **** SEL Z 16
    11 ZIL7        2 GROUP        1 Z    ZIL  0     **** ZIL Z 19
    12 GLL5       14 GROUP        1 Z    GLL  0     **** GLL Z 20
@<TRIPOS>SET

