#    Name: 2oun_AMP_1_ligand
#    Modification time : Mon Mar 24 17:50:49 2014

@<TRIPOS>MOLECULE
2oun_AMP_1_ligand
   35    37     1     0     0
SMALL
NO_CHARGES


@<TRIPOS>ATOM
      1 P           9.0410    6.2590   45.7450 P.3       1 AMP401      0.0000 
      2 O1P         8.9520    7.5490   46.4990 O.co2     1 AMP401      0.0000 
      3 O2P        10.1310    6.2040   44.7210 O.co2     1 AMP401      0.0000 
      4 O3P         8.9410    5.0360   46.6110 O.co2     1 AMP401      0.0000 
      5 O5'         7.7070    6.2050   44.8720 O.3       1 AMP401      0.0000 
      6 C5'         6.6940    7.1850   45.0070 C.3       1 AMP401      0.0000 
      7 C4'         6.7080    8.0860   43.8080 C.3       1 AMP401      0.0000 
      8 O4'         5.4940    8.8630   43.7950 O.3       1 AMP401      0.0000 
      9 C3'         7.7980    9.1460   43.8210 C.3       1 AMP401      0.0000 
     10 O3'         9.0350    8.6210   43.3450 O.3       1 AMP401      0.0000 
     11 C2'         7.2420   10.1770   42.8500 C.3       1 AMP401      0.0000 
     12 O2'         7.5370    9.8350   41.5100 O.3       1 AMP401      0.0000 
     13 C1'         5.7350   10.0690   43.1070 C.3       1 AMP401      0.0000 
     14 N9          5.1820   11.1620   43.8990 N.pl3     1 AMP401      0.0000 
     15 C8          5.0900   11.2870   45.2640 C.2       1 AMP401      0.0000 
     16 N7          4.5110   12.3980   45.6530 N.2       1 AMP401      0.0000 
     17 C5          4.2090   13.0480   44.4640 C.ar      1 AMP401      0.0000 
     18 C6          3.5770   14.2750   44.1850 C.ar      1 AMP401      0.0000 
     19 N6          3.1140   15.0990   45.1270 N.pl3     1 AMP401      0.0000 
     20 N1          3.4320   14.6280   42.8870 N.ar      1 AMP401      0.0000 
     21 C2          3.8920   13.7950   41.9380 C.ar      1 AMP401      0.0000 
     22 N3          4.4950   12.6160   42.0770 N.ar      1 AMP401      0.0000 
     23 C4          4.6230   12.2980   43.3770 C.ar      1 AMP401      0.0000 
     24 H           6.8439    7.8027   45.9038 H         1 AMP401      0.0000 
     25 H           5.6965    6.7296   45.0840 H         1 AMP401      0.0000 
     26 H           6.7857    7.5234   42.9057 H         1 AMP401      0.0000 
     27 H           7.8407    9.5757   44.7782 H         1 AMP401      0.0000 
     28 H           7.5589   11.1310   43.1495 H         1 AMP401      0.0000 
     29 H           5.2417   10.0369   42.1321 H         1 AMP401      0.0000 
     30 H           5.4423   10.5773   45.8780 H         1 AMP401      0.0000 
     31 H           2.6659   15.9317   44.8017 H         1 AMP401      0.0000 
     32 H           3.2568   14.8097   46.0735 H         1 AMP401      0.0000 
     33 H           3.7471   14.1418   40.8954 H         1 AMP401      0.0000 
     34 H           8.9955    7.6424   43.5470 H         1 AMP401      0.0000 
     35 H           8.1699    9.0633   41.5733 H         1 AMP401      0.0000 
@<TRIPOS>BOND
     1    2    1 ar   
     2    3    1 ar   
     3    4    1 ar   
     4    5    1 1    
     5    6    5 1    
     6    7    6 1    
     7   24    6 1    
     8   25    6 1    
     9    8    7 1    
    10    9    7 1    
    11   26    7 1    
    12   13    8 1    
    13   10    9 1    
    14   11    9 1    
    15   27    9 1    
    16   34   10 1    
    17   12   11 1    
    18   13   11 1    
    19   28   11 1    
    20   35   12 1    
    21   14   13 1    
    22   29   13 1    
    23   15   14 1    
    24   23   14 1    
    25   16   15 2    
    26   30   15 1    
    27   17   16 1    
    28   18   17 ar   
    29   23   17 ar   
    30   19   18 1    
    31   20   18 ar   
    32   31   19 1    
    33   32   19 1    
    34   21   20 ar   
    35   22   21 ar   
    36   33   21 1    
    37   23   22 ar   
@<TRIPOS>SUBSTRUCTURE
     1 AMP401      1 GROUP   
@<TRIPOS>SET

