#    Name: 4ivg_ANP_1_INTS_M
#    Modification time : Tue Mar 25 04:43:46 2014

@<TRIPOS>MOLECULE
4ivg_ANP_1_INTS_M
   62     0    15     0     0
SMALL
NO_CHARGES


@<TRIPOS>ATOM
      1 N          -9.3945    1.2630  -28.9745 N.am      2 SEC2        0.0000 
      2 N         -10.2760    0.9690  -30.0900 N.am     12 SEL2        0.0000 
      3 N          -8.5130    1.5570  -27.8590 N.am      7 SEP2        0.0000 
      4 N          -9.8260    2.2785  -29.8225 N.am      2 SEC2        0.0000 
      5 N          -9.3760    3.5880  -29.5550 N.am      7 SEP2        0.0000 
      6 Zn        -13.2795    2.1335  -30.5650 Zn        4 ZIC7        0.0000 
      7 Zn        -12.5660    1.5300  -30.9970 Zn       14 ZIL7        0.0000 
      8 Zn        -13.9930    2.7370  -30.1330 Zn        9 ZIP7        0.0000 
      9 NZ        -11.9250   -1.2205  -32.6830 N.4       3 LYC4        0.0000 
     10 NZ        -11.4820   -0.7560  -31.4880 N.4      13 LYL4        0.0000 
     11 NZ        -11.9870   -0.9610  -34.9240 N.4       8 LYP4        0.0000 
     12 N         -12.2325   -1.8400  -31.1140 N.am      2 SEC2        0.0000 
     13 N         -11.4820   -0.7560  -31.4880 N.am     12 SEL2        0.0000 
     14 N         -12.9830   -2.9240  -30.7400 N.am      7 SEP2        0.0000 
     15 N         -10.8865   -1.8060  -30.6445 N.am      2 SEC2        0.0000 
     16 N         -10.2910   -2.8560  -29.8010 N.am      7 SEP2        0.0000 
     17 N         -11.3025   -0.3600  -33.1255 N.am      2 SEC2        0.0000 
     18 N         -11.1230    0.0360  -34.7630 N.am      7 SEP2        0.0000 
     19 N         -11.9250   -1.2205  -32.6830 N.am      2 SEC2        0.0000 
     20 N         -12.3680   -1.6850  -33.8780 N.am      7 SEP2        0.0000 
     21 N         -13.7445   -1.5330  -26.5035 N.am      2 SEC2        0.0000 
     22 N         -13.6740   -0.3380  -26.9360 N.am     12 SEL2        0.0000 
     23 N         -13.8150   -2.7280  -26.0710 N.am      7 SEP2        0.0000 
     24 Zn        -14.2330    1.9725  -29.4090 Zn        4 ZIC7        0.0000 
     25 Zn        -14.4730    1.2080  -28.6850 Zn       14 ZIL7        0.0000 
     26 Zn        -13.4190    3.2120  -29.3770 Zn        4 ZIC7        0.0000 
     27 Zn        -12.8450    3.6870  -28.6210 Zn       14 ZIL7        0.0000 
     28 N         -13.7725    4.7955  -28.7715 N.am      2 SEC2        0.0000 
     29 N         -12.8450    3.6870  -28.6210 N.am     12 SEL2        0.0000 
     30 N         -14.7000    5.9040  -28.9220 N.am      7 SEP2        0.0000 
     31 N         -10.8045    4.8665  -27.7275 N.am      2 SEC2        0.0000 
     32 N         -10.9710    3.7420  -26.8040 N.am     12 SEL2        0.0000 
     33 N         -10.6380    5.9910  -28.6510 N.am      7 SEP2        0.0000 
     34 CA        -14.3745    2.4155  -22.2530 C.3       5 GLC5        0.0000 
     35 CA        -14.4160    2.4900  -24.1460 C.3      15 GLL5        0.0000 
     36 CA        -14.3330    2.3410  -20.3600 C.3      10 GLP5        0.0000 
     37 N         -15.2220   -0.7145  -24.1760 N.am      2 SEC2        0.0000 
     38 N         -15.3600    0.4240  -25.0230 N.am     12 SEL2        0.0000 
     39 N         -15.0840   -1.8530  -23.3290 N.am      7 SEP2        0.0000 
     40 CA        -16.9920    4.8810  -22.3495 C.3       5 GLC5        0.0000 
     41 CA        -16.4150    3.6090  -23.6580 C.3      15 GLL5        0.0000 
     42 CA        -17.5690    6.1530  -21.0410 C.3      10 GLP5        0.0000 
     43 CA        -21.1300    5.6750  -26.3255 C.3       5 GLC5        0.0000 
     44 CA        -19.4990    6.7160  -25.7960 C.3      15 GLL5        0.0000 
     45 CA        -22.7610    4.6340  -26.8550 C.3      10 GLP5        0.0000 
     46 CA        -20.3690    8.4060  -24.9965 C.3       5 GLC5        0.0000 
     47 CA        -21.2390   10.0960  -24.1970 C.3      10 GLP5        0.0000 
     48 O         -20.8980    8.2955  -27.1795 O.2       1 ALC1        0.0000 
     49 O         -19.6750    7.6940  -26.6950 O.2      11 ALL1        0.0000 
     50 O         -22.1210    8.8970  -27.6640 O.2       6 ALP1        0.0000 
     51 CA        -21.5860    4.9670  -25.5325 C.3       5 GLC5        0.0000 
     52 CA        -20.4110    5.3000  -24.2100 C.3      15 GLL5        0.0000 
     53 CA        -21.9615    6.0355  -22.8460 C.3       5 GLC5        0.0000 
     54 CA        -23.5120    6.7710  -21.4820 C.3      10 GLP5        0.0000 
     55 CA        -19.7925    5.4580  -22.3165 C.3       5 GLC5        0.0000 
     56 CA        -19.1740    5.6160  -20.4230 C.3      10 GLP5        0.0000 
     57 CA        -15.4600    2.6218  -22.1290 C.3       5 GLC5        0.0000 
     58 CA        -17.9750    6.0682  -27.5415 C.3       5 GLC5        0.0000 
     59 CA        -18.2730    6.1010  -25.5420 C.3      15 GLL5        0.0000 
     60 CA        -17.0640    5.7280  -29.4140 C.3      10 GLP5        0.0000 
     61 CA        -18.2858    6.6989  -23.5405 C.3       5 GLC5        0.0000 
     62 CA        -18.0090    7.6410  -21.9520 C.3      10 GLP5        0.0000 
@<TRIPOS>BOND
@<TRIPOS>SUBSTRUCTURE
     1 ALC1       48 GROUP        1 X    ALC  0     ROOT ALC X 1
     2 SEC2        1 GROUP        1 X    SEC  0     **** SEC X 2
     3 LYC4        9 GROUP        1 X    LYC  0     **** LYC X 4
     4 ZIC7        6 GROUP        1 X    ZIC  0     **** ZIC X 5
     5 GLC5       34 GROUP        1 X    GLC  0     **** GLC X 6
     6 ALP1       50 GROUP        1 Y    ALP  0     ROOT ALP Y 8
     7 SEP2        3 GROUP        1 Y    SEP  0     **** SEP Y 9
     8 LYP4       11 GROUP        1 Y    LYP  0     **** LYP Y 11
     9 ZIP7        8 GROUP        1 Y    ZIP  0     **** ZIP Y 12
    10 GLP5       36 GROUP        1 Y    GLP  0     **** GLP Y 13
    11 ALL1       49 GROUP        1 Z    ALL  0     ROOT ALL Z 15
    12 SEL2        2 GROUP        1 Z    SEL  0     **** SEL Z 16
    13 LYL4       10 GROUP        1 Z    LYL  0     **** LYL Z 18
    14 ZIL7        7 GROUP        1 Z    ZIL  0     **** ZIL Z 19
    15 GLL5       35 GROUP        1 Z    GLL  0     **** GLL Z 20
@<TRIPOS>SET

