#    Name: 4ivg_ANP_1_ligand
#    Modification time : Tue Mar 25 04:43:46 2014

@<TRIPOS>MOLECULE
4ivg_ANP_1_ligand
   43    45     1     0     0
SMALL
NO_CHARGES


@<TRIPOS>ATOM
      1 PG        -11.6220    0.4090  -30.4300 P.3       1 ANP801      0.0000 
      2 O1G       -10.2760    0.9690  -30.0900 O.co2     1 ANP801      0.0000 
      3 O2G       -12.5660    1.5300  -30.9970 O.co2     1 ANP801      0.0000 
      4 O3G       -11.4820   -0.7560  -31.4880 O.co2     1 ANP801      0.0000 
      5 PB        -13.1920    0.6000  -28.0120 P.3       1 ANP801      0.0000 
      6 O1B       -13.6740   -0.3380  -26.9360 O.co2     1 ANP801      0.0000 
      7 O2B       -14.4730    1.2080  -28.6850 O.co2     1 ANP801      0.0000 
      8 N3B       -12.3200   -0.3800  -29.0780 N.4       1 ANP801      0.0000 
      9 PA        -12.3200    3.2100  -27.3090 P.3       1 ANP801      0.0000 
     10 O1A       -12.8450    3.6870  -28.6210 O.co2     1 ANP801      0.0000 
     11 O2A       -10.9710    3.7420  -26.8040 O.co2     1 ANP801      0.0000 
     12 O3A       -12.1560    1.5920  -27.3880 O.3       1 ANP801      0.0000 
     13 O5'       -13.4310    3.3160  -26.1720 O.3       1 ANP801      0.0000 
     14 C5'       -13.1230    2.7860  -24.8630 C.3       1 ANP801      0.0000 
     15 C4'       -14.4160    2.4900  -24.1460 C.3       1 ANP801      0.0000 
     16 O4'       -14.9990    3.7190  -23.6480 O.3       1 ANP801      0.0000 
     17 C3'       -15.5250    1.8430  -24.9630 C.3       1 ANP801      0.0000 
     18 O3'       -15.3600    0.4240  -25.0230 O.3       1 ANP801      0.0000 
     19 C2'       -16.7590    2.1960  -24.1380 C.3       1 ANP801      0.0000 
     20 O2'       -16.8850    1.3010  -23.0340 O.3       1 ANP801      0.0000 
     21 C1'       -16.4150    3.6090  -23.6580 C.3       1 ANP801      0.0000 
     22 N9        -16.9420    4.6520  -24.5040 N.pl3     1 ANP801      0.0000 
     23 C8        -16.2530    5.4280  -25.4240 C.2       1 ANP801      0.0000 
     24 N7        -16.9840    6.2990  -26.0540 N.2       1 ANP801      0.0000 
     25 C5        -18.2730    6.1010  -25.5420 C.ar      1 ANP801      0.0000 
     26 C6        -19.4990    6.7160  -25.7960 C.ar      1 ANP801      0.0000 
     27 N6        -19.6750    7.6940  -26.6950 N.pl3     1 ANP801      0.0000 
     28 N1        -20.5760    6.2830  -25.1060 N.ar      1 ANP801      0.0000 
     29 C2        -20.4110    5.3000  -24.2100 C.ar      1 ANP801      0.0000 
     30 N3        -19.2970    4.6540  -23.8660 N.ar      1 ANP801      0.0000 
     31 C4        -18.2390    5.1050  -24.5890 C.ar      1 ANP801      0.0000 
     32 H         -12.5527    3.5043  -24.2713 H         1 ANP801      0.0000 
     33 H         -12.5463    1.8623  -24.9376 H         1 ANP801      0.0000 
     34 H         -14.2163    1.8403  -23.2883 H         1 ANP801      0.0000 
     35 H         -15.5916    2.3206  -25.8893 H         1 ANP801      0.0000 
     36 H         -17.5865    2.2446  -24.7697 H         1 ANP801      0.0000 
     37 H         -16.7942    3.7107  -22.6459 H         1 ANP801      0.0000 
     38 H         -15.2624    5.2930  -25.5611 H         1 ANP801      0.0000 
     39 H         -18.8568    7.9923  -27.1866 H         1 ANP801      0.0000 
     40 H         -20.6087    8.0380  -26.7938 H         1 ANP801      0.0000 
     41 H         -21.3326    4.9811  -23.6819 H         1 ANP801      0.0000 
     42 H         -14.7120    0.2702  -25.7690 H         1 ANP801      0.0000 
     43 H         -16.0692    0.7241  -23.0743 H         1 ANP801      0.0000 
@<TRIPOS>BOND
     1    2    1 ar   
     2    3    1 ar   
     3    4    1 ar   
     4    8    1 1    
     5    6    5 ar   
     6    7    5 ar   
     7    8    5 1    
     8   12    5 1    
     9   10    9 ar   
    10   11    9 ar   
    11   12    9 1    
    12   13    9 1    
    13   14   13 1    
    14   15   14 1    
    15   32   14 1    
    16   33   14 1    
    17   16   15 1    
    18   17   15 1    
    19   34   15 1    
    20   21   16 1    
    21   18   17 1    
    22   19   17 1    
    23   35   17 1    
    24   42   18 1    
    25   20   19 1    
    26   21   19 1    
    27   36   19 1    
    28   43   20 1    
    29   22   21 1    
    30   37   21 1    
    31   23   22 1    
    32   31   22 1    
    33   24   23 2    
    34   38   23 1    
    35   25   24 1    
    36   26   25 ar   
    37   31   25 ar   
    38   27   26 1    
    39   28   26 ar   
    40   39   27 1    
    41   40   27 1    
    42   29   28 ar   
    43   30   29 ar   
    44   41   29 1    
    45   31   30 ar   
@<TRIPOS>SUBSTRUCTURE
     1 ANP801      1 GROUP   
@<TRIPOS>SET

