#    Name: 3ZHV_3_CAVITY_N1_6.mol2
#    Modification time : Tue Mar 11 14:34:42 2014

@<TRIPOS>MOLECULE
3ZHV_3_CAVITY_N1_6.mol2
   94     0     6     0     0
SMALL
NO_CHARGES


@<TRIPOS>ATOM
      1 CA        -12.3264   21.2740   37.8736 C.3       5 GLY6        0.0000 
      2 N         -13.2629   21.0627   39.0261 N.2       2 ALA2        0.0000 
      3 N          -6.3417    6.9768   40.1150 N.2       2 ALA2        0.0000 
      4 CA         -7.4853    6.8200   39.1571 C.3       5 GLY6        0.0000 
      5 O          -6.8525    9.9303   40.2415 O.2       2 ALA2        0.0000 
      6 CA         -7.7890    9.7190   41.3940 C.3       5 GLY6        0.0000 
      7 CZ         -7.9961    9.7735   39.2836 C.ar      4 PHE5        0.0000 
      8 CZ         -8.9326    9.5622   40.4361 C.ar      4 PHE5        0.0000 
      9 CA         -7.1079   11.4070   40.3048 C.3       5 GLY6        0.0000 
     10 CA         -8.0444   11.1957   41.4573 C.3       5 GLY6        0.0000 
     11 CA         -8.9809   10.9844   42.6098 C.3       5 GLY6        0.0000 
     12 CZ         -8.2515   11.2503   39.3468 C.ar      4 PHE5        0.0000 
     13 CZ         -9.1880   11.0390   40.4993 C.ar      4 PHE5        0.0000 
     14 N         -10.1245   10.8276   41.6519 N.2       2 ALA2        0.0000 
     15 CA         -8.2998   12.6724   41.5205 C.3       5 GLY6        0.0000 
     16 CZ         -8.5069   12.7270   39.4101 C.ar      4 PHE5        0.0000 
     17 CZ         -9.4434   12.5157   40.5626 C.ar      4 PHE5        0.0000 
     18 N         -10.3799   12.3044   41.7151 N.2       2 ALA2        0.0000 
     19 CZ        -12.2413   15.1557   38.7731 C.ar      4 PHE5        0.0000 
     20 O          -6.5971    8.4535   40.1783 O.2       2 ALA2        0.0000 
     21 NZ         -7.5336    8.2422   41.3308 N.2       3 LYS4        0.0000 
     22 CZ         -7.7407    8.2968   39.2203 C.ar      4 PHE5        0.0000 
     23 NZ         -8.6772    8.0855   40.3728 N.2       3 LYS4        0.0000 
     24 N          -8.1295   17.3140   40.5578 N.2       2 ALA2        0.0000 
     25 N          -8.3366   17.3686   38.4473 N.2       2 ALA2        0.0000 
     26 N          -9.2731   17.1573   39.5998 N.2       2 ALA2        0.0000 
     27 N         -10.2096   16.9459   40.7523 N.2       2 ALA2        0.0000 
     28 N          -6.6706   17.8458   34.0318 N.2       2 ALA2        0.0000 
     29 O          -7.6071   17.6345   35.1843 O.2       2 ALA2        0.0000 
     30 N          -8.5436   17.4232   36.3368 N.2       2 ALA2        0.0000 
     31 N          -9.4801   17.2118   37.4893 N.2       2 ALA2        0.0000 
     32 N         -10.4166   17.0005   38.6418 N.2       2 ALA2        0.0000 
     33 N         -11.3531   16.7892   39.7944 N.2       2 ALA2        0.0000 
     34 CZ        -12.2896   16.5779   40.9469 C.ar      4 PHE5        0.0000 
     35 O          -8.7507   17.4777   34.2263 O.2       2 ALA2        0.0000 
     36 N         -11.5602   16.8438   37.6839 N.2       2 ALA2        0.0000 
     37 CZ        -12.4967   16.6324   38.8364 C.ar      4 PHE5        0.0000 
     38 CZ        -13.4332   16.4211   39.9889 C.ar      4 PHE5        0.0000 
     39 O          -9.8942   17.3210   33.2684 O.2       2 ALA2        0.0000 
     40 N          -8.5920   18.8453   38.5105 N.2       2 ALA2        0.0000 
     41 N          -9.5285   18.6340   39.6631 N.2       2 ALA2        0.0000 
     42 O          -7.8625   19.1112   35.2475 O.2       2 ALA2        0.0000 
     43 O          -8.7990   18.8999   36.4000 O.2       2 ALA2        0.0000 
     44 CA         -9.7355   18.6886   37.5526 C.3       5 GLY6        0.0000 
     45 N         -10.6720   18.4773   38.7051 N.2       2 ALA2        0.0000 
     46 N         -11.6085   18.2659   39.8576 N.2       2 ALA2        0.0000 
     47 O          -9.0061   18.9545   34.2896 O.2       2 ALA2        0.0000 
     48 O          -9.9426   18.7432   35.4421 O.2       2 ALA2        0.0000 
     49 O         -10.8791   18.5318   36.5946 O.2       2 ALA2        0.0000 
     50 N         -11.8156   18.3205   37.7471 N.2       2 ALA2        0.0000 
     51 CZ        -12.7521   18.1092   38.8996 C.ar      4 PHE5        0.0000 
     52 CZ        -13.6886   17.8979   40.0522 C.ar      4 PHE5        0.0000 
     53 O         -11.0861   18.5864   34.4841 O.2       2 ALA2        0.0000 
     54 CA        -12.0226   18.3751   35.6366 C.3       5 GLY6        0.0000 
     55 CZ        -12.9591   18.1638   36.7892 C.ar      4 PHE5        0.0000 
     56 CZ        -13.8956   17.9525   37.9417 C.ar      4 PHE5        0.0000 
     57 CZ        -14.8322   17.7411   39.0942 C.ar      4 PHE5        0.0000 
     58 CZ        -14.1027   18.0070   35.8312 C.ar      4 PHE5        0.0000 
     59 O          -6.9376   16.0486   39.3420 O.2       2 ALA2        0.0000 
     60 CA         -7.8741   15.8373   40.4945 C.3       5 GLY6        0.0000 
     61 N          -8.8106   15.6259   41.6470 N.2       2 ALA2        0.0000 
     62 N          -9.7471   15.4146   42.7996 N.2       2 ALA2        0.0000 
     63 O          -5.2717   16.5258   34.9265 O.2       2 ALA2        0.0000 
     64 O          -7.1447   16.1032   37.2315 O.2       2 ALA2        0.0000 
     65 O          -8.0812   15.8918   38.3840 O.2       2 ALA2        0.0000 
     66 DU         -9.0177   15.6805   39.5366 H         6 CUB7        0.0000 
     67 N          -9.9542   15.4692   40.6891 N.2       2 ALA2        0.0000 
     68 OG         -7.3517   16.1577   35.1210 O.2       1 SER1        0.0000 
     69 N          -8.2882   15.9464   36.2736 N.2       2 ALA2        0.0000 
     70 N          -9.2247   15.7351   37.4261 N.2       2 ALA2        0.0000 
     71 N         -10.1612   15.5238   38.5786 N.2       2 ALA2        0.0000 
     72 N         -11.0977   15.3124   39.7311 N.2       2 ALA2        0.0000 
     73 CA        -10.9274   19.9540   38.7683 C.3       5 GLY6        0.0000 
     74 CA        -11.8639   19.7427   39.9209 C.3       5 GLY6        0.0000 
     75 CA        -12.0710   19.7973   37.8104 C.3       5 GLY6        0.0000 
     76 N         -13.0075   19.5859   38.9629 N.2       2 ALA2        0.0000 
     77 N         -13.9440   19.3746   40.1154 N.2       2 ALA2        0.0000 
     78 O         -12.2780   19.8518   35.6999 O.2       2 ALA2        0.0000 
     79 O         -13.2145   19.6405   36.8524 O.2       2 ALA2        0.0000 
     80 CZ        -14.1510   19.4292   38.0049 C.ar      4 PHE5        0.0000 
     81 CZ        -15.0875   19.2179   39.1575 C.ar      4 PHE5        0.0000 
     82 N         -16.0240   19.0065   40.3100 N.2       2 ALA2        0.0000 
     83 O         -14.3581   19.4838   35.8944 O.2       2 ALA2        0.0000 
     84 CZ        -15.2946   19.2725   37.0470 C.ar      4 PHE5        0.0000 
     85 CA         -6.6822   14.5718   39.2788 C.3       5 GLY6        0.0000 
     86 CA         -7.6187   14.3605   40.4313 C.3       5 GLY6        0.0000 
     87 CA         -8.5552   14.1492   41.5838 C.3       5 GLY6        0.0000 
     88 N          -9.4917   13.9379   42.7363 N.2       2 ALA2        0.0000 
     89 N          -7.8258   14.4151   38.3208 N.2       2 ALA2        0.0000 
     90 DU         -8.7623   14.2038   39.4733 H         6 CUB7        0.0000 
     91 N          -9.6988   13.9924   40.6258 N.2       2 ALA2        0.0000 
     92 N          -8.9693   14.2584   37.3628 N.2       2 ALA2        0.0000 
     93 CZ         -9.9058   14.0470   38.5153 C.ar      4 PHE5        0.0000 
     94 CZ        -10.8423   13.8357   39.6679 C.ar      4 PHE5        0.0000 
@<TRIPOS>BOND
@<TRIPOS>SUBSTRUCTURE
     1 SER1       68 GROUP   
     2 ALA2        2 GROUP   
     3 LYS4       21 GROUP   
     4 PHE5        7 GROUP   
     5 GLY6        1 GROUP   
     6 CUB7       66 GROUP   
@<TRIPOS>SET

