#    Name: 3ZHV_3_CAVITY_N1_ALL.mol2
#    Modification time : Tue Mar 11 14:34:43 2014

@<TRIPOS>MOLECULE
3ZHV_3_CAVITY_N1_ALL.mol2
  149     0     7     0     0
SMALL
NO_CHARGES


@<TRIPOS>ATOM
      1 CA        -12.3264   21.2740   37.8736 C.3       6 GLY6        0.0000 
      2 N         -13.2629   21.0627   39.0261 N.2       2 ALA2        0.0000 
      3 O         -12.5334   21.3286   35.7631 O.2       2 ALA2        0.0000 
      4 O         -13.4699   21.1173   36.9157 O.2       2 ALA2        0.0000 
      5 O         -14.4064   20.9059   38.0682 O.2       2 ALA2        0.0000 
      6 O         -15.3429   20.6946   39.2207 O.2       2 ALA2        0.0000 
      7 N         -16.2794   20.4833   40.3732 N.2       2 ALA2        0.0000 
      8 O         -14.6135   20.9605   35.9577 O.2       2 ALA2        0.0000 
      9 O         -15.5500   20.7492   37.1102 O.2       2 ALA2        0.0000 
     10 O         -16.4865   20.5379   38.2627 O.2       2 ALA2        0.0000 
     11 N         -17.4230   20.3265   39.4153 N.2       2 ALA2        0.0000 
     12 OD1       -11.0745   21.8604   29.2371 O.3       3 ASP3        0.0000 
     13 O         -12.0110   21.6491   30.3896 O.2       2 ALA2        0.0000 
     14 O         -16.6936   20.5925   36.1522 O.2       2 ALA2        0.0000 
     15 CZ        -17.6301   20.3811   37.3048 C.ar      5 PHE5        0.0000 
     16 O         -14.1878   24.1253   34.9317 O.2       2 ALA2        0.0000 
     17 O         -16.0608   23.7027   37.2367 O.2       2 ALA2        0.0000 
     18 O         -16.9973   23.4914   38.3892 O.2       2 ALA2        0.0000 
     19 O         -17.9338   23.2800   39.5418 O.2       2 ALA2        0.0000 
     20 DU        -19.0774   23.1233   38.5838 H         7 CUB7        0.0000 
     21 N          -6.3417    6.9768   40.1150 N.2       2 ALA2        0.0000 
     22 CA         -7.4853    6.8200   39.1571 C.3       6 GLY6        0.0000 
     23 O          -6.8525    9.9303   40.2415 O.2       2 ALA2        0.0000 
     24 CA         -7.7890    9.7190   41.3940 C.3       6 GLY6        0.0000 
     25 CZ         -7.9961    9.7735   39.2836 C.ar      5 PHE5        0.0000 
     26 CZ         -8.9326    9.5622   40.4361 C.ar      5 PHE5        0.0000 
     27 CA         -7.1079   11.4070   40.3048 C.3       6 GLY6        0.0000 
     28 CA         -8.0444   11.1957   41.4573 C.3       6 GLY6        0.0000 
     29 CA         -8.9809   10.9844   42.6098 C.3       6 GLY6        0.0000 
     30 CZ         -8.2515   11.2503   39.3468 C.ar      5 PHE5        0.0000 
     31 CZ         -9.1880   11.0390   40.4993 C.ar      5 PHE5        0.0000 
     32 N         -10.1245   10.8276   41.6519 N.2       2 ALA2        0.0000 
     33 CA         -8.2998   12.6724   41.5205 C.3       6 GLY6        0.0000 
     34 CZ         -8.5069   12.7270   39.4101 C.ar      5 PHE5        0.0000 
     35 CZ         -9.4434   12.5157   40.5626 C.ar      5 PHE5        0.0000 
     36 N         -10.3799   12.3044   41.7151 N.2       2 ALA2        0.0000 
     37 CZ        -12.2413   15.1557   38.7731 C.ar      5 PHE5        0.0000 
     38 N          -7.7658   16.2669   30.9001 N.2       2 ALA2        0.0000 
     39 OG         -8.7023   16.0556   32.0526 O.2       1 SER1        0.0000 
     40 CA         -7.9729   16.3215   28.7896 C.3       6 GLY6        0.0000 
     41 N          -8.9094   16.1102   29.9421 N.2       2 ALA2        0.0000 
     42 O          -6.5971    8.4535   40.1783 O.2       2 ALA2        0.0000 
     43 NZ         -7.5336    8.2422   41.3308 N.2       4 LYS4        0.0000 
     44 CZ         -7.7407    8.2968   39.2203 C.ar      5 PHE5        0.0000 
     45 NZ         -8.6772    8.0855   40.3728 N.2       4 LYS4        0.0000 
     46 N          -8.1295   17.3140   40.5578 N.2       2 ALA2        0.0000 
     47 N          -8.3366   17.3686   38.4473 N.2       2 ALA2        0.0000 
     48 N          -9.2731   17.1573   39.5998 N.2       2 ALA2        0.0000 
     49 N         -10.2096   16.9459   40.7523 N.2       2 ALA2        0.0000 
     50 N          -6.6706   17.8458   34.0318 N.2       2 ALA2        0.0000 
     51 O          -7.6071   17.6345   35.1843 O.2       2 ALA2        0.0000 
     52 N          -8.5436   17.4232   36.3368 N.2       2 ALA2        0.0000 
     53 N          -9.4801   17.2118   37.4893 N.2       2 ALA2        0.0000 
     54 N         -10.4166   17.0005   38.6418 N.2       2 ALA2        0.0000 
     55 N         -11.3531   16.7892   39.7944 N.2       2 ALA2        0.0000 
     56 CZ        -12.2896   16.5779   40.9469 C.ar      5 PHE5        0.0000 
     57 N          -7.8142   17.6891   33.0738 N.2       2 ALA2        0.0000 
     58 O          -8.7507   17.4777   34.2263 O.2       2 ALA2        0.0000 
     59 N         -11.5602   16.8438   37.6839 N.2       2 ALA2        0.0000 
     60 CZ        -12.4967   16.6324   38.8364 C.ar      5 PHE5        0.0000 
     61 CZ        -13.4332   16.4211   39.9889 C.ar      5 PHE5        0.0000 
     62 N          -8.0212   17.7437   30.9633 N.2       2 ALA2        0.0000 
     63 N          -8.9577   17.5323   32.1158 N.2       2 ALA2        0.0000 
     64 O          -9.8942   17.3210   33.2684 O.2       2 ALA2        0.0000 
     65 OD1        -8.2283   17.7982   28.8528 O.3       3 ASP3        0.0000 
     66 N          -9.1648   17.5869   30.0053 N.2       2 ALA2        0.0000 
     67 CA        -13.7253   22.5940   36.9789 C.3       6 GLY6        0.0000 
     68 O         -14.6618   22.3827   38.1314 O.2       2 ALA2        0.0000 
     69 O         -13.9324   22.6486   34.8684 O.2       2 ALA2        0.0000 
     70 O         -14.8689   22.4373   36.0209 O.2       2 ALA2        0.0000 
     71 O         -15.8054   22.2259   37.1735 O.2       2 ALA2        0.0000 
     72 O         -16.7419   22.0146   38.3260 O.2       2 ALA2        0.0000 
     73 O         -17.6784   21.8033   39.4785 O.2       2 ALA2        0.0000 
     74 O         -16.0125   22.2805   35.0630 O.2       2 ALA2        0.0000 
     75 O         -16.9490   22.0692   36.2155 O.2       2 ALA2        0.0000 
     76 DU        -17.8855   21.8579   37.3680 H         7 CUB7        0.0000 
     77 CZ        -18.8220   21.6466   38.5205 C.ar      5 PHE5        0.0000 
     78 N          -8.5920   18.8453   38.5105 N.2       2 ALA2        0.0000 
     79 N          -9.5285   18.6340   39.6631 N.2       2 ALA2        0.0000 
     80 O          -7.8625   19.1112   35.2475 O.2       2 ALA2        0.0000 
     81 O          -8.7990   18.8999   36.4000 O.2       2 ALA2        0.0000 
     82 CA         -9.7355   18.6886   37.5526 C.3       6 GLY6        0.0000 
     83 N         -10.6720   18.4773   38.7051 N.2       2 ALA2        0.0000 
     84 N         -11.6085   18.2659   39.8576 N.2       2 ALA2        0.0000 
     85 O          -8.0696   19.1658   33.1370 O.2       2 ALA2        0.0000 
     86 O          -9.0061   18.9545   34.2896 O.2       2 ALA2        0.0000 
     87 O          -9.9426   18.7432   35.4421 O.2       2 ALA2        0.0000 
     88 O         -10.8791   18.5318   36.5946 O.2       2 ALA2        0.0000 
     89 N         -11.8156   18.3205   37.7471 N.2       2 ALA2        0.0000 
     90 CZ        -12.7521   18.1092   38.8996 C.ar      5 PHE5        0.0000 
     91 CZ        -13.6886   17.8979   40.0522 C.ar      5 PHE5        0.0000 
     92 OD1        -8.2766   19.2204   31.0266 O.3       3 ASP3        0.0000 
     93 O         -10.1496   18.7977   33.3316 O.2       2 ALA2        0.0000 
     94 O         -11.0861   18.5864   34.4841 O.2       2 ALA2        0.0000 
     95 CA        -12.0226   18.3751   35.6366 C.3       6 GLY6        0.0000 
     96 CZ        -12.9591   18.1638   36.7892 C.ar      5 PHE5        0.0000 
     97 CZ        -13.8956   17.9525   37.9417 C.ar      5 PHE5        0.0000 
     98 CZ        -14.8322   17.7411   39.0942 C.ar      5 PHE5        0.0000 
     99 OD1        -9.4202   19.0637   30.0686 O.3       3 ASP3        0.0000 
    100 N         -10.3567   18.8523   31.2211 N.2       2 ALA2        0.0000 
    101 CZ        -14.1027   18.0070   35.8312 C.ar      5 PHE5        0.0000 
    102 N         -10.8191   20.3837   29.1739 N.2       2 ALA2        0.0000 
    103 CA        -11.7557   20.1723   30.3264 C.3       6 GLY6        0.0000 
    104 N         -16.4382   19.1157   36.0890 N.2       2 ALA2        0.0000 
    105 CZ        -17.3747   18.9044   37.2415 C.ar      5 PHE5        0.0000 
    106 O          -6.9376   16.0486   39.3420 O.2       2 ALA2        0.0000 
    107 CA         -7.8741   15.8373   40.4945 C.3       6 GLY6        0.0000 
    108 N          -8.8106   15.6259   41.6470 N.2       2 ALA2        0.0000 
    109 N          -9.7471   15.4146   42.7996 N.2       2 ALA2        0.0000 
    110 O          -5.2717   16.5258   34.9265 O.2       2 ALA2        0.0000 
    111 O          -7.1447   16.1032   37.2315 O.2       2 ALA2        0.0000 
    112 O          -8.0812   15.8918   38.3840 O.2       2 ALA2        0.0000 
    113 DU         -9.0177   15.6805   39.5366 H         7 CUB7        0.0000 
    114 N          -9.9542   15.4692   40.6891 N.2       2 ALA2        0.0000 
    115 OG         -7.3517   16.1577   35.1210 O.2       1 SER1        0.0000 
    116 N          -8.2882   15.9464   36.2736 N.2       2 ALA2        0.0000 
    117 N          -9.2247   15.7351   37.4261 N.2       2 ALA2        0.0000 
    118 N         -10.1612   15.5238   38.5786 N.2       2 ALA2        0.0000 
    119 N         -11.0977   15.3124   39.7311 N.2       2 ALA2        0.0000 
    120 CA        -10.9274   19.9540   38.7683 C.3       6 GLY6        0.0000 
    121 CA        -11.8639   19.7427   39.9209 C.3       6 GLY6        0.0000 
    122 CA        -12.0710   19.7973   37.8104 C.3       6 GLY6        0.0000 
    123 N         -13.0075   19.5859   38.9629 N.2       2 ALA2        0.0000 
    124 N         -13.9440   19.3746   40.1154 N.2       2 ALA2        0.0000 
    125 O         -12.2780   19.8518   35.6999 O.2       2 ALA2        0.0000 
    126 O         -13.2145   19.6405   36.8524 O.2       2 ALA2        0.0000 
    127 CZ        -14.1510   19.4292   38.0049 C.ar      5 PHE5        0.0000 
    128 CZ        -15.0875   19.2179   39.1575 C.ar      5 PHE5        0.0000 
    129 N         -16.0240   19.0065   40.3100 N.2       2 ALA2        0.0000 
    130 OD1        -9.6756   20.5404   30.1318 O.3       3 ASP3        0.0000 
    131 O         -12.4851   19.9064   33.5894 O.2       2 ALA2        0.0000 
    132 O         -14.3581   19.4838   35.8944 O.2       2 ALA2        0.0000 
    133 CZ        -15.2946   19.2725   37.0470 C.ar      5 PHE5        0.0000 
    134 CZ        -16.2311   19.0611   38.1995 C.ar      5 PHE5        0.0000 
    135 CZ        -17.1676   18.8498   39.3520 C.ar      5 PHE5        0.0000 
    136 CA         -6.6822   14.5718   39.2788 C.3       6 GLY6        0.0000 
    137 CA         -7.6187   14.3605   40.4313 C.3       6 GLY6        0.0000 
    138 CA         -8.5552   14.1492   41.5838 C.3       6 GLY6        0.0000 
    139 N          -9.4917   13.9379   42.7363 N.2       2 ALA2        0.0000 
    140 N          -7.8258   14.4151   38.3208 N.2       2 ALA2        0.0000 
    141 DU         -8.7623   14.2038   39.4733 H         7 CUB7        0.0000 
    142 N          -9.6988   13.9924   40.6258 N.2       2 ALA2        0.0000 
    143 N          -8.9693   14.2584   37.3628 N.2       2 ALA2        0.0000 
    144 CZ         -9.9058   14.0470   38.5153 C.ar      5 PHE5        0.0000 
    145 CZ        -10.8423   13.8357   39.6679 C.ar      5 PHE5        0.0000 
    146 CA         -6.5739   15.0015   29.6843 C.3       6 GLY6        0.0000 
    147 N          -7.5104   14.7902   30.8368 N.2       2 ALA2        0.0000 
    148 CA         -7.7175   14.8447   28.7263 C.3       6 GLY6        0.0000 
    149 CA         -8.6540   14.6334   29.8788 C.3       6 GLY6        0.0000 
@<TRIPOS>BOND
@<TRIPOS>SUBSTRUCTURE
     1 SER1       39 GROUP   
     2 ALA2        2 GROUP   
     3 ASP3       12 GROUP   
     4 LYS4       43 GROUP   
     5 PHE5       15 GROUP   
     6 GLY6        1 GROUP   
     7 CUB7       20 GROUP   
@<TRIPOS>SET

