#    Name: 3zhv_TDW_3_INTS_M
#    Modification time : Tue Mar 25 03:19:59 2014

@<TRIPOS>MOLECULE
3zhv_TDW_3_INTS_M
   82     0    15     0     0
SMALL
NO_CHARGES


@<TRIPOS>ATOM
      1 CA         -9.5990   16.6240   45.2260 C.3       5 GLC5        0.0000 
      2 CA         -8.0090   15.4640   44.5590 C.3      15 GLL5        0.0000 
      3 CA        -11.1890   17.7840   45.8930 C.3      10 GLP5        0.0000 
      4 N          -3.4430   13.2490   46.3035 N.am      2 SEC2        0.0000 
      5 N          -3.4430   14.5840   45.6550 N.am     12 SEL2        0.0000 
      6 N          -3.4430   11.9140   46.9520 N.am      7 SEP2        0.0000 
      7 NZ         -2.9695   20.2945   43.6450 N.4       3 LYC4        0.0000 
      8 NZ         -2.8050   18.9280   44.1540 N.4      13 LYL4        0.0000 
      9 NZ         -4.3390   22.2070   42.9920 N.4       8 LYP4        0.0000 
     10 N          -2.9695   20.2945   43.6450 N.am      2 SEC2        0.0000 
     11 N          -2.8050   18.9280   44.1540 N.am     12 SEL2        0.0000 
     12 N          -3.1340   21.6610   43.1360 N.am      7 SEP2        0.0000 
     13 CA         -5.9015   10.2675   40.7360 C.3       5 GLC5        0.0000 
     14 CA         -7.8730    9.2690   40.5570 C.3      15 GLL5        0.0000 
     15 CA         -3.9300   11.2660   40.9150 C.3      10 GLP5        0.0000 
     16 CA         -9.7375    8.4850   39.6325 C.3       5 GLC5        0.0000 
     17 CA        -11.6020    7.7010   38.7080 C.3      10 GLP5        0.0000 
     18 N         -10.3100   14.8975   37.0005 N.am      2 SEC2        0.0000 
     19 N          -9.5350   14.7940   38.2990 N.am     12 SEL2        0.0000 
     20 N         -11.0850   15.0010   35.7020 N.am      7 SEP2        0.0000 
     21 CA        -12.6210   14.6590   40.5420 C.3       5 GLC5        0.0000 
     22 CA        -11.2610   15.9230   39.5770 C.3      15 GLL5        0.0000 
     23 CA        -13.9810   13.3950   41.5070 C.3      10 GLP5        0.0000 
     24 CA        -13.0570   15.6275   38.7240 C.3       5 GLC5        0.0000 
     25 CA        -14.8530   15.3320   37.8710 C.3      10 GLP5        0.0000 
     26 Zn         -3.8675   17.2685   47.6750 Zn        4 ZIC7        0.0000 
     27 Zn         -4.1740   16.3300   47.4020 Zn       14 ZIL7        0.0000 
     28 Zn         -3.5610   18.2070   47.9480 Zn        9 ZIP7        0.0000 
     29 N          -3.6325   15.1315   48.1340 N.am      2 SEC2        0.0000 
     30 N          -4.1740   16.3300   47.4020 N.am     12 SEL2        0.0000 
     31 N          -3.0910   13.9330   48.8660 N.am      7 SEP2        0.0000 
     32 NZ         -5.3690   20.0880   43.5475 N.4       3 LYC4        0.0000 
     33 NZ         -5.3100   18.6790   43.8540 N.4      13 LYL4        0.0000 
     34 N          -5.3690   20.0880   43.5475 N.am      2 SEC2        0.0000 
     35 N          -5.3100   18.6790   43.8540 N.am     12 SEL2        0.0000 
     36 N          -5.4280   21.4970   43.2410 N.am      7 SEP2        0.0000 
     37 N          -6.0275   10.2085   39.3020 N.am      2 SEC2        0.0000 
     38 N          -7.5030   10.3010   39.7910 N.am     12 SEL2        0.0000 
     39 N          -4.5520   10.1160   38.8130 N.am      7 SEP2        0.0000 
     40 Zn         -3.9445   18.7925   47.0300 Zn        4 ZIC7        0.0000 
     41 Zn         -4.3280   19.3780   46.1120 Zn       14 ZIL7        0.0000 
     42 N          -3.5205   20.4730   46.4795 N.am      2 SEC2        0.0000 
     43 N          -4.3280   19.3780   46.1120 N.am     12 SEL2        0.0000 
     44 N          -2.7130   21.5680   46.8470 N.am      7 SEP2        0.0000 
     45 CA         -6.9555   10.3710   38.3470 C.3       5 GLC5        0.0000 
     46 CA         -8.2380   11.4310   39.8610 C.3      15 GLL5        0.0000 
     47 CA         -5.6730    9.3110   36.8330 C.3      10 GLP5        0.0000 
     48 CA         -6.4785   12.0080   40.2610 C.3       5 GLC5        0.0000 
     49 CA         -4.7190   12.5850   40.6610 C.3      10 GLP5        0.0000 
     50 O          -6.8180   12.3465   38.1130 O.2       1 ALC1        0.0000 
     51 O          -7.8060   12.4740   39.1440 O.2      11 ALL1        0.0000 
     52 O          -5.8300   12.2190   37.0820 O.2       6 ALP1        0.0000 
     53 CA         -7.4055   12.2915   41.3205 C.3       5 GLC5        0.0000 
     54 CA         -9.3800   11.5120   40.7130 C.3      15 GLL5        0.0000 
     55 CA         -5.4310   13.0710   41.9280 C.3      10 GLP5        0.0000 
     56 CA         -8.3845   10.1265   42.9190 C.3       5 GLC5        0.0000 
     57 CA         -9.6560   10.3710   41.4290 C.3      15 GLL5        0.0000 
     58 CA         -7.1130    9.8820   44.4090 C.3      10 GLP5        0.0000 
     59 CA        -10.6290    9.0360   40.0685 C.3       5 GLC5        0.0000 
     60 CA        -12.1250   13.0590   41.1950 C.3       5 GLC5        0.0000 
     61 CA        -10.2690   12.7230   40.8830 C.3      15 GLL5        0.0000 
     62 CA        -10.9175   12.0330   39.2555 C.3       5 GLC5        0.0000 
     63 CA        -11.5660   11.3430   37.6280 C.3      10 GLP5        0.0000 
     64 CA         -5.2230    9.2730   40.1045 C.3       5 GLC5        0.0000 
     65 CA         -7.0010    8.0570   40.5300 C.3      15 GLL5        0.0000 
     66 CA         -3.4450   10.4890   39.6790 C.3      10 GLP5        0.0000 
     67 CA         -8.4800    8.5830   38.9720 C.3       5 GLC5        0.0000 
     68 CA         -9.9590    9.1090   37.4140 C.3      10 GLP5        0.0000 
     69 CA        -11.0390   11.6785   44.9525 C.3       5 GLC5        0.0000 
     70 CA         -9.7610   12.9650   43.8570 C.3      15 GLL5        0.0000 
     71 CA        -12.3170   10.3920   46.0480 C.3      10 GLP5        0.0000 
     72 CA         -7.1446   13.9268   42.2985 C.3       5 GLC5        0.0000 
     73 CA         -8.5430   15.1200   43.1590 C.3      15 GLL5        0.0000 
     74 CA         -6.3435   14.3015   43.2300 C.3       5 GLC5        0.0000 
     75 CA         -7.4030   16.2690   46.5165 C.3       5 GLC5        0.0000 
     76 CA         -6.5030   15.6000   44.5050 C.3      15 GLL5        0.0000 
     77 CA         -7.5500   17.0060   48.5010 C.3      10 GLP5        0.0000 
     78 CA         -7.0070   13.8075   45.0735 C.3       5 GLC5        0.0000 
     79 CA         -6.7580   12.0830   45.6150 C.3      10 GLP5        0.0000 
     80 CA         -6.5550    8.9870   38.6882 C.3       5 GLC5        0.0000 
     81 CA         -7.2750    9.2725   42.4763 C.3       5 GLC5        0.0000 
     82 CA         -8.0450   12.9176   44.5233 C.3       5 GLC5        0.0000 
@<TRIPOS>BOND
@<TRIPOS>SUBSTRUCTURE
     1 ALC1       50 GROUP        1 X    ALC  0     ROOT ALC X 1
     2 SEC2        4 GROUP        1 X    SEC  0     **** SEC X 2
     3 LYC4        7 GROUP        1 X    LYC  0     **** LYC X 4
     4 ZIC7       26 GROUP        1 X    ZIC  0     **** ZIC X 5
     5 GLC5        1 GROUP        1 X    GLC  0     **** GLC X 6
     6 ALP1       52 GROUP        1 Y    ALP  0     ROOT ALP Y 8
     7 SEP2        6 GROUP        1 Y    SEP  0     **** SEP Y 9
     8 LYP4        9 GROUP        1 Y    LYP  0     **** LYP Y 11
     9 ZIP7       28 GROUP        1 Y    ZIP  0     **** ZIP Y 12
    10 GLP5        3 GROUP        1 Y    GLP  0     **** GLP Y 13
    11 ALL1       51 GROUP        1 Z    ALL  0     ROOT ALL Z 15
    12 SEL2        5 GROUP        1 Z    SEL  0     **** SEL Z 16
    13 LYL4        8 GROUP        1 Z    LYL  0     **** LYL Z 18
    14 ZIL7       27 GROUP        1 Z    ZIL  0     **** ZIL Z 19
    15 GLL5        2 GROUP        1 Z    GLL  0     **** GLL Z 20
@<TRIPOS>SET

