#    Name: 3zhv_TDW_3_ligand
#    Modification time : Tue Mar 25 03:19:59 2014

@<TRIPOS>MOLECULE
3zhv_TDW_3_ligand
   49    50     1     0     0
SMALL
NO_CHARGES


@<TRIPOS>ATOM
      1 S1         -8.3640   16.0920   41.8110 S.3       1 TDW2001     0.0000 
      2 C2         -9.2130   15.1150   40.8290 C.2       1 TDW2001     0.0000 
      3 N3         -9.6160   13.8960   41.5020 N.2       1 TDW2001     0.0000 
      4 C4         -9.2630   13.9590   42.8530 C.2       1 TDW2001     0.0000 
      5 C5         -8.5430   15.1200   43.1590 C.2       1 TDW2001     0.0000 
      6 C6         -8.0090   15.4640   44.5590 C.3       1 TDW2001     0.0000 
      7 C7         -6.5030   15.6000   44.5050 C.3       1 TDW2001     0.0000 
      8 O7         -5.8820   15.5740   45.8190 O.3       1 TDW2001     0.0000 
      9 PA         -4.2750   15.7670   45.9800 P.3       1 TDW2001     0.0000 
     10 PB         -4.1270   18.6340   44.8370 P.3       1 TDW2001     0.0000 
     11 N1'        -8.9320    9.2450   41.3750 N.ar      1 TDW2001     0.0000 
     12 O1A        -3.4430   14.5840   45.6550 O.co2     1 TDW2001     0.0000 
     13 O1B        -2.8050   18.9280   44.1540 O.co2     1 TDW2001     0.0000 
     14 C2'        -7.8730    9.2690   40.5570 C.ar      1 TDW2001     0.0000 
     15 C27        -9.7870   15.5800   39.4590 C.3       1 TDW2001     0.0000 
     16 O28        -9.5350   14.7940   38.2990 O.3       1 TDW2001     0.0000 
     17 C29       -11.2610   15.9230   39.5770 C.3       1 TDW2001     0.0000 
     18 O2A        -4.1740   16.3300   47.4020 O.co2     1 TDW2001     0.0000 
     19 O2B        -5.3100   18.6790   43.8540 O.co2     1 TDW2001     0.0000 
     20 N3'        -7.5030   10.3010   39.7910 N.ar      1 TDW2001     0.0000 
     21 O3A        -4.0810   17.1070   45.2050 O.3       1 TDW2001     0.0000 
     22 O3B        -4.3280   19.3780   46.1120 O.co2     1 TDW2001     0.0000 
     23 C4'        -8.2380   11.4310   39.8610 C.ar      1 TDW2001     0.0000 
     24 N4'        -7.8060   12.4740   39.1440 N.pl3     1 TDW2001     0.0000 
     25 C5'        -9.3800   11.5120   40.7130 C.ar      1 TDW2001     0.0000 
     26 C6'        -9.6560   10.3710   41.4290 C.ar      1 TDW2001     0.0000 
     27 C7'       -10.2690   12.7230   40.8830 C.3       1 TDW2001     0.0000 
     28 CM2        -7.0010    8.0570   40.5300 C.3       1 TDW2001     0.0000 
     29 CM4        -9.7610   12.9650   43.8570 C.3       1 TDW2001     0.0000 
     30 H          -8.2834   14.6709   45.2445 H         1 TDW2001     0.0000 
     31 H          -8.4522   16.3977   44.8846 H         1 TDW2001     0.0000 
     32 H          -6.2601   16.5448   43.9790 H         1 TDW2001     0.0000 
     33 H          -6.1048   14.7829   43.8708 H         1 TDW2001     0.0000 
     34 H          -9.2922   16.6171   39.2904 H         1 TDW2001     0.0000 
     35 H          -7.0026   12.3116   38.5711 H         1 TDW2001     0.0000 
     36 H          -8.3251   13.3227   39.2451 H         1 TDW2001     0.0000 
     37 H         -10.5131   10.3986   42.0711 H         1 TDW2001     0.0000 
     38 H         -10.6745   13.0034   39.8838 H         1 TDW2001     0.0000 
     39 H         -11.1559   12.4248   41.4880 H         1 TDW2001     0.0000 
     40 H         -11.4191   16.6617   40.2322 H         1 TDW2001     0.0000 
     41 H         -11.6444   16.2199   38.7024 H         1 TDW2001     0.0000 
     42 H         -11.8014   15.1392   39.8830 H         1 TDW2001     0.0000 
     43 H          -6.2382    8.1624   39.8920 H         1 TDW2001     0.0000 
     44 H          -6.6070    7.8628   41.4284 H         1 TDW2001     0.0000 
     45 H          -7.5072    7.2415   40.2495 H         1 TDW2001     0.0000 
     46 H          -9.4801   12.0330   43.6278 H         1 TDW2001     0.0000 
     47 H          -9.4140   13.1584   44.7747 H         1 TDW2001     0.0000 
     48 H         -10.7593   12.9643   43.9152 H         1 TDW2001     0.0000 
     49 H          -8.8230   15.2889   37.8008 H         1 TDW2001     0.0000 
@<TRIPOS>BOND
     1    2    1 1    
     2    5    1 1    
     3    3    2 2    
     4   15    2 1    
     5    4    3 1    
     6   27    3 1    
     7    5    4 2    
     8   29    4 1    
     9    6    5 1    
    10    7    6 1    
    11   30    6 1    
    12   31    6 1    
    13    8    7 1    
    14   32    7 1    
    15   33    7 1    
    16    9    8 1    
    17   12    9 ar   
    18   18    9 ar   
    19   21    9 1    
    20   13   10 ar   
    21   19   10 ar   
    22   21   10 1    
    23   22   10 ar   
    24   14   11 ar   
    25   26   11 ar   
    26   20   14 ar   
    27   28   14 1    
    28   16   15 1    
    29   17   15 1    
    30   34   15 1    
    31   49   16 1    
    32   40   17 1    
    33   41   17 1    
    34   42   17 1    
    35   23   20 ar   
    36   24   23 1    
    37   25   23 ar   
    38   35   24 1    
    39   36   24 1    
    40   26   25 ar   
    41   27   25 1    
    42   37   26 1    
    43   38   27 1    
    44   39   27 1    
    45   43   28 1    
    46   44   28 1    
    47   45   28 1    
    48   46   29 1    
    49   47   29 1    
    50   48   29 1    
@<TRIPOS>SUBSTRUCTURE
     1 TDW2001     1 GROUP   
@<TRIPOS>SET

