#    Name: 4cdu_YM2_1_INTS_M
#    Modification time : Tue Mar 25 09:13:37 2014

@<TRIPOS>MOLECULE
4cdu_YM2_1_INTS_M
   81     0     6     0     0
SMALL
NO_CHARGES


@<TRIPOS>ATOM
      1 CA         94.9255  258.9965  104.0710 C.3       2 GLC5        0.0000 
      2 CA         95.1290  260.8050  105.0160 C.3       6 GLL5        0.0000 
      3 CA         94.7220  257.1880  103.1260 C.3       4 GLP5        0.0000 
      4 CA         93.3920  260.6710  104.7125 C.3       2 GLC5        0.0000 
      5 CA         91.6550  260.5370  104.4090 C.3       4 GLP5        0.0000 
      6 CA         94.7235  262.4805  103.0215 C.3       2 GLC5        0.0000 
      7 CA         96.1930  261.6480  104.3110 C.3       6 GLL5        0.0000 
      8 CA         93.2540  263.3130  101.7320 C.3       4 GLP5        0.0000 
      9 CA         96.5875  261.1125  102.4530 C.3       2 GLC5        0.0000 
     10 CA         96.9820  260.5770  100.5950 C.3       4 GLP5        0.0000 
     11 CA         96.9240  263.5030  104.0785 C.3       2 GLC5        0.0000 
     12 CA         97.6550  265.3580  103.8460 C.3       4 GLP5        0.0000 
     13 CA         98.7455  260.8295  101.4645 C.3       2 GLC5        0.0000 
     14 CA        100.5090  261.0820  102.3340 C.3       6 GLL5        0.0000 
     15 CA        102.6030  262.9420  105.6085 C.3       2 GLC5        0.0000 
     16 CA        101.9240  262.4870  103.6800 C.3       6 GLL5        0.0000 
     17 CA        103.2820  263.3970  107.5370 C.3       4 GLP5        0.0000 
     18 CA        105.5895  262.7450  102.7900 C.3       2 GLC5        0.0000 
     19 CA        105.0720  261.7790  101.2720 C.3       6 GLL5        0.0000 
     20 CA        106.1070  263.7110  104.3080 C.3       4 GLP5        0.0000 
     21 CA        104.6225  259.9270  102.2865 C.3       2 GLC5        0.0000 
     22 CA        104.1730  258.0750  103.3010 C.3       4 GLP5        0.0000 
     23 CA        106.1085  260.5765   98.4600 C.3       2 GLC5        0.0000 
     24 CA        106.1460  261.4060  100.2500 C.3       6 GLL5        0.0000 
     25 CA        106.0710  259.7470   96.6700 C.3       4 GLP5        0.0000 
     26 CA        109.8520  260.7980  102.4295 C.3       2 GLC5        0.0000 
     27 CA        108.1400  261.5810  101.7310 C.3       6 GLL5        0.0000 
     28 CA        111.5640  260.0150  103.1280 C.3       4 GLP5        0.0000 
     29 CA        108.9990  262.7830  103.2230 C.3       2 GLC5        0.0000 
     30 CA        109.8580  263.9850  104.7150 C.3       4 GLP5        0.0000 
     31 CA        109.0145  260.1145   99.1535 C.3       2 GLC5        0.0000 
     32 CA        108.3220  262.1340   99.3110 C.3       6 GLL5        0.0000 
     33 CA        109.7070  258.0950   98.9960 C.3       4 GLP5        0.0000 
     34 CA        107.1965  260.9405   97.9905 C.3       2 GLC5        0.0000 
     35 CA        109.2080  264.9920  100.4790 C.3       2 GLC5        0.0000 
     36 CA        109.3240  263.2890   99.3600 C.3       6 GLL5        0.0000 
     37 CA        109.0920  266.6950  101.5980 C.3       4 GLP5        0.0000 
     38 CA        111.5190  263.7155   99.4250 C.3       2 GLC5        0.0000 
     39 CA        113.7140  264.1420   99.4900 C.3       4 GLP5        0.0000 
     40 N         109.5155  266.7660   98.3075 N.am      1 SEC2        0.0000 
     41 N         110.0370  265.4130   97.5350 N.am      5 SEL2        0.0000 
     42 N         108.9940  268.1190   99.0800 N.am      3 SEP2        0.0000 
     43 CA        111.3965  260.4325   97.5805 C.3       2 GLC5        0.0000 
     44 CA        110.7740  262.0340   97.5800 C.3       6 GLL5        0.0000 
     45 CA        112.0190  258.8310   97.5810 C.3       4 GLP5        0.0000 
     46 CA        112.2440  263.0880   98.5350 C.3       2 GLC5        0.0000 
     47 CA        112.5805  260.9555   96.7825 C.3       2 GLC5        0.0000 
     48 CA        111.9010  262.6130   96.7280 C.3       6 GLL5        0.0000 
     49 CA        113.2600  259.2980   96.8370 C.3       4 GLP5        0.0000 
     50 CA        112.8350  263.8010   97.5460 C.3       2 GLC5        0.0000 
     51 CA        113.7690  264.9890   98.3640 C.3       4 GLP5        0.0000 
     52 CA        111.4810  262.4145   94.7855 C.3       2 GLC5        0.0000 
     53 CA        111.0610  262.2160   92.8430 C.3       4 GLP5        0.0000 
     54 CA         94.9755  261.2242  106.4708 C.3       2 GLC5        0.0000 
     55 CA         94.2900  261.2220  108.2780 C.3       4 GLP5        0.0000 
     56 CA        101.7360  260.2803  104.0348 C.3       2 GLC5        0.0000 
     57 CA        100.6950  261.8750  103.4590 C.3       6 GLL5        0.0000 
     58 CA        102.8700  259.0820  105.1730 C.3       4 GLP5        0.0000 
     59 CA        101.9250  262.3487  100.0895 C.3       2 GLC5        0.0000 
     60 CA        101.5660  260.8780  101.4550 C.3       6 GLL5        0.0000 
     61 CA        101.6620  263.5350   98.6000 C.3       4 GLP5        0.0000 
     62 CA        103.1805  259.6187  102.4400 C.3       2 GLC5        0.0000 
     63 CA        103.0910  259.5957  100.7755 C.3       2 GLC5        0.0000 
     64 CA        102.8100  261.4470  101.7030 C.3       6 GLL5        0.0000 
     65 CA        103.9940  258.0290   99.9720 C.3       4 GLP5        0.0000 
     66 CA        100.4790  259.3261  102.8939 C.3       2 GLC5        0.0000 
     67 CA         99.8740  257.4740  103.6120 C.3       4 GLP5        0.0000 
     68 CA        102.6610  260.7335  104.2065 C.3       2 GLC5        0.0000 
     69 CA        104.8015  259.8107  100.3665 C.3       2 GLC5        0.0000 
     70 CA        105.5148  263.2129   99.7895 C.3       2 GLC5        0.0000 
     71 CA        104.5180  264.5250   98.9290 C.3       4 GLP5        0.0000 
     72 CA        106.9420  262.8030  102.7215 C.3       2 GLC5        0.0000 
     73 CA        107.4140  262.2090  100.5390 C.3       6 GLL5        0.0000 
     74 CA        115.1792  264.4368   94.5355 C.3       2 GLC5        0.0000 
     75 CA        112.8790  264.2820   94.6420 C.3       6 GLL5        0.0000 
     76 CA        117.1960  264.1780   94.9100 C.3       4 GLP5        0.0000 
     77 CA        111.9846  263.5145   93.6051 C.3       2 GLC5        0.0000 
     78 CA        113.4460  265.1090   93.6800 C.3       6 GLL5        0.0000 
     79 CA        112.3952  267.8268   95.8962 C.3       2 GLC5        0.0000 
     80 CA        111.4390  266.0710   95.3530 C.3       6 GLL5        0.0000 
     81 CA        113.0760  269.1650   96.9220 C.3       4 GLP5        0.0000 
@<TRIPOS>BOND
@<TRIPOS>SUBSTRUCTURE
     1 SEC2       40 GROUP        1 X    SEC  0     ROOT SEC X 2
     2 GLC5        1 GROUP        1 X    GLC  0     **** GLC X 6
     3 SEP2       42 GROUP        1 Y    SEP  0     ROOT SEP Y 9
     4 GLP5        3 GROUP        1 Y    GLP  0     **** GLP Y 13
     5 SEL2       41 GROUP        1 Z    SEL  0     ROOT SEL Z 16
     6 GLL5        2 GROUP        1 Z    GLL  0     **** GLL Z 20
@<TRIPOS>SET

