#    Name: 4cdu_YM2_1_ligand
#    Modification time : Tue Mar 25 09:13:37 2014

@<TRIPOS>MOLECULE
4cdu_YM2_1_ligand
   60    62     1     0     0
SMALL
NO_CHARGES


@<TRIPOS>ATOM
      1 CAA        95.1290  260.8050  105.0160 C.3       1 YM21298     0.0000 
      2 CAM        96.1930  261.6480  104.3110 C.3       1 YM21298     0.0000 
      3 OAV        97.4280  261.5330  105.0220 O.3       1 YM21298     0.0000 
      4 NAT        98.5350  261.3750  104.0850 N.2       1 YM21298     0.0000 
      5 CAD        99.6580  262.0490  104.3670 C.2       1 YM21298     0.0000 
      6 CAY       100.6950  261.8750  103.4590 C.ar      1 YM21298     0.0000 
      7 CAJ       100.5090  261.0820  102.3340 C.ar      1 YM21298     0.0000 
      8 CAL       101.5660  260.8780  101.4550 C.ar      1 YM21298     0.0000 
      9 CAI       101.9240  262.4870  103.6800 C.ar      1 YM21298     0.0000 
     10 CAK       102.9800  262.2830  102.8000 C.ar      1 YM21298     0.0000 
     11 CAZ       102.8100  261.4470  101.7030 C.ar      1 YM21298     0.0000 
     12 OAW       103.8520  261.1430  100.8820 O.3       1 YM21298     0.0000 
     13 CAN       105.0720  261.7790  101.2720 C.3       1 YM21298     0.0000 
     14 CAO       106.1460  261.4060  100.2500 C.3       1 YM21298     0.0000 
     15 CBB       107.4140  262.2090  100.5390 C.3       1 YM21298     0.0000 
     16 CAB       108.1400  261.5810  101.7310 C.3       1 YM21298     0.0000 
     17 CAP       108.3220  262.1340   99.3110 C.3       1 YM21298     0.0000 
     18 CAQ       109.3240  263.2890   99.3600 C.3       1 YM21298     0.0000 
     19 NBC       110.2170  263.2630   98.1820 N.am      1 YM21298     0.0000 
     20 CAX       110.5140  264.2890   97.3870 C.2       1 YM21298     0.0000 
     21 OAC       110.0370  265.4130   97.5350 O.2       1 YM21298     0.0000 
     22 CAR       110.7740  262.0340   97.5800 C.3       1 YM21298     0.0000 
     23 CAS       111.9010  262.6130   96.7280 C.3       1 YM21298     0.0000 
     24 NBD       111.3870  263.9690   96.4330 N.am      1 YM21298     0.0000 
     25 CBA       111.8620  264.7520   95.4670 C.ar      1 YM21298     0.0000 
     26 CAG       112.8790  264.2820   94.6420 C.ar      1 YM21298     0.0000 
     27 CAE       113.4460  265.1090   93.6800 C.ar      1 YM21298     0.0000 
     28 NAU       112.9940  266.4260   93.5390 N.ar      1 YM21298     0.0000 
     29 CAF       111.9900  266.9060   94.3880 C.ar      1 YM21298     0.0000 
     30 CAH       111.4390  266.0710   95.3530 C.ar      1 YM21298     0.0000 
     31 H          95.8356  262.6806  104.2812 H         1 YM21298     0.0000 
     32 H          96.2800  261.2853  103.2835 H         1 YM21298     0.0000 
     33 H          99.7671  262.6428  105.1696 H         1 YM21298     0.0000 
     34 H          99.5966  260.6491  102.1525 H         1 YM21298     0.0000 
     35 H         101.4266  260.2997  100.6117 H         1 YM21298     0.0000 
     36 H         102.0522  263.0961  104.5024 H         1 YM21298     0.0000 
     37 H         103.8812  262.7476  102.9595 H         1 YM21298     0.0000 
     38 H         105.4103  261.4443  102.2510 H         1 YM21298     0.0000 
     39 H         104.9804  262.8637  101.2812 H         1 YM21298     0.0000 
     40 H         105.7917  261.6390   99.2550 H         1 YM21298     0.0000 
     41 H         106.3640  260.3495  100.3271 H         1 YM21298     0.0000 
     42 H         107.1698  263.2092  100.7475 H         1 YM21298     0.0000 
     43 H         107.7229  262.2162   98.4152 H         1 YM21298     0.0000 
     44 H         108.8565  261.1946   99.3158 H         1 YM21298     0.0000 
     45 H         109.9057  263.2031  100.2832 H         1 YM21298     0.0000 
     46 H         108.7657  264.2297   99.3963 H         1 YM21298     0.0000 
     47 H         110.0694  261.5630   96.9505 H         1 YM21298     0.0000 
     48 H         111.1861  261.3999   98.3167 H         1 YM21298     0.0000 
     49 H         111.9980  262.0407   95.8434 H         1 YM21298     0.0000 
     50 H         112.7864  262.6576   97.3055 H         1 YM21298     0.0000 
     51 H         113.2143  263.3116   94.7459 H         1 YM21298     0.0000 
     52 H         114.1948  264.7590   93.0721 H         1 YM21298     0.0000 
     53 H         111.6637  267.8749   94.2946 H         1 YM21298     0.0000 
     54 H         110.7115  266.4327   95.9885 H         1 YM21298     0.0000 
     55 H          95.3848  259.8390  105.0527 H         1 YM21298     0.0000 
     56 H          94.9817  261.1052  105.9584 H         1 YM21298     0.0000 
     57 H          94.2455  260.8568  104.5504 H         1 YM21298     0.0000 
     58 H         108.3978  260.6318  101.5507 H         1 YM21298     0.0000 
     59 H         108.9797  262.0750  101.9567 H         1 YM21298     0.0000 
     60 H         107.5711  261.5791  102.5534 H         1 YM21298     0.0000 
@<TRIPOS>BOND
     1    2    1 1    
     2   55    1 1    
     3   56    1 1    
     4   57    1 1    
     5    3    2 1    
     6   31    2 1    
     7   32    2 1    
     8    4    3 1    
     9    5    4 2    
    10    6    5 1    
    11   33    5 1    
    12    7    6 ar   
    13    9    6 ar   
    14    8    7 ar   
    15   34    7 1    
    16   11    8 ar   
    17   35    8 1    
    18   10    9 ar   
    19   36    9 1    
    20   11   10 ar   
    21   37   10 1    
    22   12   11 1    
    23   13   12 1    
    24   14   13 1    
    25   38   13 1    
    26   39   13 1    
    27   15   14 1    
    28   40   14 1    
    29   41   14 1    
    30   16   15 1    
    31   17   15 1    
    32   42   15 1    
    33   58   16 1    
    34   59   16 1    
    35   60   16 1    
    36   18   17 1    
    37   43   17 1    
    38   44   17 1    
    39   19   18 1    
    40   45   18 1    
    41   46   18 1    
    42   20   19 am   
    43   22   19 1    
    44   21   20 2    
    45   24   20 am   
    46   23   22 1    
    47   47   22 1    
    48   48   22 1    
    49   24   23 1    
    50   49   23 1    
    51   50   23 1    
    52   25   24 1    
    53   26   25 ar   
    54   30   25 ar   
    55   27   26 ar   
    56   51   26 1    
    57   28   27 ar   
    58   52   27 1    
    59   29   28 ar   
    60   30   29 ar   
    61   53   29 1    
    62   54   30 1    
@<TRIPOS>SUBSTRUCTURE
     1 YM21298     1 GROUP   
@<TRIPOS>SET

