#    Name: 3e6l_A11_2_INTS_M
#    Modification time : Tue Mar 25 00:59:54 2014

@<TRIPOS>MOLECULE
3e6l_A11_2_INTS_M
   45     0     9     0     0
SMALL
NO_CHARGES


@<TRIPOS>ATOM
      1 CA        125.7690  110.1870   94.0325 C.3       3 GLC5        0.0000 
      2 CA        125.7610  111.9640   94.3640 C.3       9 GLL5        0.0000 
      3 CA        125.7770  108.4100   93.7010 C.3       6 GLP5        0.0000 
      4 CA        123.9950  111.4165   94.1595 C.3       3 GLC5        0.0000 
      5 CA        122.2290  110.8690   93.9550 C.3       6 GLP5        0.0000 
      6 CA        124.0410  112.6300   95.6075 C.3       3 GLC5        0.0000 
      7 CA        122.3210  113.2960   96.8510 C.3       6 GLP5        0.0000 
      8 CA        124.0645  113.9040   96.0445 C.3       3 GLC5        0.0000 
      9 CA        125.8080  114.5120   95.2380 C.3       9 GLL5        0.0000 
     10 N         127.1455  117.6645   93.9875 N.am      2 SEC2        0.0000 
     11 N         126.7790  116.3510   93.9420 N.am      8 SEL2        0.0000 
     12 N         127.5120  118.9780   94.0330 N.am      5 SEP2        0.0000 
     13 O         128.2345  117.2190   92.0330 O.2       1 ALC1        0.0000 
     14 O         127.7190  115.9320   91.7930 O.2       7 ALL1        0.0000 
     15 O         128.7500  118.5060   92.2730 O.2       4 ALP1        0.0000 
     16 CA        125.0980  117.8840   89.7245 C.3       3 GLC5        0.0000 
     17 CA        126.1280  116.0800   89.2700 C.3       9 GLL5        0.0000 
     18 CA        124.0680  119.6880   90.1790 C.3       6 GLP5        0.0000 
     19 N         125.1145  117.7145   85.8350 N.am      2 SEC2        0.0000 
     20 N         125.8870  116.8620   86.5570 N.am      8 SEL2        0.0000 
     21 N         124.3420  118.5670   85.1130 N.am      5 SEP2        0.0000 
     22 N         127.3765  119.0235   87.4995 N.am      2 SEC2        0.0000 
     23 N         127.9450  117.9090   86.6560 N.am      8 SEL2        0.0000 
     24 N         126.8080  120.1380   88.3430 N.am      5 SEP2        0.0000 
     25 CA        126.5270  120.0865   85.2185 C.3       3 GLC5        0.0000 
     26 CA        127.8820  118.3070   85.3040 C.3       9 GLL5        0.0000 
     27 CA        125.1720  121.8660   85.1330 C.3       6 GLP5        0.0000 
     28 CA        124.3143  115.8137   94.2263 C.3       3 GLC5        0.0000 
     29 CA        126.1290  115.8890   95.1010 C.3       9 GLL5        0.0000 
     30 CA        122.6600  116.4270   93.2830 C.3       6 GLP5        0.0000 
     31 CA        125.1754  115.6058   92.6946 C.3       3 GLC5        0.0000 
     32 CA        127.1060  115.4470   92.9150 C.3       9 GLL5        0.0000 
     33 CA        123.5640  116.5590   92.1150 C.3       6 GLP5        0.0000 
     34 CA        127.0149  112.2094   92.3325 C.3       3 GLC5        0.0000 
     35 CA        126.7870  114.0830   93.0570 C.3       9 GLL5        0.0000 
     36 CA        127.6590  110.9780   90.9930 C.3       6 GLP5        0.0000 
     37 CA        127.5580  112.9827   90.6080 C.3       3 GLC5        0.0000 
     38 CA        128.0990  115.1520   90.6310 C.3       9 GLL5        0.0000 
     39 CA        126.3758  114.6578   87.8822 C.3       3 GLC5        0.0000 
     40 CA        126.8150  114.8230   89.8150 C.3       9 GLL5        0.0000 
     41 CA        126.2800  113.8640   86.2220 C.3       6 GLP5        0.0000 
     42 CA        124.6372  115.6303   90.2883 C.3       3 GLC5        0.0000 
     43 CA        122.8030  115.8090   91.0340 C.3       6 GLP5        0.0000 
     44 CA        127.2260  117.8317   83.8040 C.3       3 GLC5        0.0000 
     45 CA        125.8410  117.2810   82.5350 C.3       6 GLP5        0.0000 
@<TRIPOS>BOND
@<TRIPOS>SUBSTRUCTURE
     1 ALC1       13 GROUP        1 X    ALC  0     ROOT ALC X 1
     2 SEC2       10 GROUP        1 X    SEC  0     **** SEC X 2
     3 GLC5        1 GROUP        1 X    GLC  0     **** GLC X 6
     4 ALP1       15 GROUP        1 Y    ALP  0     ROOT ALP Y 8
     5 SEP2       12 GROUP        1 Y    SEP  0     **** SEP Y 9
     6 GLP5        3 GROUP        1 Y    GLP  0     **** GLP Y 13
     7 ALL1       14 GROUP        1 Z    ALL  0     ROOT ALL Z 15
     8 SEL2       11 GROUP        1 Z    SEL  0     **** SEL Z 16
     9 GLL5        2 GROUP        1 Z    GLL  0     **** GLL Z 20
@<TRIPOS>SET

