#    Name: 3e6l_A11_2_ligand
#    Modification time : Tue Mar 25 00:59:54 2014

@<TRIPOS>MOLECULE
3e6l_A11_2_ligand
   37    38     1     0     0
SMALL
NO_CHARGES


@<TRIPOS>ATOM
      1 CL        125.7610  111.9640   94.3640 Cl        1 A111906     0.0000 
      2 C2        126.1480  113.6330   94.2100 C.ar      1 A111906     0.0000 
      3 C3        125.8080  114.5120   95.2380 C.ar      1 A111906     0.0000 
      4 C4        126.1290  115.8890   95.1010 C.ar      1 A111906     0.0000 
      5 N5        126.7790  116.3510   93.9420 N.ar      1 A111906     0.0000 
      6 C6        127.1060  115.4470   92.9150 C.ar      1 A111906     0.0000 
      7 C7        126.7870  114.0830   93.0570 C.ar      1 A111906     0.0000 
      8 N8        127.7190  115.9320   91.7930 N.pl3     1 A111906     0.0000 
      9 C9        128.0990  115.1520   90.6310 C.3       1 A111906     0.0000 
     10 C10       126.8150  114.8230   89.8150 C.3       1 A111906     0.0000 
     11 C11       126.1280  116.0800   89.2700 C.3       1 A111906     0.0000 
     12 N12       127.1010  116.8700   88.4710 N.am      1 A111906     0.0000 
     13 C13       128.3000  117.2430   89.2540 C.3       1 A111906     0.0000 
     14 C14       129.0090  116.0060   89.7570 C.3       1 A111906     0.0000 
     15 C15       126.9370  117.2110   87.1760 C.2       1 A111906     0.0000 
     16 O16       125.8870  116.8620   86.5570 O.2       1 A111906     0.0000 
     17 O17       127.9450  117.9090   86.6560 O.3       1 A111906     0.0000 
     18 C18       127.8820  118.3070   85.3040 C.3       1 A111906     0.0000 
     19 C19       129.3400  118.4580   84.8420 C.3       1 A111906     0.0000 
     20 H         125.3379  114.1843   96.0765 H         1 A111906     0.0000 
     21 H         125.8848  116.5404   95.8491 H         1 A111906     0.0000 
     22 H         127.0279  113.4261   92.3077 H         1 A111906     0.0000 
     23 H         127.9511  116.9690   91.7366 H         1 A111906     0.0000 
     24 H         128.5814  114.2563   90.8848 H         1 A111906     0.0000 
     25 H         126.1218  114.2820   90.4631 H         1 A111906     0.0000 
     26 H         127.0907  114.1701   88.9837 H         1 A111906     0.0000 
     27 H         125.7603  116.6659   90.1090 H         1 A111906     0.0000 
     28 H         125.2868  115.7754   88.6520 H         1 A111906     0.0000 
     29 H         128.0145  117.8612   90.1108 H         1 A111906     0.0000 
     30 H         128.9920  117.8206   88.6333 H         1 A111906     0.0000 
     31 H         129.3491  115.4084   88.9053 H         1 A111906     0.0000 
     32 H         129.8885  116.3003   90.3384 H         1 A111906     0.0000 
     33 H         127.3962  119.2648   85.1719 H         1 A111906     0.0000 
     34 H         127.4134  117.5652   84.6708 H         1 A111906     0.0000 
     35 H         129.8305  119.1444   85.3789 H         1 A111906     0.0000 
     36 H         129.8476  117.6007   84.9283 H         1 A111906     0.0000 
     37 H         129.3989  118.7383   83.8839 H         1 A111906     0.0000 
@<TRIPOS>BOND
     1    2    1 1    
     2    3    2 ar   
     3    7    2 ar   
     4    4    3 ar   
     5   20    3 1    
     6    5    4 ar   
     7   21    4 1    
     8    6    5 ar   
     9    7    6 ar   
    10    8    6 1    
    11   22    7 1    
    12    9    8 1    
    13   23    8 1    
    14   10    9 1    
    15   14    9 1    
    16   24    9 1    
    17   11   10 1    
    18   25   10 1    
    19   26   10 1    
    20   12   11 1    
    21   27   11 1    
    22   28   11 1    
    23   13   12 1    
    24   15   12 am   
    25   14   13 1    
    26   29   13 1    
    27   30   13 1    
    28   31   14 1    
    29   32   14 1    
    30   16   15 2    
    31   17   15 1    
    32   18   17 1    
    33   19   18 1    
    34   33   18 1    
    35   34   18 1    
    36   35   19 1    
    37   36   19 1    
    38   37   19 1    
@<TRIPOS>SUBSTRUCTURE
     1 A111906     1 GROUP   
@<TRIPOS>SET

