#    Name: 3oki_OKI_2_INTS_M
#    Modification time : Tue Mar 25 04:48:43 2014

@<TRIPOS>MOLECULE
3oki_OKI_2_INTS_M
   80     0     6     0     0
SMALL
NO_CHARGES


@<TRIPOS>ATOM
      1 N          11.7540   53.7060   39.7930 N.am      1 SEC2        0.0000 
      2 N          11.8630   53.3200   41.1100 N.am      5 SEL2        0.0000 
      3 N          11.6450   54.0920   38.4760 N.am      3 SEP2        0.0000 
      4 CA         14.4935   55.6445   44.5680 C.3       2 GLC5        0.0000 
      5 CA         13.5770   53.9070   44.3160 C.3       6 GLL5        0.0000 
      6 CA         15.4100   57.3820   44.8200 C.3       4 GLP5        0.0000 
      7 CA         18.0205   53.3720   44.9825 C.3       2 GLC5        0.0000 
      8 CA         17.1950   53.0750   43.2620 C.3       6 GLL5        0.0000 
      9 CA         18.8460   53.6690   46.7030 C.3       4 GLP5        0.0000 
     10 CA         15.9250   57.6690   41.1650 C.3       2 GLC5        0.0000 
     11 CA         13.8270   57.5420   41.4300 C.3       6 GLL5        0.0000 
     12 CA         18.0230   57.7960   40.9000 C.3       4 GLP5        0.0000 
     13 CA         10.0675   59.2520   41.9135 C.3       2 GLC5        0.0000 
     14 CA         11.5750   57.7550   42.3270 C.3       6 GLL5        0.0000 
     15 CA          8.5600   60.7490   41.5000 C.3       4 GLP5        0.0000 
     16 CA         13.8585   59.8825   43.5950 C.3       2 GLC5        0.0000 
     17 CA         12.8880   60.0250   41.7650 C.3       6 GLL5        0.0000 
     18 CA         14.8290   59.7400   45.4250 C.3       4 GLP5        0.0000 
     19 CA         13.3480   59.6960   39.8355 C.3       2 GLC5        0.0000 
     20 CA         13.8080   59.3670   37.9060 C.3       4 GLP5        0.0000 
     21 CA         10.7240   60.3870   41.6325 C.3       2 GLC5        0.0000 
     22 CA         11.9610   60.9830   40.3275 C.3       2 GLC5        0.0000 
     23 CA         11.0340   61.9410   38.8900 C.3       4 GLP5        0.0000 
     24 CA         13.9880   61.5940   42.8110 C.3       2 GLC5        0.0000 
     25 CA         15.0880   63.1630   43.8570 C.3       4 GLP5        0.0000 
     26 CA         11.9980   60.2395   43.6425 C.3       2 GLC5        0.0000 
     27 CA         11.1080   60.4540   45.5200 C.3       4 GLP5        0.0000 
     28 CA         14.2975   56.0855   45.7190 C.3       2 GLC5        0.0000 
     29 CA         13.1850   54.7890   46.6180 C.3       6 GLL5        0.0000 
     30 CA         13.8265   53.9465   49.2560 C.3       2 GLC5        0.0000 
     31 CA         12.4570   54.5880   47.9300 C.3       6 GLL5        0.0000 
     32 CA         15.1960   53.3050   50.5820 C.3       4 GLP5        0.0000 
     33 CA         10.4400   51.4730   42.7100 C.3       2 GLC5        0.0000 
     34 CA         11.9880   52.0000   41.5900 C.3       6 GLL5        0.0000 
     35 CA          8.5540   50.9410   43.1870 C.3       4 GLP5        0.0000 
     36 CA         14.2685   56.6210   43.2790 C.3       2 GLC5        0.0000 
     37 CA         12.5390   55.5640   41.9760 C.3       6 GLL5        0.0000 
     38 CA         10.8747   56.6345   40.5557 C.3       2 GLC5        0.0000 
     39 CA          9.7450   57.3040   38.9270 C.3       4 GLP5        0.0000 
     40 CA         14.3503   57.6605   43.2290 C.3       2 GLC5        0.0000 
     41 CA         10.9548   57.6748   40.5067 C.3       2 GLC5        0.0000 
     42 CA         12.7540   58.3360   41.8460 C.3       6 GLL5        0.0000 
     43 CA         14.1320   49.3660   44.5983 C.3       2 GLC5        0.0000 
     44 CA         12.9160   50.8220   43.5780 C.3       6 GLL5        0.0000 
     45 CA         15.5580   48.5030   45.9090 C.3       4 GLP5        0.0000 
     46 CA         12.0785   49.8950   45.0373 C.3       2 GLC5        0.0000 
     47 CA         11.4510   49.5610   46.7870 C.3       4 GLP5        0.0000 
     48 CA         10.6300   50.5850   43.2373 C.3       2 GLC5        0.0000 
     49 CA         13.2580   51.9263   40.2982 C.3       2 GLC5        0.0000 
     50 CA         11.5800   50.7760   41.0340 C.3       6 GLL5        0.0000 
     51 CA         14.5630   52.4620   38.9630 C.3       4 GLP5        0.0000 
     52 CA         10.9890   49.1735   39.8498 C.3       2 GLC5        0.0000 
     53 CA         10.2670   48.1500   38.3070 C.3       4 GLP5        0.0000 
     54 CA         10.1325   50.5690   42.2897 C.3       2 GLC5        0.0000 
     55 CA          9.4090   52.5763   45.2225 C.3       2 GLC5        0.0000 
     56 CA         11.3250   53.6070   45.4270 C.3       6 GLL5        0.0000 
     57 CA          7.8700   51.6060   44.3640 C.3       4 GLP5        0.0000 
     58 CA         18.5275   54.9730   41.0520 C.3       2 GLC5        0.0000 
     59 CA         18.0390   53.8650   42.2440 C.3       6 GLL5        0.0000 
     60 CA         18.3070   56.3450   39.8730 C.3       4 GLP5        0.0000 
     61 CA         18.1052   49.8670   43.7395 C.3       2 GLC5        0.0000 
     62 CA         17.1860   51.6030   42.8050 C.3       6 GLL5        0.0000 
     63 CA         18.3200   48.4110   44.7010 C.3       4 GLP5        0.0000 
     64 CA         17.4678   49.6725   42.1190 C.3       2 GLC5        0.0000 
     65 CA         18.5950   51.0430   42.7510 C.3       6 GLL5        0.0000 
     66 CA         17.0450   48.0220   41.4600 C.3       4 GLP5        0.0000 
     67 CA         13.3190   48.0515   42.0430 C.3       2 GLC5        0.0000 
     68 CA         12.4960   49.6360   42.9970 C.3       6 GLL5        0.0000 
     69 CA         14.4690   46.4760   41.7120 C.3       4 GLP5        0.0000 
     70 CA         10.9153   55.7335   49.3260 C.3       2 GLC5        0.0000 
     71 CA         10.1220   56.8900   50.8270 C.3       4 GLP5        0.0000 
     72 CA         11.3874   51.5621   46.4614 C.3       2 GLC5        0.0000 
     73 CA         10.5710   53.4860   46.7350 C.3       6 GLL5        0.0000 
     74 CA          9.2877   55.3265   47.1997 C.3       2 GLC5        0.0000 
     75 CA          7.8100   56.6270   47.1720 C.3       4 GLP5        0.0000 
     76 CA         19.4443   50.6483   40.5517 C.3       2 GLC5        0.0000 
     77 CA         19.8570   49.8390   38.8120 C.3       4 GLP5        0.0000 
     78 CA         21.2142   53.2538   42.0570 C.3       2 GLC5        0.0000 
     79 CA         19.4680   51.8720   41.8320 C.3       6 GLL5        0.0000 
     80 CA         22.9660   53.9030   42.0890 C.3       4 GLP5        0.0000 
@<TRIPOS>BOND
@<TRIPOS>SUBSTRUCTURE
     1 SEC2        1 GROUP        1 X    SEC  0     ROOT SEC X 2
     2 GLC5        4 GROUP        1 X    GLC  0     **** GLC X 6
     3 SEP2        3 GROUP        1 Y    SEP  0     ROOT SEP Y 9
     4 GLP5        6 GROUP        1 Y    GLP  0     **** GLP Y 13
     5 SEL2        2 GROUP        1 Z    SEL  0     ROOT SEL Z 16
     6 GLL5        5 GROUP        1 Z    GLL  0     **** GLL Z 20
@<TRIPOS>SET

