#    Name: 3oki_OKI_2_ligand
#    Modification time : Tue Mar 25 04:48:43 2014

@<TRIPOS>MOLECULE
3oki_OKI_2_ligand
   64    68     1     0     0
SMALL
NO_CHARGES


@<TRIPOS>ATOM
      1 C1         12.4260   54.1030   42.0530 C.2       1 OKI1        0.0000 
      2 N2         12.9360   53.3610   43.1540 N.pl3     1 OKI1        0.0000 
      3 N3         11.8630   53.3200   41.1100 N.2       1 OKI1        0.0000 
      4 C4         15.0260   53.3520   44.4430 C.2       1 OKI1        0.0000 
      5 C5         13.5770   53.9070   44.3160 C.3       1 OKI1        0.0000 
      6 C6         12.6640   52.0100   42.8760 C.ar      1 OKI1        0.0000 
      7 C7         11.9880   52.0000   41.5900 C.ar      1 OKI1        0.0000 
      8 N8         15.8520   53.6070   43.3800 N.am      1 OKI1        0.0000 
      9 C9         12.5390   55.5640   41.9760 C.ar      1 OKI1        0.0000 
     10 O10        15.4150   52.7300   45.4480 O.2       1 OKI1        0.0000 
     11 C11        12.8280   53.6740   45.6460 C.3       1 OKI1        0.0000 
     12 C12        13.7150   56.1560   41.5000 C.ar      1 OKI1        0.0000 
     13 C13        11.4700   56.3660   42.3930 C.ar      1 OKI1        0.0000 
     14 C14        12.7540   58.3360   41.8460 C.ar      1 OKI1        0.0000 
     15 C15        17.1950   53.0750   43.2620 C.3       1 OKI1        0.0000 
     16 C16        13.8270   57.5420   41.4300 C.ar      1 OKI1        0.0000 
     17 C17        11.5750   57.7550   42.3270 C.ar      1 OKI1        0.0000 
     18 CL18       12.8880   60.0250   41.7650 Cl        1 OKI1        0.0000 
     19 C19        12.9160   50.8220   43.5780 C.ar      1 OKI1        0.0000 
     20 C20        11.5800   50.7760   41.0340 C.ar      1 OKI1        0.0000 
     21 C21        11.3250   53.6070   45.4270 C.3       1 OKI1        0.0000 
     22 C22        13.1850   54.7890   46.6180 C.3       1 OKI1        0.0000 
     23 C23        18.0390   53.8650   42.2440 C.3       1 OKI1        0.0000 
     24 C24        17.1860   51.6030   42.8050 C.3       1 OKI1        0.0000 
     25 C25        12.4960   49.6360   42.9970 C.ar      1 OKI1        0.0000 
     26 C26        11.8420   49.6180   41.7510 C.ar      1 OKI1        0.0000 
     27 C27        12.4570   54.5880   47.9300 C.3       1 OKI1        0.0000 
     28 C28        10.5710   53.4860   46.7350 C.3       1 OKI1        0.0000 
     29 C29        18.5950   51.0430   42.7510 C.3       1 OKI1        0.0000 
     30 C30        19.4570   53.3370   42.2180 C.3       1 OKI1        0.0000 
     31 C31        10.9600   54.5660   47.7200 C.3       1 OKI1        0.0000 
     32 C32        19.4680   51.8720   41.8320 C.3       1 OKI1        0.0000 
     33 H          13.6972   55.0046   44.2082 H         1 OKI1        0.0000 
     34 H          15.5246   54.2165   42.5925 H         1 OKI1        0.0000 
     35 H          13.1692   52.7348   46.0602 H         1 OKI1        0.0000 
     36 H          14.4991   55.5604   41.2010 H         1 OKI1        0.0000 
     37 H          10.6115   55.9301   42.7463 H         1 OKI1        0.0000 
     38 H          17.7198   53.1117   44.2118 H         1 OKI1        0.0000 
     39 H          14.6823   57.9765   41.0791 H         1 OKI1        0.0000 
     40 H          10.7970   58.3472   42.6275 H         1 OKI1        0.0000 
     41 H          13.3855   50.8387   44.4710 H         1 OKI1        0.0000 
     42 H          11.1104   50.7490   40.1382 H         1 OKI1        0.0000 
     43 H          11.0928   52.7447   44.7931 H         1 OKI1        0.0000 
     44 H          10.9982   54.5108   44.9019 H         1 OKI1        0.0000 
     45 H          12.9005   55.7461   46.1863 H         1 OKI1        0.0000 
     46 H          14.2588   54.7829   46.7924 H         1 OKI1        0.0000 
     47 H          18.0405   54.9134   42.5293 H         1 OKI1        0.0000 
     48 H          17.5884   53.7617   41.2608 H         1 OKI1        0.0000 
     49 H          16.7297   51.5456   41.8179 H         1 OKI1        0.0000 
     50 H          16.5865   51.0227   43.5049 H         1 OKI1        0.0000 
     51 H          12.6632   48.7359   43.4844 H         1 OKI1        0.0000 
     52 H          11.5474   48.6973   41.3604 H         1 OKI1        0.0000 
     53 H          12.7156   55.3990   48.6150 H         1 OKI1        0.0000 
     54 H          12.7746   53.6438   48.3788 H         1 OKI1        0.0000 
     55 H          10.7725   52.5022   47.1779 H         1 OKI1        0.0000 
     56 H           9.4931   53.5474   46.5371 H         1 OKI1        0.0000 
     57 H          18.5608   50.0144   42.3884 H         1 OKI1        0.0000 
     58 H          19.0222   51.0436   43.7551 H         1 OKI1        0.0000 
     59 H          19.9062   53.4546   43.2041 H         1 OKI1        0.0000 
     60 H          20.0428   53.9057   41.4959 H         1 OKI1        0.0000 
     61 H          10.6324   55.5367   47.3414 H         1 OKI1        0.0000 
     62 H          10.4624   54.3819   48.6746 H         1 OKI1        0.0000 
     63 H          19.1106   51.7671   40.8018 H         1 OKI1        0.0000 
     64 H          20.4959   51.4954   41.8727 H         1 OKI1        0.0000 
@<TRIPOS>BOND
     1    2    1 1    
     2    3    1 2    
     3    9    1 1    
     4    5    2 1    
     5    6    2 1    
     6    7    3 1    
     7    5    4 1    
     8    8    4 am   
     9   10    4 2    
    10   11    5 1    
    11   33    5 1    
    12    7    6 ar   
    13   19    6 ar   
    14   20    7 ar   
    15   15    8 1    
    16   34    8 1    
    17   12    9 ar   
    18   13    9 ar   
    19   21   11 1    
    20   22   11 1    
    21   35   11 1    
    22   16   12 ar   
    23   36   12 1    
    24   17   13 ar   
    25   37   13 1    
    26   16   14 ar   
    27   17   14 ar   
    28   18   14 1    
    29   23   15 1    
    30   24   15 1    
    31   38   15 1    
    32   39   16 1    
    33   40   17 1    
    34   25   19 ar   
    35   41   19 1    
    36   26   20 ar   
    37   42   20 1    
    38   28   21 1    
    39   43   21 1    
    40   44   21 1    
    41   27   22 1    
    42   45   22 1    
    43   46   22 1    
    44   30   23 1    
    45   47   23 1    
    46   48   23 1    
    47   29   24 1    
    48   49   24 1    
    49   50   24 1    
    50   26   25 ar   
    51   51   25 1    
    52   52   26 1    
    53   31   27 1    
    54   53   27 1    
    55   54   27 1    
    56   31   28 1    
    57   55   28 1    
    58   56   28 1    
    59   32   29 1    
    60   57   29 1    
    61   58   29 1    
    62   32   30 1    
    63   59   30 1    
    64   60   30 1    
    65   61   31 1    
    66   62   31 1    
    67   63   32 1    
    68   64   32 1    
@<TRIPOS>SUBSTRUCTURE
     1 OKI1        1 GROUP   
@<TRIPOS>SET

