#    Name: 3kga_LX9_1_INTS_M
#    Modification time : Mon Mar 24 19:27:15 2014

@<TRIPOS>MOLECULE
3kga_LX9_1_INTS_M
   70     0     9     0     0
SMALL
NO_CHARGES


@<TRIPOS>ATOM
      1 N          38.8980    4.7895   11.8965 N.am      2 SEC2        0.0000 
      2 N          38.3930    5.6610   12.9880 N.am      8 SEL2        0.0000 
      3 N          39.4030    3.9180   10.8050 N.am      5 SEP2        0.0000 
      4 CA         38.3100    7.5350   13.6480 C.3       3 GLC5        0.0000 
      5 CA         38.6350    6.0300   15.1240 C.3       9 GLL5        0.0000 
      6 CA         37.9850    9.0400   12.1720 C.3       6 GLP5        0.0000 
      7 CA         39.5100    4.3935   13.9475 C.3       3 GLC5        0.0000 
      8 CA         40.3850    2.7570   12.7710 C.3       6 GLP5        0.0000 
      9 O          40.4490    7.8900   22.7190 O.2       1 ALC1        0.0000 
     10 O          39.7980    7.4320   21.4300 O.2       7 ALL1        0.0000 
     11 O          41.1000    8.3480   24.0080 O.2       4 ALP1        0.0000 
     12 CA         37.7075    7.6650   22.4410 C.3       3 GLC5        0.0000 
     13 CA         38.8600    6.3110   21.3990 C.3       9 GLL5        0.0000 
     14 CA         36.5550    9.0190   23.4830 C.3       6 GLP5        0.0000 
     15 N          41.1790   10.1900   21.0695 N.am      2 SEC2        0.0000 
     16 N          41.0820    8.9890   20.4180 N.am      8 SEL2        0.0000 
     17 N          41.2760   11.3910   21.7210 N.am      5 SEP2        0.0000 
     18 O          41.0205    6.7595   12.1635 O.2       1 ALC1        0.0000 
     19 O          40.3860    6.7030   13.4510 O.2       7 ALL1        0.0000 
     20 O          41.6550    6.8160   10.8760 O.2       4 ALP1        0.0000 
     21 CA         37.9520    3.6285   12.2590 C.3       3 GLC5        0.0000 
     22 CA         36.2140    4.6480   13.0980 C.3       9 GLL5        0.0000 
     23 CA         39.6900    2.6090   11.4200 C.3       6 GLP5        0.0000 
     24 CA         35.0475    6.9355    6.4820 C.3       3 GLC5        0.0000 
     25 CA         34.0570    6.8620    8.3050 C.3       9 GLL5        0.0000 
     26 CA         36.0380    7.0090    4.6590 C.3       6 GLP5        0.0000 
     27 O          35.3055    8.9000    8.2505 O.2       1 ALC1        0.0000 
     28 O          34.2510    8.0570    7.7130 O.2       7 ALL1        0.0000 
     29 O          36.3600    9.7430    8.7880 O.2       4 ALP1        0.0000 
     30 CA         34.8520    7.5545    5.6005 C.3       3 GLC5        0.0000 
     31 CA         33.6660    8.1000    6.5420 C.3       9 GLL5        0.0000 
     32 CA         34.0380    6.7145    4.9375 C.3       3 GLC5        0.0000 
     33 CA         33.0380    6.9340    6.2740 C.3       9 GLL5        0.0000 
     34 CA         35.0380    6.4950    3.6010 C.3       6 GLP5        0.0000 
     35 CA         35.4515    4.4090    8.6805 C.3       3 GLC5        0.0000 
     36 CA         33.3980    4.2980    9.0710 C.3       9 GLL5        0.0000 
     37 CA         37.5050    4.5200    8.2900 C.3       6 GLP5        0.0000 
     38 CA         37.3929    7.7588   15.7584 C.3       3 GLC5        0.0000 
     39 CA         37.4420    5.4620   14.9130 C.3       9 GLL5        0.0000 
     40 CA         36.2120    9.3980   15.7650 C.3       6 GLP5        0.0000 
     41 CA         38.1617    8.3138   18.5553 C.3       3 GLC5        0.0000 
     42 CA         39.2430    6.2550   18.8740 C.3       9 GLL5        0.0000 
     43 CA         36.7390    9.7600   18.1890 C.3       6 GLP5        0.0000 
     44 CA         38.3580    8.8635   17.6960 C.3       3 GLC5        0.0000 
     45 CA         40.1840    8.2140   17.8200 C.3       9 GLL5        0.0000 
     46 CA         41.2080    9.0975   16.2105 C.3       3 GLC5        0.0000 
     47 CA         42.4390   10.2280   15.2180 C.3       6 GLP5        0.0000 
     48 CA         41.5946    6.4044   18.6569 C.3       3 GLC5        0.0000 
     49 CA         43.3050    5.2680   18.9430 C.3       6 GLP5        0.0000 
     50 CA         39.5760    4.0380   18.6154 C.3       3 GLC5        0.0000 
     51 CA         38.8350    5.7750   17.6370 C.3       9 GLL5        0.0000 
     52 CA         40.1580    2.3550   18.0360 C.3       6 GLP5        0.0000 
     53 CA         34.7050    6.2340   12.4905 C.3       3 GLC5        0.0000 
     54 CA         33.4050    7.5860   12.5080 C.3       6 GLP5        0.0000 
     55 CA         36.3628    4.6885    9.9182 C.3       3 GLC5        0.0000 
     56 CA         35.7960    5.1160   11.8480 C.3       9 GLL5        0.0000 
     57 CA         33.9118    6.2190   11.5450 C.3       3 GLC5        0.0000 
     58 CA         34.6450    4.5980   11.2450 C.3       9 GLL5        0.0000 
     59 CA         33.6791    5.1264   13.2924 C.3       3 GLC5        0.0000 
     60 CA         33.9030    3.6240   11.9160 C.3       9 GLL5        0.0000 
     61 CA         32.5720    6.7210   13.4300 C.3       6 GLP5        0.0000 
     62 CA         33.8475    7.1128   10.7157 C.3       3 GLC5        0.0000 
     63 CA         34.5230    6.4170    9.5420 C.3       9 GLL5        0.0000 
     64 CA         35.8561    5.4159    8.6539 C.3       3 GLC5        0.0000 
     65 CA         32.2590    8.1775    7.6160 C.3       3 GLC5        0.0000 
     66 CA         31.1660    8.8380    8.8240 C.3       6 GLP5        0.0000 
     67 CA         32.4788    7.5914    8.5104 C.3       3 GLC5        0.0000 
     68 CA         33.2930    6.0500    7.4700 C.3       9 GLL5        0.0000 
     69 CA         33.8458    5.2145    5.7615 C.3       3 GLC5        0.0000 
     70 CA         34.5760    5.0310    3.8780 C.3       6 GLP5        0.0000 
@<TRIPOS>BOND
@<TRIPOS>SUBSTRUCTURE
     1 ALC1        9 GROUP        1 X    ALC  0     ROOT ALC X 1
     2 SEC2        1 GROUP        1 X    SEC  0     **** SEC X 2
     3 GLC5        4 GROUP        1 X    GLC  0     **** GLC X 6
     4 ALP1       11 GROUP        1 Y    ALP  0     ROOT ALP Y 8
     5 SEP2        3 GROUP        1 Y    SEP  0     **** SEP Y 9
     6 GLP5        6 GROUP        1 Y    GLP  0     **** GLP Y 13
     7 ALL1       10 GROUP        1 Z    ALL  0     ROOT ALL Z 15
     8 SEL2        2 GROUP        1 Z    SEL  0     **** SEL Z 16
     9 GLL5        5 GROUP        1 Z    GLL  0     **** GLL Z 20
@<TRIPOS>SET

