#    Name: 3kga_LX9_1_ligand
#    Modification time : Mon Mar 24 19:27:15 2014

@<TRIPOS>MOLECULE
3kga_LX9_1_ligand
   53    58     1     0     0
SMALL
NO_CHARGES


@<TRIPOS>ATOM
      1 N1         37.3020    5.2110   13.6380 N.pl3     1 LX9365      0.0000 
      2 N2         38.3930    5.6610   12.9880 N.2       1 LX9365      0.0000 
      3 C3         39.2390    6.1800   13.7920 C.2       1 LX9365      0.0000 
      4 C4         38.6350    6.0300   15.1240 C.2       1 LX9365      0.0000 
      5 C5         37.4420    5.4620   14.9130 C.2       1 LX9365      0.0000 
      6 C7         39.1090    6.4930   16.4850 C.ar      1 LX9365      0.0000 
      7 C8         38.8350    5.7750   17.6370 C.ar      1 LX9365      0.0000 
      8 C10        39.2430    6.2550   18.8740 C.ar      1 LX9365      0.0000 
      9 C11        39.9260    7.4800   18.9690 C.ar      1 LX9365      0.0000 
     10 C12        40.1840    8.2140   17.8200 C.ar      1 LX9365      0.0000 
     11 C14        39.7700    7.7200   16.5860 C.ar      1 LX9365      0.0000 
     12 C16        40.3390    8.0110   20.3300 C.2       1 LX9365      0.0000 
     13 N17        39.7980    7.4320   21.4300 N.am      1 LX9365      0.0000 
     14 C19        38.8600    6.3110   21.3990 C.3       1 LX9365      0.0000 
     15 C22        38.9490    5.4270   20.1340 C.3       1 LX9365      0.0000 
     16 O25        41.0820    8.9890   20.4180 O.2       1 LX9365      0.0000 
     17 N26        40.3860    6.7030   13.4510 N.pl3     1 LX9365      0.0000 
     18 C29        36.2140    4.6480   13.0980 C.ar      1 LX9365      0.0000 
     19 C30        35.7960    5.1160   11.8480 C.ar      1 LX9365      0.0000 
     20 C32        34.6450    4.5980   11.2450 C.ar      1 LX9365      0.0000 
     21 C33        33.9030    3.6240   11.9160 C.ar      1 LX9365      0.0000 
     22 C35        34.3160    3.1550   13.1670 C.ar      1 LX9365      0.0000 
     23 C37        35.4630    3.6740   13.7680 C.ar      1 LX9365      0.0000 
     24 C39        34.1920    5.1060    9.9190 C.ar      1 LX9365      0.0000 
     25 C40        34.5230    6.4170    9.5420 C.ar      1 LX9365      0.0000 
     26 C42        34.0570    6.8620    8.3050 C.ar      1 LX9365      0.0000 
     27 N43        34.2510    8.0570    7.7130 N.pl3     1 LX9365      0.0000 
     28 C45        33.6660    8.1000    6.5420 C.2       1 LX9365      0.0000 
     29 C47        33.0380    6.9340    6.2740 C.2       1 LX9365      0.0000 
     30 C49        33.2930    6.0500    7.4700 C.ar      1 LX9365      0.0000 
     31 C50        32.9380    4.7460    7.8200 C.ar      1 LX9365      0.0000 
     32 C52        33.3980    4.2980    9.0710 C.ar      1 LX9365      0.0000 
     33 H          36.7863    5.2709   15.6185 H         1 LX9365      0.0000 
     34 H          38.3259    4.8800   17.5773 H         1 LX9365      0.0000 
     35 H          40.6745    9.1114   17.8771 H         1 LX9365      0.0000 
     36 H          39.9537    8.2686   15.7284 H         1 LX9365      0.0000 
     37 H          40.0441    7.7839   22.3942 H         1 LX9365      0.0000 
     38 H          37.8124    6.6747   21.4757 H         1 LX9365      0.0000 
     39 H          39.0132    5.6478   22.2779 H         1 LX9365      0.0000 
     40 H          39.7418    4.6910   20.2735 H         1 LX9365      0.0000 
     41 H          38.0028    4.9000   20.0051 H         1 LX9365      0.0000 
     42 H          40.6219    6.6517   12.4806 H         1 LX9365      0.0000 
     43 H          40.9231    7.1068   14.1916 H         1 LX9365      0.0000 
     44 H          36.3390    5.8466   11.3684 H         1 LX9365      0.0000 
     45 H          33.0459    3.2480   11.4877 H         1 LX9365      0.0000 
     46 H          33.7716    2.4253   13.6442 H         1 LX9365      0.0000 
     47 H          35.7557    3.3469   14.6919 H         1 LX9365      0.0000 
     48 H          35.0736    7.0076   10.1420 H         1 LX9365      0.0000 
     49 H          34.7703    8.7916    8.1261 H         1 LX9365      0.0000 
     50 H          33.6698    8.8698    5.9213 H         1 LX9365      0.0000 
     51 H          32.5427    6.6491    5.5543 H         1 LX9365      0.0000 
     52 H          32.3920    4.1642    7.2231 H         1 LX9365      0.0000 
     53 H          33.1482    3.3411    9.3870 H         1 LX9365      0.0000 
@<TRIPOS>BOND
     1    2    1 1    
     2    5    1 1    
     3   18    1 1    
     4    3    2 2    
     5    4    3 1    
     6   17    3 1    
     7    5    4 2    
     8    6    4 1    
     9   33    5 1    
    10    7    6 ar   
    11   11    6 ar   
    12    8    7 ar   
    13   34    7 1    
    14    9    8 ar   
    15   15    8 1    
    16   10    9 ar   
    17   12    9 1    
    18   11   10 ar   
    19   35   10 1    
    20   36   11 1    
    21   13   12 am   
    22   16   12 2    
    23   14   13 1    
    24   37   13 1    
    25   15   14 1    
    26   38   14 1    
    27   39   14 1    
    28   40   15 1    
    29   41   15 1    
    30   42   17 1    
    31   43   17 1    
    32   19   18 ar   
    33   23   18 ar   
    34   20   19 ar   
    35   44   19 1    
    36   21   20 ar   
    37   24   20 1    
    38   22   21 ar   
    39   45   21 1    
    40   23   22 ar   
    41   46   22 1    
    42   47   23 1    
    43   25   24 ar   
    44   32   24 ar   
    45   26   25 ar   
    46   48   25 1    
    47   27   26 1    
    48   30   26 ar   
    49   28   27 1    
    50   49   27 1    
    51   29   28 2    
    52   50   28 1    
    53   30   29 1    
    54   51   29 1    
    55   31   30 ar   
    56   32   31 ar   
    57   52   31 1    
    58   53   32 1    
@<TRIPOS>SUBSTRUCTURE
     1 LX9365      1 GROUP   
@<TRIPOS>SET

