#    Name: 1tz8_DES_1_INTS_M
#    Modification time : Tue Mar 25 05:52:34 2014

@<TRIPOS>MOLECULE
1tz8_DES_1_INTS_M
   68     0     9     0     0
SMALL
NO_CHARGES


@<TRIPOS>ATOM
      1 CA         16.5950   65.4935   37.4825 C.3       3 GLC5        0.0000 
      2 CA         15.8960   63.5110   37.0920 C.3       9 GLL5        0.0000 
      3 CA         17.2940   67.4760   37.8730 C.3       6 GLP5        0.0000 
      4 CA         17.1770   63.4800   38.6340 C.3       3 GLC5        0.0000 
      5 CA         18.4580   63.4490   40.1760 C.3       6 GLP5        0.0000 
      6 CA         17.2545   59.5590   37.9155 C.3       3 GLC5        0.0000 
      7 CA         18.5620   60.5690   36.5240 C.3       9 GLL5        0.0000 
      8 CA         15.9470   58.5490   39.3070 C.3       6 GLP5        0.0000 
      9 N          22.4600   62.7065   37.8000 N.am      2 SEC2        0.0000 
     10 N          21.8580   61.4390   37.7810 N.am      8 SEL2        0.0000 
     11 N          23.0620   63.9740   37.8190 N.am      5 SEP2        0.0000 
     12 O          22.2795   60.2395   38.1385 O.2       1 ALC1        0.0000 
     13 O          21.8580   61.4390   37.7810 O.2       7 ALL1        0.0000 
     14 O          22.7010   59.0400   38.4960 O.2       4 ALP1        0.0000 
     15 CA         19.2225   63.6990   34.0585 C.3       3 GLC5        0.0000 
     16 CA         18.9360   62.9190   36.1260 C.3       9 GLL5        0.0000 
     17 CA         19.5090   64.4790   31.9910 C.3       6 GLP5        0.0000 
     18 CA         12.9535   61.0220   30.7730 C.3       3 GLC5        0.0000 
     19 CA         13.4230   62.5160   32.1200 C.3       9 GLL5        0.0000 
     20 CA         12.4840   59.5280   29.4260 C.3       6 GLP5        0.0000 
     21 N           9.9275   62.2425   33.4190 N.am      2 SEC2        0.0000 
     22 N          11.1180   61.8350   32.4560 N.am      8 SEL2        0.0000 
     23 N           8.7370   62.6500   34.3820 N.am      5 SEP2        0.0000 
     24 CA         14.7105   59.1890   34.7875 C.3       3 GLC5        0.0000 
     25 CA         14.1380   61.0480   34.3610 C.3       9 GLL5        0.0000 
     26 CA         15.2830   57.3300   35.2140 C.3       6 GLP5        0.0000 
     27 CA         13.6255   61.1355   36.4485 C.3       3 GLC5        0.0000 
     28 CA         13.1130   61.2230   38.5360 C.3       6 GLP5        0.0000 
     29 CA         18.5915   62.8675   32.6165 C.3       3 GLC5        0.0000 
     30 CA         17.6740   61.2560   33.2420 C.3       9 GLL5        0.0000 
     31 CA         16.5515   58.5385   34.2705 C.3       3 GLC5        0.0000 
     32 CA         17.8200   59.7470   33.3270 C.3       9 GLL5        0.0000 
     33 CA         18.5415   57.6310   33.5760 C.3       3 GLC5        0.0000 
     34 CA         19.2630   55.5150   33.8250 C.3       6 GLP5        0.0000 
     35 CA         14.4303   62.0475   37.6257 C.3       3 GLC5        0.0000 
     36 CA         15.5990   62.2330   36.3390 C.3       9 GLL5        0.0000 
     37 CA         15.8972   64.3155   35.2413 C.3       3 GLC5        0.0000 
     38 CA         16.0470   65.7590   33.7670 C.3       6 GLP5        0.0000 
     39 CA         16.3445   63.7598   34.2805 C.3       3 GLC5        0.0000 
     40 CA         16.7550   61.8740   35.4350 C.3       9 GLL5        0.0000 
     41 CA         20.4145   60.0740   35.1268 C.3       3 GLC5        0.0000 
     42 CA         21.6420   59.6300   33.4380 C.3       6 GLP5        0.0000 
     43 CA         21.8298   59.8135   37.2612 C.3       3 GLC5        0.0000 
     44 CA         19.8120   60.4670   37.1070 C.3       9 GLL5        0.0000 
     45 CA         23.4390   58.6060   37.3730 C.3       6 GLP5        0.0000 
     46 CA         19.6355   61.1107   38.9314 C.3       3 GLC5        0.0000 
     47 CA         20.6290   61.5750   37.1920 C.3       9 GLL5        0.0000 
     48 CA         19.3630   61.1750   40.8590 C.3       6 GLP5        0.0000 
     49 CA         21.5312   63.3372   38.0120 C.3       3 GLC5        0.0000 
     50 CA         22.6490   64.4830   39.0730 C.3       6 GLP5        0.0000 
     51 CA         18.9114   63.0149   38.2848 C.3       3 GLC5        0.0000 
     52 CA         20.1980   62.8080   36.7100 C.3       9 GLL5        0.0000 
     53 CA         21.0459   62.2676   35.1492 C.3       3 GLC5        0.0000 
     54 CA         22.4170   61.9800   33.7600 C.3       6 GLP5        0.0000 
     55 CA         16.3490   61.6400   32.1140 C.3       3 GLC5        0.0000 
     56 CA         16.5290   61.6470   34.1530 C.3       9 GLL5        0.0000 
     57 CA         16.8760   61.5870   30.3230 C.3       6 GLP5        0.0000 
     58 CA         15.4845   62.0430   31.3242 C.3       3 GLC5        0.0000 
     59 CA         14.7630   62.4820   32.5310 C.3       9 GLL5        0.0000 
     60 CA         15.1140   64.0361   33.1870 C.3       3 GLC5        0.0000 
     61 CA         12.4542   59.9520   31.9432 C.3       3 GLC5        0.0000 
     62 CA         12.4470   61.8160   32.8340 C.3       9 GLL5        0.0000 
     63 CA         12.2800   58.4540   30.4930 C.3       6 GLP5        0.0000 
     64 CA         11.7918   62.8780   33.9065 C.3       3 GLC5        0.0000 
     65 CA         12.8100   61.0840   33.9530 C.3       9 GLL5        0.0000 
     66 CA         10.7110   64.1310   34.5980 C.3       6 GLP5        0.0000 
     67 CA         17.3115   61.0443   31.8038 C.3       3 GLC5        0.0000 
     68 CA         19.6945   60.0658   33.3612 C.3       3 GLC5        0.0000 
@<TRIPOS>BOND
@<TRIPOS>SUBSTRUCTURE
     1 ALC1       12 GROUP        1 X    ALC  0     ROOT ALC X 1
     2 SEC2        9 GROUP        1 X    SEC  0     **** SEC X 2
     3 GLC5        1 GROUP        1 X    GLC  0     **** GLC X 6
     4 ALP1       14 GROUP        1 Y    ALP  0     ROOT ALP Y 8
     5 SEP2       11 GROUP        1 Y    SEP  0     **** SEP Y 9
     6 GLP5        3 GROUP        1 Y    GLP  0     **** GLP Y 13
     7 ALL1       13 GROUP        1 Z    ALL  0     ROOT ALL Z 15
     8 SEL2       10 GROUP        1 Z    SEL  0     **** SEL Z 16
     9 GLL5        2 GROUP        1 Z    GLL  0     **** GLL Z 20
@<TRIPOS>SET

