#    Name: 1tz8_DES_1_ligand
#    Modification time : Tue Mar 25 05:52:34 2014

@<TRIPOS>MOLECULE
1tz8_DES_1_ligand
   40    41     1     0     0
SMALL
NO_CHARGES


@<TRIPOS>ATOM
      1 CP9        15.8960   63.5110   37.0920 C.3       1 DES128      0.0000 
      2 CP8        15.5990   62.2330   36.3390 C.3       1 DES128      0.0000 
      3 CP7        16.7550   61.8740   35.4350 C.2       1 DES128      0.0000 
      4 CP6        18.1270   61.7880   36.0280 C.ar      1 DES128      0.0000 
      5 CP1        18.5620   60.5690   36.5240 C.ar      1 DES128      0.0000 
      6 CP2        19.8120   60.4670   37.1070 C.ar      1 DES128      0.0000 
      7 CP3        20.6290   61.5750   37.1920 C.ar      1 DES128      0.0000 
      8 OP3        21.8580   61.4390   37.7810 O.3       1 DES128      0.0000 
      9 CP4        20.1980   62.8080   36.7100 C.ar      1 DES128      0.0000 
     10 CP5        18.9360   62.9190   36.1260 C.ar      1 DES128      0.0000 
     11 C7         16.5290   61.6470   34.1530 C.2       1 DES128      0.0000 
     12 C6         15.1150   61.7390   33.6570 C.ar      1 DES128      0.0000 
     13 C5         14.7630   62.4820   32.5310 C.ar      1 DES128      0.0000 
     14 C4         13.4230   62.5160   32.1200 C.ar      1 DES128      0.0000 
     15 C3         12.4470   61.8160   32.8340 C.ar      1 DES128      0.0000 
     16 O3         11.1180   61.8350   32.4560 O.3       1 DES128      0.0000 
     17 C2         12.8100   61.0840   33.9530 C.ar      1 DES128      0.0000 
     18 C1         14.1380   61.0480   34.3610 C.ar      1 DES128      0.0000 
     19 C8         17.6740   61.2560   33.2420 C.3       1 DES128      0.0000 
     20 C9         17.8200   59.7470   33.3270 C.3       1 DES128      0.0000 
     21 H          14.6973   62.3665   35.7405 H         1 DES128      0.0000 
     22 H          15.4294   61.4245   37.0507 H         1 DES128      0.0000 
     23 H          17.9537   59.7404   36.4578 H         1 DES128      0.0000 
     24 H          20.1327   59.5589   37.4789 H         1 DES128      0.0000 
     25 H          20.8044   63.6313   36.7833 H         1 DES128      0.0000 
     26 H          18.6082   63.8209   35.7736 H         1 DES128      0.0000 
     27 H          15.4724   62.9982   32.0077 H         1 DES128      0.0000 
     28 H          13.1592   63.0596   31.2884 H         1 DES128      0.0000 
     29 H          12.0963   60.5654   34.4842 H         1 DES128      0.0000 
     30 H          14.4006   60.5007   35.1977 H         1 DES128      0.0000 
     31 H          18.5824   61.7262   33.5768 H         1 DES128      0.0000 
     32 H          17.4468   61.5404   32.2292 H         1 DES128      0.0000 
     33 H          16.7147   63.4258   37.6598 H         1 DES128      0.0000 
     34 H          16.0482   64.2806   36.4719 H         1 DES128      0.0000 
     35 H          15.1438   63.7679   37.6988 H         1 DES128      0.0000 
     36 H          18.5621   59.4124   32.7462 H         1 DES128      0.0000 
     37 H          18.0186   59.4450   34.2594 H         1 DES128      0.0000 
     38 H          16.9864   59.2763   33.0378 H         1 DES128      0.0000 
     39 H          21.9473   60.4611   37.9704 H         1 DES128      0.0000 
     40 H          10.9065   60.8900   32.2063 H         1 DES128      0.0000 
@<TRIPOS>BOND
     1    2    1 1    
     2   33    1 1    
     3   34    1 1    
     4   35    1 1    
     5    3    2 1    
     6   21    2 1    
     7   22    2 1    
     8    4    3 1    
     9   11    3 2    
    10    5    4 ar   
    11   10    4 ar   
    12    6    5 ar   
    13   23    5 1    
    14    7    6 ar   
    15   24    6 1    
    16    8    7 1    
    17    9    7 ar   
    18   39    8 1    
    19   10    9 ar   
    20   25    9 1    
    21   26   10 1    
    22   12   11 1    
    23   19   11 1    
    24   13   12 ar   
    25   18   12 ar   
    26   14   13 ar   
    27   27   13 1    
    28   15   14 ar   
    29   28   14 1    
    30   16   15 1    
    31   17   15 ar   
    32   40   16 1    
    33   18   17 ar   
    34   29   17 1    
    35   30   18 1    
    36   20   19 1    
    37   31   19 1    
    38   32   19 1    
    39   36   20 1    
    40   37   20 1    
    41   38   20 1    
@<TRIPOS>SUBSTRUCTURE
     1 DES128      1 GROUP   
@<TRIPOS>SET

