#    Name: 2chl_DKI_1_INTS_M
#    Modification time : Mon Mar 24 23:49:41 2014

@<TRIPOS>MOLECULE
2chl_DKI_1_INTS_M
   55     0     9     0     0
SMALL
NO_CHARGES


@<TRIPOS>ATOM
      1 CA          5.1040   34.9080   23.6365 C.3       3 GLC5        0.0000 
      2 CA          6.6750   34.9900   22.9910 C.3       9 GLL5        0.0000 
      3 CA          3.5330   34.8260   24.2820 C.3       6 GLP5        0.0000 
      4 CA         12.2790   32.8520   21.9395 C.3       3 GLC5        0.0000 
      5 CA         11.2170   33.5670   23.2080 C.3       9 GLL5        0.0000 
      6 CA         13.3410   32.1370   20.6710 C.3       6 GLP5        0.0000 
      7 CA         11.9305   33.3370   24.6240 C.3       3 GLC5        0.0000 
      8 CA         12.6440   33.1070   26.0400 C.3       6 GLP5        0.0000 
      9 CA          9.8890   32.8950   25.5755 C.3       3 GLC5        0.0000 
     10 CA          8.9720   34.5010   25.5050 C.3       9 GLL5        0.0000 
     11 CA         10.8060   31.2890   25.6460 C.3       6 GLP5        0.0000 
     12 CA          7.0395   34.5755   25.8710 C.3       3 GLC5        0.0000 
     13 CA          5.1070   34.6500   26.2370 C.3       6 GLP5        0.0000 
     14 CA         11.3120   34.4910   25.7370 C.3       3 GLC5        0.0000 
     15 CA          9.9800   35.8750   25.4340 C.3       9 GLL5        0.0000 
     16 CA         10.5705   37.5520   26.4635 C.3       3 GLC5        0.0000 
     17 CA         11.1610   39.2290   27.4930 C.3       6 GLP5        0.0000 
     18 O           9.0535   36.3405   29.5670 O.2       1 ALC1        0.0000 
     19 O           9.0360   35.8750   28.2820 O.2       7 ALL1        0.0000 
     20 O           9.0710   36.8060   30.8520 O.2       4 ALP1        0.0000 
     21 N           7.3125   34.1900   30.0405 N.am      2 SEC2        0.0000 
     22 N           7.9570   33.8900   28.7770 N.am      8 SEL2        0.0000 
     23 N           6.6680   34.4900   31.3040 N.am      5 SEP2        0.0000 
     24 O           6.1785   32.0330   29.7945 O.2       1 ALC1        0.0000 
     25 O           6.9650   31.8410   28.6520 O.2       7 ALL1        0.0000 
     26 O           5.3920   32.2250   30.9370 O.2       4 ALP1        0.0000 
     27 CA          8.0335   31.0825   29.8470 C.3       3 GLC5        0.0000 
     28 CA          6.8120   30.5990   28.1930 C.3       9 GLL5        0.0000 
     29 CA          9.2550   31.5660   31.5010 C.3       6 GLP5        0.0000 
     30 CA          9.4730   29.5850   28.1080 C.3       3 GLC5        0.0000 
     31 CA          7.6270   30.0340   27.2380 C.3       9 GLL5        0.0000 
     32 CA         11.3190   29.1360   28.9780 C.3       6 GLP5        0.0000 
     33 CA          9.5320   28.6070   27.2520 C.3       3 GLC5        0.0000 
     34 CA          7.4120   28.7060   26.8750 C.3       9 GLL5        0.0000 
     35 CA         11.6520   28.5080   27.6290 C.3       6 GLP5        0.0000 
     36 CA          4.2575   30.8895   29.5590 C.3       3 GLC5        0.0000 
     37 CA          5.7860   29.8560   28.7810 C.3       9 GLL5        0.0000 
     38 CA          2.7290   31.9230   30.3370 C.3       6 GLP5        0.0000 
     39 N           5.3030   26.3650   23.9160 N.am      2 SEC2        0.0000 
     40 N           5.5020   26.2040   25.6130 N.am      8 SEL2        0.0000 
     41 N           5.1040   26.5260   22.2190 N.am      5 SEP2        0.0000 
     42 CA          6.8895   36.4395   22.6380 C.3       3 GLC5        0.0000 
     43 CA          6.1080   37.8520   23.4080 C.3       6 GLP5        0.0000 
     44 CA          8.5667   37.2212   20.4590 C.3       3 GLC5        0.0000 
     45 CA          8.0700   35.1610   21.0490 C.3       9 GLL5        0.0000 
     46 CA          8.4340   39.3640   20.1600 C.3       6 GLP5        0.0000 
     47 CA         10.1723   32.7238   24.2385 C.3       3 GLC5        0.0000 
     48 CA         10.1700   34.0680   22.5310 C.3       9 GLL5        0.0000 
     49 CA         12.0490   35.4715   22.0560 C.3       3 GLC5        0.0000 
     50 CA         13.3510   37.0330   21.5760 C.3       6 GLP5        0.0000 
     51 CA          8.4495   36.6640   25.9558 C.3       3 GLC5        0.0000 
     52 CA          7.4230   38.1400   26.4420 C.3       6 GLP5        0.0000 
     53 CA          9.1627   30.3295   26.3513 C.3       3 GLC5        0.0000 
     54 CA          6.4902   27.7791   29.6048 C.3       3 GLC5        0.0000 
     55 CA          6.9570   26.9700   31.1840 C.3       6 GLP5        0.0000 
@<TRIPOS>BOND
@<TRIPOS>SUBSTRUCTURE
     1 ALC1       18 GROUP        1 X    ALC  0     ROOT ALC X 1
     2 SEC2       21 GROUP        1 X    SEC  0     **** SEC X 2
     3 GLC5        1 GROUP        1 X    GLC  0     **** GLC X 6
     4 ALP1       20 GROUP        1 Y    ALP  0     ROOT ALP Y 8
     5 SEP2       23 GROUP        1 Y    SEP  0     **** SEP Y 9
     6 GLP5        3 GROUP        1 Y    GLP  0     **** GLP Y 13
     7 ALL1       19 GROUP        1 Z    ALL  0     ROOT ALL Z 15
     8 SEL2       22 GROUP        1 Z    SEL  0     **** SEL Z 16
     9 GLL5        2 GROUP        1 Z    GLL  0     **** GLL Z 20
@<TRIPOS>SET

