#    Name: 2chl_DKI_1_ligand
#    Modification time : Mon Mar 24 23:49:41 2014

@<TRIPOS>MOLECULE
2chl_DKI_1_ligand
   39    41     1     0     0
SMALL
NO_CHARGES


@<TRIPOS>ATOM
      1 FAF         6.6750   34.9900   22.9910 F         1 DKI1323     0.0000 
      2 CAU         7.8690   34.7960   22.3830 C.ar      1 DKI1323     0.0000 
      3 CAI         8.0700   35.1610   21.0490 C.ar      1 DKI1323     0.0000 
      4 CAH         9.3290   34.9960   20.4670 C.ar      1 DKI1323     0.0000 
      5 CAJ        10.3840   34.4380   21.1970 C.ar      1 DKI1323     0.0000 
      6 CAV        10.1700   34.0680   22.5310 C.ar      1 DKI1323     0.0000 
      7 FAG        11.2170   33.5670   23.2080 F         1 DKI1323     0.0000 
      8 CAZ         8.9070   34.2490   23.1310 C.ar      1 DKI1323     0.0000 
      9 NAQ         8.5810   33.8940   24.3980 N.am      1 DKI1323     0.0000 
     10 CAS         8.9720   34.5010   25.5050 C.2       1 DKI1323     0.0000 
     11 SAE         9.9800   35.8750   25.4340 S.2       1 DKI1323     0.0000 
     12 NBA         8.5350   34.0420   26.7010 N.am      1 DKI1323     0.0000 
     13 NAP         7.9710   32.9550   26.8040 N.2       1 DKI1323     0.0000 
     14 CAT         8.5440   34.6740   27.9030 C.2       1 DKI1323     0.0000 
     15 NAA         9.0360   35.8750   28.2820 N.pl3     1 DKI1323     0.0000 
     16 NAO         7.9570   33.8900   28.7770 N.2       1 DKI1323     0.0000 
     17 CAX         7.6120   32.8240   28.0840 C.2       1 DKI1323     0.0000 
     18 NAR         6.9650   31.8410   28.6520 N.pl3     1 DKI1323     0.0000 
     19 CAW         6.8120   30.5990   28.1930 C.ar      1 DKI1323     0.0000 
     20 CAL         7.6270   30.0340   27.2380 C.ar      1 DKI1323     0.0000 
     21 CAN         7.4120   28.7060   26.8750 C.ar      1 DKI1323     0.0000 
     22 CAK         5.7860   29.8560   28.7810 C.ar      1 DKI1323     0.0000 
     23 CAM         5.5600   28.5470   28.4190 C.ar      1 DKI1323     0.0000 
     24 CAY         6.3740   27.9750   27.4510 C.ar      1 DKI1323     0.0000 
     25 SBB         6.1630   26.2860   26.9680 S.o2      1 DKI1323     0.0000 
     26 OAC         5.3880   25.5820   28.0460 O.2       1 DKI1323     0.0000 
     27 OAD         5.5020   26.2040   25.6130 O.2       1 DKI1323     0.0000 
     28 NAB         7.7420   25.6540   26.9750 N.pl3     1 DKI1323     0.0000 
     29 H           7.2964   35.5482   20.5002 H         1 DKI1323     0.0000 
     30 H           9.4832   35.2876   19.4910 H         1 DKI1323     0.0000 
     31 H          11.2968   34.3021   20.7645 H         1 DKI1323     0.0000 
     32 H           7.9347   33.0240   24.4995 H         1 DKI1323     0.0000 
     33 H           6.4874   32.0533   29.6226 H         1 DKI1323     0.0000 
     34 H           8.3767   30.5713   26.7996 H         1 DKI1323     0.0000 
     35 H           8.0243   28.2608   26.1759 H         1 DKI1323     0.0000 
     36 H           5.1898   30.3051   29.5007 H         1 DKI1323     0.0000 
     37 H           4.8104   28.0038   28.8506 H         1 DKI1323     0.0000 
     38 H           8.8787   35.9193   29.2686 H         1 DKI1323     0.0000 
     39 H           8.2633   26.2537   26.3679 H         1 DKI1323     0.0000 
@<TRIPOS>BOND
     1    2    1 1    
     2    3    2 ar   
     3    8    2 ar   
     4    4    3 ar   
     5   29    3 1    
     6    5    4 ar   
     7   30    4 1    
     8    6    5 ar   
     9   31    5 1    
    10    7    6 1    
    11    8    6 ar   
    12    9    8 1    
    13   10    9 am   
    14   32    9 1    
    15   11   10 2    
    16   12   10 am   
    17   13   12 1    
    18   14   12 1    
    19   17   13 2    
    20   15   14 1    
    21   16   14 2    
    22   38   15 1    
    23   17   16 1    
    24   18   17 1    
    25   19   18 1    
    26   33   18 1    
    27   20   19 ar   
    28   22   19 ar   
    29   21   20 ar   
    30   34   20 1    
    31   24   21 ar   
    32   35   21 1    
    33   23   22 ar   
    34   36   22 1    
    35   24   23 ar   
    36   37   23 1    
    37   25   24 1    
    38   26   25 2    
    39   27   25 2    
    40   28   25 1    
    41   39   28 1    
@<TRIPOS>SUBSTRUCTURE
     1 DKI1323     1 GROUP   
@<TRIPOS>SET

