#    Name: 1mz9_VDY_1_INTS_M
#    Modification time : Tue Mar 25 12:16:02 2014

@<TRIPOS>MOLECULE
1mz9_VDY_1_INTS_M
  111     0     3     0     0
SMALL
NO_CHARGES


@<TRIPOS>ATOM
      1 CA         -7.2585   -4.2790   17.2660 C.3       1 GLC5        0.0000 
      2 CA         -7.4740   -2.5310   18.0000 C.3       3 GLL5        0.0000 
      3 CA         -7.0430   -6.0270   16.5320 C.3       2 GLP5        0.0000 
      4 CA         -7.6435   -3.4035   20.0180 C.3       1 GLC5        0.0000 
      5 CA         -7.8130   -4.2760   22.0360 C.3       2 GLP5        0.0000 
      6 CA         -4.0085   -2.0235   18.1785 C.3       1 GLC5        0.0000 
      7 CA         -6.1050   -1.9400   18.0980 C.3       3 GLL5        0.0000 
      8 CA         -1.9120   -2.1070   18.2590 C.3       2 GLP5        0.0000 
      9 CA         -5.4390   -3.5385   17.6525 C.3       1 GLC5        0.0000 
     10 CA         -4.7730   -5.1370   17.2070 C.3       2 GLP5        0.0000 
     11 CA         -3.8935   -1.4230   19.5685 C.3       1 GLC5        0.0000 
     12 CA         -5.6970   -1.1440   19.4270 C.3       3 GLL5        0.0000 
     13 CA         -2.0900   -1.7020   19.7100 C.3       2 GLP5        0.0000 
     14 CA         -4.4460    0.5030   20.1645 C.3       1 GLC5        0.0000 
     15 CA         -3.1950    2.1500   20.9020 C.3       2 GLP5        0.0000 
     16 CA         -5.4020    1.2990   19.2685 C.3       1 GLC5        0.0000 
     17 CA         -6.8490   -0.2740   19.9310 C.3       3 GLL5        0.0000 
     18 CA         -3.9550    2.8720   18.6060 C.3       2 GLP5        0.0000 
     19 CA        -11.4055   -0.8660   19.9630 C.3       1 GLC5        0.0000 
     20 CA        -10.2420   -1.6810   21.6290 C.3       3 GLL5        0.0000 
     21 CA        -12.5690   -0.0510   18.2970 C.3       2 GLP5        0.0000 
     22 CA         -7.9165   -0.5605   23.5640 C.3       1 GLC5        0.0000 
     23 CA         -9.5210   -0.7410   23.8960 C.3       3 GLL5        0.0000 
     24 CA         -6.3120   -0.3800   23.2320 C.3       2 GLP5        0.0000 
     25 CA         -8.6670   -2.5085   22.9660 C.3       1 GLC5        0.0000 
     26 CA         -8.3670   -0.1430   25.4195 C.3       1 GLC5        0.0000 
     27 CA        -10.0640   -0.2700   25.1620 C.3       3 GLL5        0.0000 
     28 CA         -6.6700   -0.0160   25.6770 C.3       2 GLP5        0.0000 
     29 CA        -10.9335    1.8240   24.2885 C.3       1 GLC5        0.0000 
     30 CA        -11.5730    0.1700   25.2340 C.3       3 GLL5        0.0000 
     31 CA        -10.2940    3.4780   23.3430 C.3       2 GLP5        0.0000 
     32 CA        -10.4225    0.9620   26.3070 C.3       1 GLC5        0.0000 
     33 CA         -9.2720    1.7540   27.3800 C.3       2 GLP5        0.0000 
     34 CA        -10.6420   -2.7800   25.4565 C.3       1 GLC5        0.0000 
     35 CA        -11.7860   -1.9760   23.8750 C.3       3 GLL5        0.0000 
     36 CA         -9.4980   -3.5840   27.0380 C.3       2 GLP5        0.0000 
     37 CA        -12.8615   -3.7260   21.7380 C.3       1 GLC5        0.0000 
     38 CA        -12.9710   -2.7850   23.2080 C.3       3 GLL5        0.0000 
     39 CA        -12.7520   -4.6670   20.2680 C.3       2 GLP5        0.0000 
     40 CA        -14.8760   -4.1885   23.7330 C.3       1 GLC5        0.0000 
     41 CA        -14.2210   -2.5750   24.2120 C.3       3 GLL5        0.0000 
     42 CA        -15.5310   -5.8020   23.2540 C.3       2 GLP5        0.0000 
     43 CA        -14.4505   -0.8390   22.3345 C.3       1 GLC5        0.0000 
     44 CA        -13.2770    0.1670   23.4510 C.3       3 GLL5        0.0000 
     45 CA        -15.6240   -1.8450   21.2180 C.3       2 GLP5        0.0000 
     46 CA        -13.6400    0.6820   21.6790 C.3       1 GLC5        0.0000 
     47 CA        -14.0030    1.1970   19.9070 C.3       2 GLP5        0.0000 
     48 CA        -13.3820    1.7260   23.3410 C.3       1 GLC5        0.0000 
     49 CA        -13.4870    3.2850   23.2310 C.3       2 GLP5        0.0000 
     50 CA        -11.7855    1.8225   23.3970 C.3       1 GLC5        0.0000 
     51 CA        -12.1545    0.0480   28.1435 C.3       1 GLC5        0.0000 
     52 CA        -14.0600   -0.0150   27.3050 C.3       3 GLL5        0.0000 
     53 CA        -10.2490    0.1110   28.9820 C.3       2 GLP5        0.0000 
     54 CA        -18.4430    0.0120   26.8850 C.3       1 GLC5        0.0000 
     55 CA        -16.8350   -0.4430   27.7490 C.3       3 GLL5        0.0000 
     56 CA        -20.0510    0.4670   26.0210 C.3       2 GLP5        0.0000 
     57 CA        -17.9465    1.1980   28.1020 C.3       1 GLC5        0.0000 
     58 CA        -19.0580    2.8390   28.4550 C.3       2 GLP5        0.0000 
     59 CA        -19.9615   -2.9220   30.3440 C.3       1 GLC5        0.0000 
     60 CA        -19.1700   -1.0860   29.4810 C.3       3 GLL5        0.0000 
     61 CA        -20.7530   -4.7580   31.2070 C.3       2 GLP5        0.0000 
     62 CA        -19.8140   -2.1820   27.7890 C.3       1 GLC5        0.0000 
     63 CA        -20.4580   -3.2780   26.0970 C.3       2 GLP5        0.0000 
     64 CA        -20.7265   -1.5955   29.5915 C.3       1 GLC5        0.0000 
     65 CA        -22.2830   -2.1050   29.7020 C.3       2 GLP5        0.0000 
     66 CA        -19.6105   -0.3095   27.7510 C.3       1 GLC5        0.0000 
     67 CA        -17.9320   -2.6150   32.4395 C.3       1 GLC5        0.0000 
     68 CA        -18.4290   -1.3600   31.3690 C.3       3 GLL5        0.0000 
     69 CA        -17.4350   -3.8700   33.5100 C.3       2 GLP5        0.0000 
     70 CA        -19.5910   -3.0590   31.2880 C.3       1 GLC5        0.0000 
     71 CA        -20.3560   -1.7325   30.5355 C.3       1 GLC5        0.0000 
     72 CA         -7.3353   -2.4923   16.1410 C.3       1 GLC5        0.0000 
     73 CA         -7.8810   -2.7490   14.2330 C.3       2 GLP5        0.0000 
     74 CA         -6.2925   -0.5445   21.4555 C.3       1 GLC5        0.0000 
     75 CA         -8.2770    0.8177   20.7450 C.3       1 GLC5        0.0000 
     76 CA         -9.0210    2.2750   21.5630 C.3       2 GLP5        0.0000 
     77 CA         -7.4508   -0.7230   21.8630 C.3       1 GLC5        0.0000 
     78 CA         -8.2170   -1.0050   19.9230 C.3       3 GLL5        0.0000 
     79 CA         -8.2012   -2.6710   21.2650 C.3       1 GLC5        0.0000 
     80 CA         -8.9620   -1.1270   21.0650 C.3       3 GLL5        0.0000 
     81 CA         -9.5508   -2.5750   19.9280 C.3       1 GLC5        0.0000 
     82 CA        -10.5120   -4.0840   19.3620 C.3       2 GLP5        0.0000 
     83 CA         -8.3562   -0.9910   22.7662 C.3       1 GLC5        0.0000 
     84 CA         -9.1067   -2.9390   22.1683 C.3       1 GLC5        0.0000 
     85 CA        -10.5590   -1.5230   22.9720 C.3       3 GLL5        0.0000 
     86 CA        -10.4563   -2.8430   20.8313 C.3       1 GLC5        0.0000 
     87 CA         -9.5508    0.4057   21.8612 C.3       1 GLC5        0.0000 
     88 CA         -9.6452   -2.0448   25.7835 C.3       1 GLC5        0.0000 
     89 CA         -9.3662    1.2092   23.7325 C.3       1 GLC5        0.0000 
     90 CA         -8.9400    2.9240   22.9360 C.3       2 GLP5        0.0000 
     91 CA         -9.5322    0.6242   25.9545 C.3       1 GLC5        0.0000 
     92 CA         -9.3747   -1.2147   16.2320 C.3       1 GLC5        0.0000 
     93 CA         -8.4970   -1.5180   18.5110 C.3       3 GLL5        0.0000 
     94 CA         -9.7720   -1.1090   14.3150 C.3       2 GLP5        0.0000 
     95 CA        -10.7733   -0.6857   18.2230 C.3       1 GLC5        0.0000 
     96 CA         -9.4580   -1.1230   17.7870 C.3       3 GLL5        0.0000 
     97 CA        -12.7707    1.4955   25.3032 C.3       1 GLC5        0.0000 
     98 CA        -12.5620   -0.7560   24.5270 C.3       3 GLL5        0.0000 
     99 CA        -13.4740    3.2840   25.7260 C.3       2 GLP5        0.0000 
    100 CA        -12.7203   -4.2337   23.5343 C.3       1 GLC5        0.0000 
    101 CA        -13.0620   -6.0870   23.5270 C.3       2 GLP5        0.0000 
    102 CA        -14.6100   -2.2625   22.4640 C.3       1 GLC5        0.0000 
    103 CA         -9.6169   -2.8289   18.6916 C.3       1 GLC5        0.0000 
    104 CA        -13.9443    1.4332   26.2435 C.3       1 GLC5        0.0000 
    105 CA        -14.7690   -0.8200   26.2170 C.3       3 GLL5        0.0000 
    106 CA        -18.8193    0.9632   29.1385 C.3       1 GLC5        0.0000 
    107 CA        -17.9910   -0.7390   30.1630 C.3       3 GLL5        0.0000 
    108 CA        -17.8300   -0.3223   32.4600 C.3       1 GLC5        0.0000 
    109 CA        -17.4500    0.4050   34.1540 C.3       2 GLP5        0.0000 
    110 CA        -19.5219    0.2884   31.4663 C.3       1 GLC5        0.0000 
    111 CA        -20.5390    1.7130   32.3370 C.3       2 GLP5        0.0000 
@<TRIPOS>BOND
@<TRIPOS>SUBSTRUCTURE
     1 GLC5        1 GROUP        1 X    GLC  0     ROOT GLC X 6
     2 GLP5        3 GROUP        1 Y    GLP  0     ROOT GLP Y 13
     3 GLL5        2 GROUP        1 Z    GLL  0     ROOT GLL Z 20
@<TRIPOS>SET

