#    Name: 1mz9_VDY_1_ligand
#    Modification time : Tue Mar 25 12:16:02 2014

@<TRIPOS>MOLECULE
1mz9_VDY_1_ligand
   71    73     1     0     0
SMALL
NO_CHARGES


@<TRIPOS>ATOM
      1 O1         -5.3120   -2.0520   20.4530 O.3       1 VDY1002     0.0000 
      2 O2        -17.7370    0.7920   30.6390 O.3       1 VDY1002     0.0000 
      3 C1         -7.4740   -2.5310   18.0000 C.3       1 VDY1002     0.0000 
      4 C2         -6.1050   -1.9400   18.0980 C.3       1 VDY1002     0.0000 
      5 C3         -5.6970   -1.1440   19.4270 C.3       1 VDY1002     0.0000 
      6 C4         -6.8490   -0.2740   19.9310 C.3       1 VDY1002     0.0000 
      7 C5         -8.2170   -1.0050   19.9230 C.2       1 VDY1002     0.0000 
      8 C6         -8.9620   -1.1270   21.0650 C.2       1 VDY1002     0.0000 
      9 C7        -10.2420   -1.6810   21.6290 C.2       1 VDY1002     0.0000 
     10 C8        -10.5590   -1.5230   22.9720 C.2       1 VDY1002     0.0000 
     11 C9         -9.5210   -0.7410   23.8960 C.3       1 VDY1002     0.0000 
     12 C10        -8.4970   -1.5180   18.5110 C.2       1 VDY1002     0.0000 
     13 C11       -10.0640   -0.2700   25.1620 C.3       1 VDY1002     0.0000 
     14 C12       -11.5730    0.1700   25.2340 C.3       1 VDY1002     0.0000 
     15 C13       -12.5620   -0.7560   24.5270 C.3       1 VDY1002     0.0000 
     16 C14       -11.7860   -1.9760   23.8750 C.3       1 VDY1002     0.0000 
     17 C15       -12.9710   -2.7850   23.2080 C.3       1 VDY1002     0.0000 
     18 C16       -14.2210   -2.5750   24.2120 C.3       1 VDY1002     0.0000 
     19 C17       -13.6450   -1.6690   25.3660 C.3       1 VDY1002     0.0000 
     20 C18       -13.2770    0.1670   23.4510 C.3       1 VDY1002     0.0000 
     21 C19        -9.4580   -1.1230   17.7870 C.2       1 VDY1002     0.0000 
     22 C20       -14.7690   -0.8200   26.2170 C.3       1 VDY1002     0.0000 
     23 C21       -14.0600   -0.0150   27.3050 C.3       1 VDY1002     0.0000 
     24 C22       -15.8600   -1.5710   27.0370 C.3       1 VDY1002     0.0000 
     25 C23       -16.8350   -0.4430   27.7490 C.3       1 VDY1002     0.0000 
     26 C24       -17.1090   -1.2670   29.0260 C.3       1 VDY1002     0.0000 
     27 C25       -17.9910   -0.7390   30.1630 C.3       1 VDY1002     0.0000 
     28 C26       -19.1700   -1.0860   29.4810 C.3       1 VDY1002     0.0000 
     29 C27       -18.4290   -1.3600   31.3690 C.3       1 VDY1002     0.0000 
     30 H          -7.5386   -3.4309   18.6042 H         1 VDY1002     0.0000 
     31 H          -7.7052   -2.7734   16.9671 H         1 VDY1002     0.0000 
     32 H          -5.9267   -1.2327   17.2456 H         1 VDY1002     0.0000 
     33 H          -5.3282   -2.7382   17.9636 H         1 VDY1002     0.0000 
     34 H          -4.8757   -0.4911   19.1506 H         1 VDY1002     0.0000 
     35 H          -6.9297    0.6214   19.3031 H         1 VDY1002     0.0000 
     36 H          -6.6358    0.0533   20.9557 H         1 VDY1002     0.0000 
     37 H          -8.4077   -0.6002   21.9853 H         1 VDY1002     0.0000 
     38 H         -10.8513   -2.1706   20.9767 H         1 VDY1002     0.0000 
     39 H          -9.1338    0.0967   23.2824 H         1 VDY1002     0.0000 
     40 H          -8.6672   -1.4304   24.0507 H         1 VDY1002     0.0000 
     41 H          -9.4648    0.6067   25.5487 H         1 VDY1002     0.0000 
     42 H          -9.9284   -1.0517   25.9669 H         1 VDY1002     0.0000 
     43 H         -11.6476    1.1847   24.8046 H         1 VDY1002     0.0000 
     44 H         -11.8471    0.2558   26.3004 H         1 VDY1002     0.0000 
     45 H         -11.4321   -2.5707   24.7161 H         1 VDY1002     0.0000 
     46 H         -12.7343   -3.8050   23.1853 H         1 VDY1002     0.0000 
     47 H         -13.2152   -2.3572   22.2838 H         1 VDY1002     0.0000 
     48 H         -14.4942   -3.5101   24.5956 H         1 VDY1002     0.0000 
     49 H         -14.9730   -2.0603   23.6963 H         1 VDY1002     0.0000 
     50 H         -13.0719   -2.2849   26.0155 H         1 VDY1002     0.0000 
     51 H         -15.2381   -0.1161   25.5599 H         1 VDY1002     0.0000 
     52 H         -15.4187   -2.1360   27.8196 H         1 VDY1002     0.0000 
     53 H         -16.4761   -2.1524   26.3977 H         1 VDY1002     0.0000 
     54 H         -17.6682   -0.3667   27.1727 H         1 VDY1002     0.0000 
     55 H         -16.2537    0.3659   27.9489 H         1 VDY1002     0.0000 
     56 H         -16.1011   -1.5547   29.4698 H         1 VDY1002     0.0000 
     57 H         -17.5252   -2.2749   28.6996 H         1 VDY1002     0.0000 
     58 H         -12.6233    0.5547   22.8011 H         1 VDY1002     0.0000 
     59 H         -13.9544   -0.3401   22.9181 H         1 VDY1002     0.0000 
     60 H         -13.7551    0.9341   23.8787 H         1 VDY1002     0.0000 
     61 H         -13.5598   -0.6060   27.9379 H         1 VDY1002     0.0000 
     62 H         -13.3983    0.6281   26.9195 H         1 VDY1002     0.0000 
     63 H         -14.7048    0.5199   27.8510 H         1 VDY1002     0.0000 
     64 H         -19.2662   -0.5794   28.6242 H         1 VDY1002     0.0000 
     65 H         -19.1931   -2.0588   29.2505 H         1 VDY1002     0.0000 
     66 H         -19.9852   -0.8948   30.0277 H         1 VDY1002     0.0000 
     67 H         -17.6847   -1.4531   32.0303 H         1 VDY1002     0.0000 
     68 H         -19.1536   -0.8348   31.8152 H         1 VDY1002     0.0000 
     69 H         -18.7910   -2.2775   31.2041 H         1 VDY1002     0.0000 
     70 H          -4.7346   -1.4746   21.0304 H         1 VDY1002     0.0000 
     71 H         -18.2020    1.3557   29.9563 H         1 VDY1002     0.0000 
@<TRIPOS>BOND
     1    5    1 1    
     2   70    1 1    
     3   27    2 1    
     4   71    2 1    
     5    4    3 1    
     6   12    3 1    
     7   30    3 1    
     8   31    3 1    
     9    5    4 1    
    10   32    4 1    
    11   33    4 1    
    12    6    5 1    
    13   34    5 1    
    14    7    6 1    
    15   35    6 1    
    16   36    6 1    
    17    8    7 2    
    18   12    7 1    
    19    9    8 1    
    20   37    8 1    
    21   10    9 2    
    22   38    9 1    
    23   11   10 1    
    24   16   10 1    
    25   13   11 1    
    26   39   11 1    
    27   40   11 1    
    28   21   12 2    
    29   14   13 1    
    30   41   13 1    
    31   42   13 1    
    32   15   14 1    
    33   43   14 1    
    34   44   14 1    
    35   16   15 1    
    36   19   15 1    
    37   20   15 1    
    38   17   16 1    
    39   45   16 1    
    40   18   17 1    
    41   46   17 1    
    42   47   17 1    
    43   19   18 1    
    44   48   18 1    
    45   49   18 1    
    46   22   19 1    
    47   50   19 1    
    48   58   20 1    
    49   59   20 1    
    50   60   20 1    
    51   23   22 1    
    52   24   22 1    
    53   51   22 1    
    54   61   23 1    
    55   62   23 1    
    56   63   23 1    
    57   25   24 1    
    58   52   24 1    
    59   53   24 1    
    60   26   25 1    
    61   54   25 1    
    62   55   25 1    
    63   27   26 1    
    64   56   26 1    
    65   57   26 1    
    66   28   27 1    
    67   29   27 1    
    68   64   28 1    
    69   65   28 1    
    70   66   28 1    
    71   67   29 1    
    72   68   29 1    
    73   69   29 1    
@<TRIPOS>SUBSTRUCTURE
     1 VDY1002     1 GROUP   
@<TRIPOS>SET

