#    Name: 3thb_3TA_1_INTS_M
#    Modification time : Mon Mar 24 20:06:00 2014

@<TRIPOS>MOLECULE
3thb_3TA_1_INTS_M
   93     0    12     0     0
SMALL
NO_CHARGES


@<TRIPOS>ATOM
      1 CA        -45.1820    8.2700   14.1115 C.3       4 GLC5        0.0000 
      2 CA        -43.3870    9.2340   14.5070 C.3      12 GLL5        0.0000 
      3 CA        -46.9770    7.3060   13.7160 C.3       8 GLP5        0.0000 
      4 CA        -44.3125    8.2365   15.7955 C.3       4 GLC5        0.0000 
      5 CA        -45.2380    7.2390   17.0840 C.3       8 GLP5        0.0000 
      6 CA        -42.5160    8.5390   16.3460 C.3       4 GLC5        0.0000 
      7 CA        -41.6450    7.8440   18.1850 C.3       8 GLP5        0.0000 
      8 CA        -45.1125   16.7075    8.0150 C.3       4 GLC5        0.0000 
      9 CA        -43.9720   15.2870    9.0200 C.3      12 GLL5        0.0000 
     10 CA        -46.2530   18.1280    7.0100 C.3       8 GLP5        0.0000 
     11 CA        -43.4385   15.3735    7.0030 C.3       4 GLC5        0.0000 
     12 CA        -42.9050   15.4600    4.9860 C.3       8 GLP5        0.0000 
     13 N         -44.7070   15.5790    6.8590 N.am      2 SEC2        0.0000 
     14 N         -44.4590   14.6390    7.9710 N.am     10 SEL2        0.0000 
     15 N         -44.9550   16.5190    5.7470 N.am      6 SEP2        0.0000 
     16 CA        -46.4780   12.9900    8.9240 C.3       4 GLC5        0.0000 
     17 CA        -44.6950   13.3240    8.0240 C.3      12 GLL5        0.0000 
     18 CA        -48.2610   12.6560    9.8240 C.3       8 GLP5        0.0000 
     19 CA        -46.3340   14.5140    7.9025 C.3       4 GLC5        0.0000 
     20 CA        -47.9730   15.7040    7.7810 C.3       8 GLP5        0.0000 
     21 CA        -43.8000   14.3920    6.5050 C.3       4 GLC5        0.0000 
     22 CA        -46.1170   12.9475   10.0290 C.3       4 GLC5        0.0000 
     23 CA        -43.9730   13.2390   10.2340 C.3      12 GLL5        0.0000 
     24 O         -40.6885   13.2170   13.1170 O.2       1 ALC1        0.0000 
     25 O         -41.8720   13.5280   12.3680 O.2       9 ALL1        0.0000 
     26 O         -39.5050   12.9060   13.8660 O.2       5 ALP1        0.0000 
     27 CA        -41.8870   14.5765   14.0770 C.3       4 GLC5        0.0000 
     28 CA        -41.9350   14.7990   11.9400 C.3      12 GLL5        0.0000 
     29 CA        -41.8390   14.3540   16.2140 C.3       8 GLP5        0.0000 
     30 CA        -45.7265    8.8115   13.0080 C.3       4 GLC5        0.0000 
     31 CA        -44.4760   10.3170   12.3000 C.3      12 GLL5        0.0000 
     32 CA        -40.6080   17.3275   10.8645 C.3       4 GLC5        0.0000 
     33 CA        -40.5110   15.8090   12.1380 C.3      12 GLL5        0.0000 
     34 CA        -40.7050   18.8460    9.5910 C.3       8 GLP5        0.0000 
     35 CA        -41.6020   17.0745   13.2410 C.3       4 GLC5        0.0000 
     36 CA        -42.6930   18.3400   14.3440 C.3       8 GLP5        0.0000 
     37 CA        -38.6770   15.6295   11.6480 C.3       4 GLC5        0.0000 
     38 CA        -36.8430   15.4500   11.1580 C.3       8 GLP5        0.0000 
     39 O         -45.1675   13.2350    5.6705 O.2       1 ALC1        0.0000 
     40 O         -45.1690   12.7210    6.9510 O.2       9 ALL1        0.0000 
     41 O         -45.1660   13.7490    4.3900 O.2       5 ALP1        0.0000 
     42 CA        -48.4025   10.0525    7.9680 C.3       4 GLC5        0.0000 
     43 CA        -46.7750    8.9770    6.9180 C.3      12 GLL5        0.0000 
     44 CA        -50.0300   11.1280    9.0180 C.3       8 GLP5        0.0000 
     45 CA        -46.3425    8.9265    5.1985 C.3       4 GLC5        0.0000 
     46 CA        -45.9100    8.8760    3.4790 C.3       8 GLP5        0.0000 
     47 CA        -46.4360   10.0600    4.9930 C.3       4 GLC5        0.0000 
     48 CA        -46.9620   11.2440    6.5070 C.3      12 GLL5        0.0000 
     49 OD1       -42.6020    6.4480    7.3015 O.co2     3 ASC3        0.0000 
     50 OD1       -42.5830    6.2500    9.2250 O.co2    11 ASL3        0.0000 
     51 OD1       -42.6210    6.6460    5.3780 O.co2     7 ASP3        0.0000 
     52 OD1       -42.6125    5.6070    8.0185 O.co2     3 ASC3        0.0000 
     53 OD1       -42.6420    4.9640    6.8120 O.co2     7 ASP3        0.0000 
     54 O         -42.6125    5.6070    8.0185 O.2       1 ALC1        0.0000 
     55 O         -42.5830    6.2500    9.2250 O.2       9 ALL1        0.0000 
     56 O         -42.6420    4.9640    6.8120 O.2       5 ALP1        0.0000 
     57 CA        -40.7955    7.9570    7.7365 C.3       4 GLC5        0.0000 
     58 CA        -41.6290    7.3510    9.5130 C.3      12 GLL5        0.0000 
     59 CA        -39.9620    8.5630    5.9600 C.3       8 GLP5        0.0000 
     60 CA        -39.6165    7.0830    9.2560 C.3       4 GLC5        0.0000 
     61 CA        -37.6040    6.8150    8.9990 C.3       8 GLP5        0.0000 
     62 CA        -41.5005    9.4105    9.1645 C.3       4 GLC5        0.0000 
     63 CA        -41.3720   11.4700    8.8160 C.3       8 GLP5        0.0000 
     64 CA        -40.3830    3.9620    9.2365 C.3       4 GLC5        0.0000 
     65 CA        -42.0310    4.9810    9.7500 C.3      12 GLL5        0.0000 
     66 CA        -38.7350    2.9430    8.7230 C.3       8 GLP5        0.0000 
     67 CA        -47.9045   14.0470    6.8935 C.3       4 GLC5        0.0000 
     68 CA        -47.8360   12.3900    6.0060 C.3      12 GLL5        0.0000 
     69 CA        -47.4095   13.4740    4.1820 C.3       4 GLC5        0.0000 
     70 CA        -46.9830   14.5580    2.3580 C.3       8 GLP5        0.0000 
     71 CA        -44.6240   12.7763   13.1915 C.3       4 GLC5        0.0000 
     72 CA        -42.7710   12.5350   12.2780 C.3      12 GLL5        0.0000 
     73 CA        -46.5430   13.5030   13.6070 C.3       8 GLP5        0.0000 
     74 CA        -42.2720   13.2018   14.4950 C.3       4 GLC5        0.0000 
     75 CA        -42.6180   16.7360   12.9850 C.3       4 GLC5        0.0000 
     76 CA        -40.4135   14.0245   10.9035 C.3       4 GLC5        0.0000 
     77 CA        -39.6040   12.7450    9.7680 C.3       8 GLP5        0.0000 
     78 CA        -44.9733   16.2051   10.6325 C.3       4 GLC5        0.0000 
     79 CA        -43.1510   15.4650   11.3120 C.3      12 GLL5        0.0000 
     80 CA        -46.4520   17.2080   10.8060 C.3       8 GLP5        0.0000 
     81 CA        -46.5012   10.6005   11.3383 C.3       4 GLC5        0.0000 
     82 CA        -44.6030   11.2770   11.3010 C.3      12 GLL5        0.0000 
     83 CA        -48.4630   10.4040   10.8760 C.3       8 GLP5        0.0000 
     84 CA        -45.3114   11.1612   13.9734 C.3       4 GLC5        0.0000 
     85 CA        -46.6630   12.2410   14.8490 C.3       8 GLP5        0.0000 
     86 CA        -45.3875   12.7728   12.3200 C.3       4 GLC5        0.0000 
     87 CA        -44.5455   10.6072    5.5892 C.3       4 GLC5        0.0000 
     88 CA        -45.6610   11.4780    6.9640 C.3      12 GLL5        0.0000 
     89 CA        -43.8110   10.2760    3.9930 C.3       8 GLP5        0.0000 
     90 CA        -44.7495    8.6807    5.7425 C.3       4 GLC5        0.0000 
     91 CA        -45.4740    9.1310    7.3870 C.3      12 GLL5        0.0000 
     92 CA        -44.4110    8.8560    3.8640 C.3       8 GLP5        0.0000 
     93 CA        -47.6674   12.2658    8.0974 C.3       4 GLC5        0.0000 
@<TRIPOS>BOND
@<TRIPOS>SUBSTRUCTURE
     1 ALC1       24 GROUP        1 X    ALC  0     ROOT ALC X 1
     2 SEC2       13 GROUP        1 X    SEC  0     **** SEC X 2
     3 ASC3       49 GROUP        1 X    ASC  0     **** ASC X 3
     4 GLC5        1 GROUP        1 X    GLC  0     **** GLC X 6
     5 ALP1       26 GROUP        1 Y    ALP  0     ROOT ALP Y 8
     6 SEP2       15 GROUP        1 Y    SEP  0     **** SEP Y 9
     7 ASP3       51 GROUP        1 Y    ASP  0     **** ASP Y 10
     8 GLP5        3 GROUP        1 Y    GLP  0     **** GLP Y 13
     9 ALL1       25 GROUP        1 Z    ALL  0     ROOT ALL Z 15
    10 SEL2       14 GROUP        1 Z    SEL  0     **** SEL Z 16
    11 ASL3       50 GROUP        1 Z    ASL  0     **** ASL Z 17
    12 GLL5        2 GROUP        1 Z    GLL  0     **** GLL Z 20
@<TRIPOS>SET

