#    Name: 3thb_3TA_1_ligand
#    Modification time : Mon Mar 24 20:06:00 2014

@<TRIPOS>MOLECULE
3thb_3TA_1_ligand
   57    60     1     0     0
SMALL
NO_CHARGES


@<TRIPOS>ATOM
      1 C1        -43.7040   14.5920   10.1920 C.ar      1 3TA1        0.0000 
      2 CL1       -43.3870    9.2340   14.5070 Cl        1 3TA1        0.0000 
      3 C2        -43.9720   15.2870    9.0200 C.ar      1 3TA1        0.0000 
      4 N3        -44.4590   14.6390    7.9710 N.ar      1 3TA1        0.0000 
      5 C4        -44.6950   13.3240    8.0240 C.ar      1 3TA1        0.0000 
      6 N5        -44.4510   12.6260    9.1430 N.ar      1 3TA1        0.0000 
      7 C6        -43.9730   13.2390   10.2340 C.ar      1 3TA1        0.0000 
      8 C7        -42.7710   12.5350   12.2780 C.ar      1 3TA1        0.0000 
      9 C8        -43.7490   12.3770   11.2960 C.ar      1 3TA1        0.0000 
     10 N9        -41.8720   13.5280   12.3680 N.am      1 3TA1        0.0000 
     11 C10       -41.9350   14.7990   11.9400 C.2       1 3TA1        0.0000 
     12 C11       -43.1510   15.4650   11.3120 C.3       1 3TA1        0.0000 
     13 C12       -44.4760   10.3170   12.3000 C.ar      1 3TA1        0.0000 
     14 C13       -43.5000   10.4580   13.2840 C.ar      1 3TA1        0.0000 
     15 C14       -42.6390   11.5640   13.2740 C.ar      1 3TA1        0.0000 
     16 C15       -44.6030   11.2770   11.3010 C.ar      1 3TA1        0.0000 
     17 S16       -40.5110   15.8090   12.1380 S.2       1 3TA1        0.0000 
     18 N18       -45.1690   12.7210    6.9510 N.pl3     1 3TA1        0.0000 
     19 C19       -45.6610   11.4780    6.9640 C.ar      1 3TA1        0.0000 
     20 C20       -44.8990   10.3990    7.4070 C.ar      1 3TA1        0.0000 
     21 C21       -45.4740    9.1310    7.3870 C.ar      1 3TA1        0.0000 
     22 C22       -46.7750    8.9770    6.9180 C.ar      1 3TA1        0.0000 
     23 N23       -47.4790   10.0100    6.5040 N.ar      1 3TA1        0.0000 
     24 C24       -46.9620   11.2440    6.5070 C.ar      1 3TA1        0.0000 
     25 C25       -44.7020    7.8800    7.8550 C.3       1 3TA1        0.0000 
     26 C26       -44.6830    7.6950    9.3730 C.3       1 3TA1        0.0000 
     27 C27       -43.9520    6.4090    9.7920 C.3       1 3TA1        0.0000 
     28 N28       -42.5830    6.2500    9.2250 N.4       1 3TA1        0.0000 
     29 C29       -41.6290    7.3510    9.5130 C.3       1 3TA1        0.0000 
     30 C30       -42.0310    4.9810    9.7500 C.3       1 3TA1        0.0000 
     31 C31       -47.8360   12.3900    6.0060 C.3       1 3TA1        0.0000 
     32 H         -43.7825   16.3063    8.9943 H         1 3TA1        0.0000 
     33 H         -40.9197   13.2530   12.8807 H         1 3TA1        0.0000 
     34 H         -43.9168   15.6064   12.0695 H         1 3TA1        0.0000 
     35 H         -42.8645   16.4315   10.9068 H         1 3TA1        0.0000 
     36 H         -45.1030    9.5020   12.3127 H         1 3TA1        0.0000 
     37 H         -41.9178   11.6580   13.9936 H         1 3TA1        0.0000 
     38 H         -45.3182   11.1761   10.5753 H         1 3TA1        0.0000 
     39 H         -45.1627   13.2478    6.0178 H         1 3TA1        0.0000 
     40 H         -43.9475   10.5344    7.7364 H         1 3TA1        0.0000 
     41 H         -47.1733    8.0060    6.9070 H         1 3TA1        0.0000 
     42 H         -43.6672    7.9481    7.4871 H         1 3TA1        0.0000 
     43 H         -45.1563    6.9925    7.3892 H         1 3TA1        0.0000 
     44 H         -45.7107    7.6555    9.7440 H         1 3TA1        0.0000 
     45 H         -44.1850    8.5521    9.8342 H         1 3TA1        0.0000 
     46 H         -44.5837    5.5449    9.4979 H         1 3TA1        0.0000 
     47 H         -43.9048    6.3879   10.9009 H         1 3TA1        0.0000 
     48 H         -42.6726    6.1316    8.1336 H         1 3TA1        0.0000 
     49 H         -40.7321    7.1816    9.1045 H         1 3TA1        0.0000 
     50 H         -41.9534    8.2266    9.1551 H         1 3TA1        0.0000 
     51 H         -41.4858    7.4708   10.4954 H         1 3TA1        0.0000 
     52 H         -41.1062    4.8096    9.4104 H         1 3TA1        0.0000 
     53 H         -41.9809    4.9828   10.7487 H         1 3TA1        0.0000 
     54 H         -42.5904    4.1953    9.4860 H         1 3TA1        0.0000 
     55 H         -47.9879   13.0786    6.7150 H         1 3TA1        0.0000 
     56 H         -47.4221   12.8590    5.2258 H         1 3TA1        0.0000 
     57 H         -48.7361   12.0692    5.7113 H         1 3TA1        0.0000 
@<TRIPOS>BOND
     1    3    1 ar   
     2    7    1 ar   
     3   12    1 1    
     4   14    2 1    
     5    4    3 ar   
     6   32    3 1    
     7    5    4 ar   
     8    6    5 ar   
     9   18    5 1    
    10    7    6 ar   
    11    9    7 1    
    12    9    8 ar   
    13   10    8 1    
    14   15    8 ar   
    15   16    9 ar   
    16   11   10 am   
    17   33   10 1    
    18   12   11 1    
    19   17   11 2    
    20   34   12 1    
    21   35   12 1    
    22   14   13 ar   
    23   16   13 ar   
    24   36   13 1    
    25   15   14 ar   
    26   37   15 1    
    27   38   16 1    
    28   19   18 1    
    29   39   18 1    
    30   20   19 ar   
    31   24   19 ar   
    32   21   20 ar   
    33   40   20 1    
    34   22   21 ar   
    35   25   21 1    
    36   23   22 ar   
    37   41   22 1    
    38   24   23 ar   
    39   31   24 1    
    40   26   25 1    
    41   42   25 1    
    42   43   25 1    
    43   27   26 1    
    44   44   26 1    
    45   45   26 1    
    46   28   27 1    
    47   46   27 1    
    48   47   27 1    
    49   29   28 1    
    50   30   28 1    
    51   48   28 1    
    52   49   29 1    
    53   50   29 1    
    54   51   29 1    
    55   52   30 1    
    56   53   30 1    
    57   54   30 1    
    58   55   31 1    
    59   56   31 1    
    60   57   31 1    
@<TRIPOS>SUBSTRUCTURE
     1 3TA1        1 GROUP   
@<TRIPOS>SET

