#    Name: 2a59_LMZ_2_INTS_M
#    Modification time : Mon Mar 24 18:30:07 2014

@<TRIPOS>MOLECULE
2a59_LMZ_2_INTS_M
   54     0     9     0     0
SMALL
NO_CHARGES


@<TRIPOS>ATOM
      1 O          71.5840   19.9100   36.9225 O.2       1 ALC1        0.0000 
      2 O          72.2830   20.8540   37.5900 O.2       7 ALL1        0.0000 
      3 O          70.8850   18.9660   36.2550 O.2       4 ALP1        0.0000 
      4 CA         72.8470   21.1580   40.2910 C.3       3 GLC5        0.0000 
      5 CA         72.3910   22.6010   39.3580 C.3       9 GLL5        0.0000 
      6 CA         73.3030   19.7150   41.2240 C.3       6 GLP5        0.0000 
      7 CA         73.6915   21.6755   40.6525 C.3       3 GLC5        0.0000 
      8 CA         73.7840   22.6610   39.1390 C.3       9 GLL5        0.0000 
      9 CA         73.5990   20.6900   42.1660 C.3       6 GLP5        0.0000 
     10 CA         75.9905   21.7935   40.7200 C.3       3 GLC5        0.0000 
     11 CA         76.0340   23.1630   39.7720 C.3       9 GLL5        0.0000 
     12 CA         75.9470   20.4240   41.6680 C.3       6 GLP5        0.0000 
     13 N          77.1695   23.6415   36.0935 N.am      2 SEC2        0.0000 
     14 N          76.7160   23.6700   37.5920 N.am      8 SEL2        0.0000 
     15 N          77.6230   23.6130   34.5950 N.am      5 SEP2        0.0000 
     16 CA         78.2275   22.3620   38.2960 C.3       3 GLC5        0.0000 
     17 CA         78.4460   24.2720   39.1360 C.3       9 GLL5        0.0000 
     18 CA         78.0090   20.4520   37.4560 C.3       6 GLP5        0.0000 
     19 O          79.7745   22.7440   38.5005 O.2       1 ALC1        0.0000 
     20 O          78.9750   23.0480   39.5880 O.2       7 ALL1        0.0000 
     21 O          80.5740   22.4400   37.4130 O.2       4 ALP1        0.0000 
     22 O          78.4375   27.6900   40.7115 O.2       1 ALC1        0.0000 
     23 O          77.8290   26.1320   40.4260 O.2       7 ALL1        0.0000 
     24 O          79.0460   29.2480   40.9970 O.2       4 ALP1        0.0000 
     25 CA         81.4655   27.1100   40.4350 C.3       3 GLC5        0.0000 
     26 CA         79.8780   26.6840   39.6800 C.3       9 GLL5        0.0000 
     27 CA         83.0530   27.5360   41.1900 C.3       6 GLP5        0.0000 
     28 CA         80.1075   28.3490   39.3785 C.3       3 GLC5        0.0000 
     29 CA         80.3370   30.0140   39.0770 C.3       6 GLP5        0.0000 
     30 CA         80.3020   26.8540   37.6750 C.3       3 GLC5        0.0000 
     31 CA         80.7260   27.0240   35.6700 C.3       6 GLP5        0.0000 
     32 N          81.2160   27.5815   39.0060 N.am      2 SEC2        0.0000 
     33 N          81.0210   26.1120   39.1250 N.am      8 SEL2        0.0000 
     34 N          81.4110   29.0510   38.8870 N.am      5 SEP2        0.0000 
     35 O          81.2370   25.2770   38.2880 O.2       1 ALC1        0.0000 
     36 O          81.0210   26.1120   39.1250 O.2       7 ALL1        0.0000 
     37 O          81.4530   24.4420   37.4510 O.2       4 ALP1        0.0000 
     38 N          68.9295   21.3795   37.8115 N.am      2 SEC2        0.0000 
     39 N          70.2140   21.4150   38.5890 N.am      8 SEL2        0.0000 
     40 N          67.6450   21.3440   37.0340 N.am      5 SEP2        0.0000 
     41 N          75.5500   20.6500   35.9805 N.am      2 SEC2        0.0000 
     42 N          74.3460   20.1870   36.4770 N.am      8 SEL2        0.0000 
     43 N          76.7540   21.1130   35.4840 N.am      5 SEP2        0.0000 
     44 N          74.3180   20.4045   35.1785 N.am      2 SEC2        0.0000 
     45 N          74.2900   20.6220   33.8800 N.am      5 SEP2        0.0000 
     46 CA         72.4283   23.0115   37.3577 C.3       3 GLC5        0.0000 
     47 CA         71.7690   23.3920   35.4670 C.3       6 GLP5        0.0000 
     48 CA         77.2330   22.0540   38.3960 C.3       3 GLC5        0.0000 
     49 CA         78.0985   24.9458   37.2835 C.3       3 GLC5        0.0000 
     50 CA         76.8800   24.1490   38.9000 C.3       9 GLL5        0.0000 
     51 CA         78.5340   25.6810   35.5490 C.3       6 GLP5        0.0000 
     52 CA         79.6298   26.4488   41.9670 C.3       3 GLC5        0.0000 
     53 CA         79.0470   25.4590   40.1200 C.3       9 GLL5        0.0000 
     54 CA         79.7970   26.8260   44.0340 C.3       6 GLP5        0.0000 
@<TRIPOS>BOND
@<TRIPOS>SUBSTRUCTURE
     1 ALC1        1 GROUP        1 X    ALC  0     ROOT ALC X 1
     2 SEC2       13 GROUP        1 X    SEC  0     **** SEC X 2
     3 GLC5        4 GROUP        1 X    GLC  0     **** GLC X 6
     4 ALP1        3 GROUP        1 Y    ALP  0     ROOT ALP Y 8
     5 SEP2       15 GROUP        1 Y    SEP  0     **** SEP Y 9
     6 GLP5        6 GROUP        1 Y    GLP  0     **** GLP Y 13
     7 ALL1        2 GROUP        1 Z    ALL  0     ROOT ALL Z 15
     8 SEL2       14 GROUP        1 Z    SEL  0     **** SEL Z 16
     9 GLL5        5 GROUP        1 Z    GLL  0     **** GLL Z 20
@<TRIPOS>SET

