#    Name: 2a59_LMZ_2_ligand
#    Modification time : Mon Mar 24 18:30:07 2014

@<TRIPOS>MOLECULE
2a59_LMZ_2_ligand
   34    34     1     0     0
SMALL
NO_CHARGES


@<TRIPOS>ATOM
      1 N1         74.3390   21.8100   38.1500 N.am      1 LMZ301      0.0000 
      2 C2         73.6300   20.9120   37.3710 C.2       1 LMZ301      0.0000 
      3 N3         72.2830   20.8540   37.5900 N.am      1 LMZ301      0.0000 
      4 C4         71.5820   21.6320   38.5320 C.2       1 LMZ301      0.0000 
      5 C5         72.3910   22.6010   39.3580 C.2       1 LMZ301      0.0000 
      6 C6         73.7840   22.6610   39.1390 C.2       1 LMZ301      0.0000 
      7 N7         74.6100   23.5140   39.8460 N.pl3     1 LMZ301      0.0000 
      8 C8         76.0340   23.1630   39.7720 C.3       1 LMZ301      0.0000 
      9 C9         76.8800   24.1490   38.9000 C.3       1 LMZ301      0.0000 
     10 O9         76.7160   23.6700   37.5920 O.3       1 LMZ301      0.0000 
     11 C10        78.4460   24.2720   39.1360 C.3       1 LMZ301      0.0000 
     12 O10        78.9750   23.0480   39.5880 O.3       1 LMZ301      0.0000 
     13 C11        79.0470   25.4590   40.1200 C.3       1 LMZ301      0.0000 
     14 O11        77.8290   26.1320   40.4260 O.3       1 LMZ301      0.0000 
     15 C12        79.8780   26.6840   39.6800 C.3       1 LMZ301      0.0000 
     16 O12        81.0210   26.1120   39.1250 O.3       1 LMZ301      0.0000 
     17 N5         71.7040   23.3910   40.3010 N.2       1 LMZ301      0.0000 
     18 O52        72.3600   24.2000   40.9890 O.2       1 LMZ301      0.0000 
     19 O4         70.2140   21.4150   38.5890 O.2       1 LMZ301      0.0000 
     20 O2         74.3460   20.1870   36.4770 O.2       1 LMZ301      0.0000 
     21 H          75.3914   21.8773   38.0040 H         1 LMZ301      0.0000 
     22 H          71.7026   20.1727   37.0120 H         1 LMZ301      0.0000 
     23 H          74.3173   24.2890   40.3601 H         1 LMZ301      0.0000 
     24 H          76.1697   22.1534   39.3456 H         1 LMZ301      0.0000 
     25 H          76.4890   23.1464   40.7781 H         1 LMZ301      0.0000 
     26 H          76.4464   25.1352   38.9818 H         1 LMZ301      0.0000 
     27 H          78.9036   24.4984   38.1321 H         1 LMZ301      0.0000 
     28 H          79.4099   25.0196   40.9977 H         1 LMZ301      0.0000 
     29 H          80.0748   27.2689   40.5587 H         1 LMZ301      0.0000 
     30 H          79.2867   27.2337   38.9720 H         1 LMZ301      0.0000 
     31 H          76.0013   24.2449   37.1937 H         1 LMZ301      0.0000 
     32 H          79.5777   22.7392   38.8522 H         1 LMZ301      0.0000 
     33 H          78.0960   27.0771   40.6146 H         1 LMZ301      0.0000 
     34 H          80.6807   25.4289   38.4788 H         1 LMZ301      0.0000 
@<TRIPOS>BOND
     1    2    1 1    
     2    6    1 1    
     3   21    1 1    
     4    3    2 1    
     5   20    2 2    
     6    4    3 1    
     7   22    3 1    
     8    5    4 1    
     9   19    4 2    
    10    6    5 2    
    11   17    5 1    
    12    7    6 1    
    13    8    7 1    
    14   23    7 1    
    15    9    8 1    
    16   24    8 1    
    17   25    8 1    
    18   10    9 1    
    19   11    9 1    
    20   26    9 1    
    21   31   10 1    
    22   12   11 1    
    23   13   11 1    
    24   27   11 1    
    25   32   12 1    
    26   14   13 1    
    27   15   13 1    
    28   28   13 1    
    29   33   14 1    
    30   16   15 1    
    31   29   15 1    
    32   30   15 1    
    33   34   16 1    
    34   18   17 2    
@<TRIPOS>SUBSTRUCTURE
     1 LMZ301      1 GROUP   
@<TRIPOS>SET

