#    Name: 3wqm_B29_2_INTS_M
#    Modification time : Tue Mar 25 02:39:58 2014

@<TRIPOS>MOLECULE
3wqm_B29_2_INTS_M
   45     0     9     0     0
SMALL
NO_CHARGES


@<TRIPOS>ATOM
      1 CA        -21.7950  -13.0095   24.3330 C.3       3 GLC5        0.0000 
      2 CA        -21.3370  -14.8110   23.2420 C.3       9 GLL5        0.0000 
      3 CA        -22.2530  -11.2080   25.4240 C.3       6 GLP5        0.0000 
      4 CA        -23.7755  -14.6685   22.1860 C.3       3 GLC5        0.0000 
      5 CA        -21.6870  -14.1770   22.0250 C.3       9 GLL5        0.0000 
      6 CA        -25.8640  -15.1600   22.3470 C.3       6 GLP5        0.0000 
      7 CA        -19.4560  -15.6875   27.2510 C.3       3 GLC5        0.0000 
      8 CA        -20.1250  -16.7200   25.6460 C.3       9 GLL5        0.0000 
      9 CA        -18.7870  -14.6550   28.8560 C.3       6 GLP5        0.0000 
     10 CA        -21.7450  -16.2425   27.0610 C.3       3 GLC5        0.0000 
     11 CA        -23.3650  -15.7650   28.4760 C.3       6 GLP5        0.0000 
     12 CA        -18.3165  -21.4390   20.4230 C.3       3 GLC5        0.0000 
     13 CA        -16.4520  -20.8700   20.3340 C.3       9 GLL5        0.0000 
     14 CA        -20.1810  -22.0080   20.5120 C.3       6 GLP5        0.0000 
     15 Zn        -13.0440  -19.4995   17.3150 Zn        2 ZIC7        0.0000 
     16 Zn        -13.8130  -20.3530   17.2060 Zn        8 ZIL7        0.0000 
     17 Zn        -12.2750  -18.6460   17.4240 Zn        5 ZIP7        0.0000 
     18 N         -15.9920  -16.5810   20.3695 N.am      1 SEC2        0.0000 
     19 N         -16.3090  -17.8420   20.1920 N.am      7 SEL2        0.0000 
     20 N         -15.6750  -15.3200   20.5470 N.am      4 SEP2        0.0000 
     21 Zn        -13.2030  -18.2780   18.1310 Zn        2 ZIC7        0.0000 
     22 Zn        -14.1310  -17.9100   18.8380 Zn        8 ZIL7        0.0000 
     23 CA        -21.9743  -12.4897   21.2673 C.3       3 GLC5        0.0000 
     24 CA        -22.5280  -10.5680   21.1240 C.3       6 GLP5        0.0000 
     25 CA        -20.2652  -14.5207   18.9600 C.3       3 GLC5        0.0000 
     26 CA        -21.1540  -14.6460   20.7960 C.3       9 GLL5        0.0000 
     27 CA        -19.8190  -13.8420   17.1290 C.3       6 GLP5        0.0000 
     28 CA        -21.8603  -16.0438   19.1995 C.3       3 GLC5        0.0000 
     29 CA        -23.0090  -16.8880   17.6080 C.3       6 GLP5        0.0000 
     30 CA        -19.2551  -14.3451   24.1774 C.3       3 GLC5        0.0000 
     31 CA        -20.4500  -15.9200   23.2330 C.3       9 GLL5        0.0000 
     32 CA        -18.0930  -12.6460   24.6150 C.3       6 GLP5        0.0000 
     33 CA        -21.3980  -17.9398   25.5815 C.3       3 GLC5        0.0000 
     34 CA        -19.9410  -16.7230   24.2420 C.3       9 GLL5        0.0000 
     35 CA        -22.7630  -19.1580   26.2190 C.3       6 GLP5        0.0000 
     36 CA        -18.9402  -17.6130   27.9475 C.3       3 GLC5        0.0000 
     37 CA        -19.4680  -17.6780   26.4410 C.3       9 GLL5        0.0000 
     38 CA        -18.8340  -17.0630   29.7470 C.3       6 GLP5        0.0000 
     39 CA        -20.9047  -18.6605   26.1835 C.3       3 GLC5        0.0000 
     40 CA        -16.6262  -21.9408   26.3133 C.3       3 GLC5        0.0000 
     41 CA        -16.8380  -20.6000   24.6910 C.3       9 GLL5        0.0000 
     42 CA        -16.8310  -22.7880   28.2240 C.3       6 GLP5        0.0000 
     43 CA        -18.2709  -22.0259   24.6377 C.3       3 GLC5        0.0000 
     44 CA        -16.0050  -21.5870   24.1140 C.3       9 GLL5        0.0000 
     45 CA        -19.9410  -23.1880   25.0810 C.3       6 GLP5        0.0000 
@<TRIPOS>BOND
@<TRIPOS>SUBSTRUCTURE
     1 SEC2       18 GROUP        1 X    SEC  0     ROOT SEC X 2
     2 ZIC7       15 GROUP        1 X    ZIC  0     **** ZIC X 5
     3 GLC5        1 GROUP        1 X    GLC  0     **** GLC X 6
     4 SEP2       20 GROUP        1 Y    SEP  0     ROOT SEP Y 9
     5 ZIP7       17 GROUP        1 Y    ZIP  0     **** ZIP Y 12
     6 GLP5        3 GROUP        1 Y    GLP  0     **** GLP Y 13
     7 SEL2       19 GROUP        1 Z    SEL  0     ROOT SEL Z 16
     8 ZIL7       16 GROUP        1 Z    ZIL  0     **** ZIL Z 19
     9 GLL5        2 GROUP        1 Z    GLL  0     **** GLL Z 20
@<TRIPOS>SET

