#    Name: 3wqm_B29_2_ligand
#    Modification time : Tue Mar 25 02:39:58 2014

@<TRIPOS>MOLECULE
3wqm_B29_2_ligand
   44    47     1     0     0
SMALL
NO_CHARGES


@<TRIPOS>ATOM
      1 CAY       -20.4500  -15.9200   23.2330 C.ar      1 B29402      0.0000 
      2 CAP       -21.3370  -14.8110   23.2420 C.ar      1 B29402      0.0000 
      3 CAI       -21.6870  -14.1770   22.0250 C.ar      1 B29402      0.0000 
      4 CAH       -21.1540  -14.6460   20.7960 C.ar      1 B29402      0.0000 
      5 CAO       -20.2690  -15.7530   20.7860 C.ar      1 B29402      0.0000 
      6 CAX       -19.9190  -16.3890   22.0040 C.ar      1 B29402      0.0000 
      7 OAT       -19.1080  -17.4530   22.2770 O.3       1 B29402      0.0000 
      8 CBA       -19.0950  -17.6900   23.6330 C.ar      1 B29402      0.0000 
      9 CAZ       -19.9410  -16.7230   24.2420 C.ar      1 B29402      0.0000 
     10 CAQ       -20.1250  -16.7200   25.6460 C.ar      1 B29402      0.0000 
     11 CAK       -19.4680  -17.6780   26.4410 C.ar      1 B29402      0.0000 
     12 CAN       -18.6250  -18.6480   25.8550 C.ar      1 B29402      0.0000 
     13 CAW       -18.4150  -18.6810   24.4420 C.ar      1 B29402      0.0000 
     14 CAV       -17.5550  -19.6810   23.8590 C.ar      1 B29402      0.0000 
     15 CAR       -17.4000  -19.7960   22.4440 C.ar      1 B29402      0.0000 
     16 CAM       -16.8380  -20.6000   24.6910 C.ar      1 B29402      0.0000 
     17 CAJ       -16.0050  -21.5870   24.1140 C.ar      1 B29402      0.0000 
     18 CAL       -15.8700  -21.6830   22.7110 C.ar      1 B29402      0.0000 
     19 CAU       -16.5690  -20.7830   21.8650 C.ar      1 B29402      0.0000 
     20 CAS       -16.4520  -20.8700   20.3340 C.3       1 B29402      0.0000 
     21 CBB       -15.1580  -20.3360   19.6840 C.3       1 B29402      0.0000 
     22 PBC       -15.2830  -20.5970   17.8290 P.3       1 B29402      0.0000 
     23 OAD       -13.8130  -20.3530   17.2060 O.co2     1 B29402      0.0000 
     24 OAE       -15.6300  -22.1470   17.5850 O.co2     1 B29402      0.0000 
     25 OAA       -16.3090  -19.7190   17.2180 O.co2     1 B29402      0.0000 
     26 PBD       -14.8520  -18.5060   19.9830 P.3       1 B29402      0.0000 
     27 OAF       -16.3090  -17.8420   20.1920 O.co2     1 B29402      0.0000 
     28 OAG       -14.0440  -18.3430   21.3630 O.co2     1 B29402      0.0000 
     29 OAB       -14.1310  -17.9100   18.8380 O.co2     1 B29402      0.0000 
     30 OAC       -14.0360  -21.0540   20.1900 O.3       1 B29402      0.0000 
     31 H         -21.7199  -14.4734   24.1232 H         1 B29402      0.0000 
     32 H         -22.3247  -13.3799   22.0302 H         1 B29402      0.0000 
     33 H         -21.4077  -14.1871   19.9230 H         1 B29402      0.0000 
     34 H         -19.8849  -16.0914   19.9055 H         1 B29402      0.0000 
     35 H         -20.7332  -16.0234   26.0769 H         1 B29402      0.0000 
     36 H         -19.6019  -17.6734   27.4595 H         1 B29402      0.0000 
     37 H         -18.1541  -19.3409   26.4453 H         1 B29402      0.0000 
     38 H         -17.9094  -19.1400   21.8341 H         1 B29402      0.0000 
     39 H         -16.9336  -20.5362   25.7046 H         1 B29402      0.0000 
     40 H         -15.4953  -22.2377   24.7197 H         1 B29402      0.0000 
     41 H         -15.2694  -22.3999   22.3022 H         1 B29402      0.0000 
     42 H         -17.3186  -20.3310   19.8819 H         1 B29402      0.0000 
     43 H         -16.5822  -21.9359   20.0294 H         1 B29402      0.0000 
     44 H         -13.4988  -20.3752   20.6907 H         1 B29402      0.0000 
@<TRIPOS>BOND
     1    2    1 ar   
     2    6    1 ar   
     3    9    1 1    
     4    3    2 ar   
     5   31    2 1    
     6    4    3 ar   
     7   32    3 1    
     8    5    4 ar   
     9   33    4 1    
    10    6    5 ar   
    11   34    5 1    
    12    7    6 1    
    13    8    7 1    
    14    9    8 ar   
    15   13    8 ar   
    16   10    9 ar   
    17   11   10 ar   
    18   35   10 1    
    19   12   11 ar   
    20   36   11 1    
    21   13   12 ar   
    22   37   12 1    
    23   14   13 1    
    24   15   14 ar   
    25   16   14 ar   
    26   19   15 ar   
    27   38   15 1    
    28   17   16 ar   
    29   39   16 1    
    30   18   17 ar   
    31   40   17 1    
    32   19   18 ar   
    33   41   18 1    
    34   20   19 1    
    35   21   20 1    
    36   42   20 1    
    37   43   20 1    
    38   22   21 1    
    39   26   21 1    
    40   30   21 1    
    41   23   22 ar   
    42   24   22 ar   
    43   25   22 ar   
    44   27   26 ar   
    45   28   26 ar   
    46   29   26 ar   
    47   44   30 1    
@<TRIPOS>SUBSTRUCTURE
     1 B29402      1 GROUP   
@<TRIPOS>SET

