#    Name: 1e7v_LY2_1_INTS_M
#    Modification time : Mon Mar 24 23:13:12 2014

@<TRIPOS>MOLECULE
1e7v_LY2_1_INTS_M
   58     0     6     0     0
SMALL
NO_CHARGES


@<TRIPOS>ATOM
      1 CA         21.3920   58.4560   25.6420 C.3       2 GLC5        0.0000 
      2 CA         20.6310   59.4560   24.3740 C.3       6 GLL5        0.0000 
      3 CA         22.1530   57.4560   26.9100 C.3       4 GLP5        0.0000 
      4 CA         21.4580   58.0360   22.8435 C.3       2 GLC5        0.0000 
      5 CA         22.2850   56.6160   21.3130 C.3       4 GLP5        0.0000 
      6 CA         21.7420   60.6645   25.1495 C.3       2 GLC5        0.0000 
      7 CA         22.8530   61.8730   25.9250 C.3       4 GLP5        0.0000 
      8 CA         19.2955   62.5565   24.2160 C.3       2 GLC5        0.0000 
      9 CA         19.0780   61.1190   23.2270 C.3       6 GLL5        0.0000 
     10 CA         19.5130   63.9940   25.2050 C.3       4 GLP5        0.0000 
     11 CA         22.1655   61.3985   24.1465 C.3       2 GLC5        0.0000 
     12 CA         21.4780   60.9240   22.3680 C.3       6 GLL5        0.0000 
     13 CA         20.6795   57.4235   25.2520 C.3       2 GLC5        0.0000 
     14 CA         19.4530   58.4700   24.4600 C.3       6 GLL5        0.0000 
     15 CA         21.9060   56.3770   26.0440 C.3       4 GLP5        0.0000 
     16 CA         17.9300   57.7205   23.3350 C.3       2 GLC5        0.0000 
     17 CA         16.4070   56.9710   22.2100 C.3       4 GLP5        0.0000 
     18 CA         18.3580   58.0915   25.8160 C.3       2 GLC5        0.0000 
     19 CA         17.2630   57.7130   27.1720 C.3       4 GLP5        0.0000 
     20 N          17.0790   58.4965   24.3985 N.am      1 SEC2        0.0000 
     21 N          18.1670   59.1460   24.3750 N.am      5 SEL2        0.0000 
     22 N          15.9910   57.8470   24.4220 N.am      3 SEP2        0.0000 
     23 CA         17.1925   58.5090   22.7290 C.3       2 GLC5        0.0000 
     24 CA         17.9780   60.0470   23.2480 C.3       6 GLL5        0.0000 
     25 CA         16.6265   59.0065   24.4635 C.3       2 GLC5        0.0000 
     26 CA         15.2750   57.9660   25.6790 C.3       4 GLP5        0.0000 
     27 CA         25.2965   61.9550   17.7225 C.3       2 GLC5        0.0000 
     28 CA         24.2490   62.6930   19.4880 C.3       6 GLL5        0.0000 
     29 CA         26.3440   61.2170   15.9570 C.3       4 GLP5        0.0000 
     30 CA         20.6460   61.3370   19.5955 C.3       2 GLC5        0.0000 
     31 CA         22.0760   62.7020   20.6650 C.3       6 GLL5        0.0000 
     32 CA         19.2160   59.9720   18.5260 C.3       4 GLP5        0.0000 
     33 CA         19.1975   61.9970   19.0335 C.3       2 GLC5        0.0000 
     34 CA         19.1790   64.0220   19.5410 C.3       6 GLL5        0.0000 
     35 CA         21.7950   65.0280   22.4480 C.3       2 GLC5        0.0000 
     36 CA         20.2440   65.6440   21.0580 C.3       6 GLL5        0.0000 
     37 CA         23.3460   64.4120   23.8380 C.3       4 GLP5        0.0000 
     38 CA         23.2670   58.6705   23.4895 C.3       2 GLC5        0.0000 
     39 CA         22.6740   60.2780   22.2160 C.3       6 GLL5        0.0000 
     40 CA         23.8600   57.0630   24.7630 C.3       4 GLP5        0.0000 
     41 CA         22.4795   58.4470   21.7645 C.3       2 GLC5        0.0000 
     42 CA         23.3865   61.3235   23.7335 C.3       2 GLC5        0.0000 
     43 CA         24.0990   62.3690   25.2510 C.3       4 GLP5        0.0000 
     44 CA         20.1325   60.0390   26.0675 C.3       2 GLC5        0.0000 
     45 CA         20.2230   61.1150   27.7180 C.3       4 GLP5        0.0000 
     46 CA         25.4245   62.8293   21.0068 C.3       2 GLC5        0.0000 
     47 CA         23.3710   62.0960   20.4150 C.3       6 GLL5        0.0000 
     48 CA         27.0390   63.2640   22.0620 C.3       4 GLP5        0.0000 
     49 CA         22.7674   63.7805   22.0433 C.3       2 GLC5        0.0000 
     50 CA         18.8766   63.6247   18.0821 C.3       2 GLC5        0.0000 
     51 CA         17.9120   64.6330   19.7950 C.3       6 GLL5        0.0000 
     52 CA         18.9060   62.8030   16.3350 C.3       4 GLP5        0.0000 
     53 CA         18.5050   67.6697   22.1070 C.3       2 GLC5        0.0000 
     54 CA         17.8200   65.7570   20.6580 C.3       6 GLL5        0.0000 
     55 CA         18.6120   69.3380   23.2330 C.3       4 GLP5        0.0000 
     56 CA         18.1650   65.4013   22.9115 C.3       2 GLC5        0.0000 
     57 CA         18.9760   66.2460   21.3040 C.3       6 GLL5        0.0000 
     58 CA         17.9320   64.8010   24.8420 C.3       4 GLP5        0.0000 
@<TRIPOS>BOND
@<TRIPOS>SUBSTRUCTURE
     1 SEC2       20 GROUP        1 X    SEC  0     ROOT SEC X 2
     2 GLC5        1 GROUP        1 X    GLC  0     **** GLC X 6
     3 SEP2       22 GROUP        1 Y    SEP  0     ROOT SEP Y 9
     4 GLP5        3 GROUP        1 Y    GLP  0     **** GLP Y 13
     5 SEL2       21 GROUP        1 Z    SEL  0     ROOT SEL Z 16
     6 GLL5        2 GROUP        1 Z    GLL  0     **** GLL Z 20
@<TRIPOS>SET

