#    Name: 1e7v_LY2_1_ligand
#    Modification time : Mon Mar 24 23:13:13 2014

@<TRIPOS>MOLECULE
1e7v_LY2_1_ligand
   41    44     1     0     0
SMALL
NO_CHARGES


@<TRIPOS>ATOM
      1 N14        20.4390   60.4800   23.2890 N.4       1 LY23095     0.0000 
      2 C15        20.6310   59.4560   24.3740 C.3       1 LY23095     0.0000 
      3 C19        19.0780   61.1190   23.2270 C.3       1 LY23095     0.0000 
      4 C11        21.4780   60.9240   22.3680 C.2       1 LY23095     0.0000 
      5 C16        19.4530   58.4700   24.4600 C.3       1 LY23095     0.0000 
      6 O17        18.1670   59.1460   24.3750 O.3       1 LY23095     0.0000 
      7 C18        17.9780   60.0470   23.2480 C.3       1 LY23095     0.0000 
      8 C1         23.8560   63.8620   18.7880 C.ar      1 LY23095     0.0000 
      9 C2         24.2490   62.6930   19.4880 C.ar      1 LY23095     0.0000 
     10 C6         22.5870   64.4620   19.0130 C.ar      1 LY23095     0.0000 
     11 C3         23.3710   62.0960   20.4150 C.ar      1 LY23095     0.0000 
     12 C4         22.0760   62.7020   20.6650 C.ar      1 LY23095     0.0000 
     13 C9         23.7090   60.8250   21.2310 C.2       1 LY23095     0.0000 
     14 C5         21.6540   63.8990   19.9570 C.ar      1 LY23095     0.0000 
     15 O12        21.2000   62.0940   21.6110 O.3       1 LY23095     0.0000 
     16 C20        20.3860   64.4980   20.1860 C.ar      1 LY23095     0.0000 
     17 C25        19.1790   64.0220   19.5410 C.ar      1 LY23095     0.0000 
     18 C24        17.9120   64.6330   19.7950 C.ar      1 LY23095     0.0000 
     19 C21        20.2440   65.6440   21.0580 C.ar      1 LY23095     0.0000 
     20 C22        18.9760   66.2460   21.3040 C.ar      1 LY23095     0.0000 
     21 C23        17.8200   65.7570   20.6580 C.ar      1 LY23095     0.0000 
     22 C10        22.6740   60.2780   22.2160 C.2       1 LY23095     0.0000 
     23 O13        24.7710   60.2050   21.1290 O.2       1 LY23095     0.0000 
     24 H          19.9985   59.4657   22.3835 H         1 LY23095     0.0000 
     25 H          20.7366   59.9566   25.3437 H         1 LY23095     0.0000 
     26 H          21.5488   58.8855   24.1891 H         1 LY23095     0.0000 
     27 H          18.9815   61.7010   22.3114 H         1 LY23095     0.0000 
     28 H          18.9381   61.7803   24.0811 H         1 LY23095     0.0000 
     29 H          19.5471   57.9177   25.4082 H         1 LY23095     0.0000 
     30 H          19.5690   57.7378   23.6455 H         1 LY23095     0.0000 
     31 H          18.0174   59.5050   22.2975 H         1 LY23095     0.0000 
     32 H          17.0112   60.5573   23.3075 H         1 LY23095     0.0000 
     33 H          24.4980   64.2835   18.1066 H         1 LY23095     0.0000 
     34 H          25.1699   62.2862   19.3176 H         1 LY23095     0.0000 
     35 H          22.3234   65.3071   18.5011 H         1 LY23095     0.0000 
     36 H          19.2435   63.2345   18.8940 H         1 LY23095     0.0000 
     37 H          17.0743   64.2577   19.3533 H         1 LY23095     0.0000 
     38 H          21.0836   66.0262   21.5064 H         1 LY23095     0.0000 
     39 H          18.9096   67.0330   21.9504 H         1 LY23095     0.0000 
     40 H          16.9181   66.2078   20.8085 H         1 LY23095     0.0000 
     41 H          22.9401   59.4431   22.7155 H         1 LY23095     0.0000 
@<TRIPOS>BOND
     1    2    1 1    
     2    3    1 1    
     3    4    1 1    
     4   24    1 1    
     5    5    2 1    
     6   25    2 1    
     7   26    2 1    
     8    7    3 1    
     9   27    3 1    
    10   28    3 1    
    11   15    4 1    
    12   22    4 2    
    13    6    5 1    
    14   29    5 1    
    15   30    5 1    
    16    7    6 1    
    17   31    7 1    
    18   32    7 1    
    19    9    8 ar   
    20   10    8 ar   
    21   33    8 1    
    22   11    9 ar   
    23   34    9 1    
    24   14   10 ar   
    25   35   10 1    
    26   12   11 ar   
    27   13   11 1    
    28   14   12 ar   
    29   15   12 1    
    30   22   13 1    
    31   23   13 2    
    32   16   14 1    
    33   17   16 ar   
    34   19   16 ar   
    35   18   17 ar   
    36   36   17 1    
    37   21   18 ar   
    38   37   18 1    
    39   20   19 ar   
    40   38   19 1    
    41   21   20 ar   
    42   39   20 1    
    43   40   21 1    
    44   41   22 1    
@<TRIPOS>SUBSTRUCTURE
     1 LY23095     1 GROUP   
@<TRIPOS>SET

