#    Name: 2qmf_CS9_2_INTS_M
#    Modification time : Mon Mar 24 22:30:31 2014

@<TRIPOS>MOLECULE
2qmf_CS9_2_INTS_M
  102     0    12     0     0
SMALL
NO_CHARGES


@<TRIPOS>ATOM
      1 CA         16.1790   30.9400   60.5320 C.3       4 GLC5        0.0000 
      2 CA         16.3130   29.5030   58.9130 C.3      12 GLL5        0.0000 
      3 CA         16.0450   32.3770   62.1510 C.3       8 GLP5        0.0000 
      4 CA         20.5575   29.4135   59.4445 C.3       4 GLC5        0.0000 
      5 CA         18.7380   29.8600   59.0730 C.3      12 GLL5        0.0000 
      6 CA         22.3770   28.9670   59.8160 C.3       8 GLP5        0.0000 
      7 N          13.7520   32.3830   59.5380 N.am      2 SEC2        0.0000 
      8 N          14.0060   31.3930   58.6360 N.am     10 SEL2        0.0000 
      9 N          13.4980   33.3730   60.4400 N.am      6 SEP2        0.0000 
     10 N          12.6870   32.0320   58.5995 N.am      2 SEC2        0.0000 
     11 N          11.3680   32.6710   58.5630 N.am      6 SEP2        0.0000 
     12 CA         12.2200   32.1490   58.0355 C.3       4 GLC5        0.0000 
     13 CA         13.1750   31.9320   56.1120 C.3      12 GLL5        0.0000 
     14 CA         11.2650   32.3660   59.9590 C.3       8 GLP5        0.0000 
     15 CA         11.6755   34.0540   54.5485 C.3       4 GLC5        0.0000 
     16 CA         13.2020   33.4070   55.6190 C.3      12 GLL5        0.0000 
     17 CA         10.1490   34.7010   53.4780 C.3       8 GLP5        0.0000 
     18 CA         12.8655   36.0830   55.7700 C.3       4 GLC5        0.0000 
     19 CA         13.9030   34.3930   56.5820 C.3      12 GLL5        0.0000 
     20 CA         11.8280   37.7730   54.9580 C.3       8 GLP5        0.0000 
     21 CA         14.8415   34.3215   58.5300 C.3       4 GLC5        0.0000 
     22 CA         15.7800   34.2500   60.4780 C.3       8 GLP5        0.0000 
     23 CA         19.7960   27.7320   60.3165 C.3       4 GLC5        0.0000 
     24 CA         17.7100   27.7440   60.0900 C.3      12 GLL5        0.0000 
     25 CA         21.8820   27.7200   60.5430 C.3       8 GLP5        0.0000 
     26 CA         17.2905   28.5275   62.0440 C.3       4 GLC5        0.0000 
     27 CA         16.8710   29.3110   63.9980 C.3       8 GLP5        0.0000 
     28 O          18.3545   34.1190   58.0425 O.2       1 ALC1        0.0000 
     29 O          19.6120   33.2560   57.9330 O.2       9 ALL1        0.0000 
     30 O          17.0970   34.9820   58.1520 O.2       5 ALP1        0.0000 
     31 N          21.1545   30.0160   57.4195 N.am      2 SEC2        0.0000 
     32 N          20.9330   31.4130   57.9720 N.am     10 SEL2        0.0000 
     33 N          21.3760   28.6190   56.8670 N.am      6 SEP2        0.0000 
     34 CA         18.7100   36.2050   57.5640 C.3       4 GLC5        0.0000 
     35 CA         20.2410   35.0910   56.4160 C.3      12 GLL5        0.0000 
     36 CA         17.1790   37.3190   58.7120 C.3       8 GLP5        0.0000 
     37 O          21.7965   37.0490   57.8585 O.2       1 ALC1        0.0000 
     38 O          22.1620   35.9320   58.4760 O.2       9 ALL1        0.0000 
     39 O          21.4310   38.1660   57.2410 O.2       5 ALP1        0.0000 
     40 CA         19.0860   31.9000   51.2440 C.3       4 GLC5        0.0000 
     41 CA         18.4390   32.7410   53.1780 C.3      12 GLL5        0.0000 
     42 CA         19.7330   31.0590   49.3100 C.3       8 GLP5        0.0000 
     43 CA         22.0345   32.5140   55.2035 C.3       4 GLC5        0.0000 
     44 CA         20.3610   33.2450   54.6460 C.3      12 GLL5        0.0000 
     45 CA         23.7080   31.7830   55.7610 C.3       8 GLP5        0.0000 
     46 CA         19.8130   31.1730   55.1940 C.3       4 GLC5        0.0000 
     47 CA         19.2650   29.1010   55.7420 C.3       8 GLP5        0.0000 
     48 CA         14.9900   33.4000   52.6340 C.3       4 GLC5        0.0000 
     49 CA         16.4510   34.0290   53.4500 C.3      12 GLL5        0.0000 
     50 CA         13.5290   32.7710   51.8180 C.3       8 GLP5        0.0000 
     51 CA         15.9815   34.9755   52.1235 C.3       4 GLC5        0.0000 
     52 CA         15.5120   35.9220   50.7970 C.3       8 GLP5        0.0000 
     53 CA         22.2835   32.3410   53.3380 C.3       4 GLC5        0.0000 
     54 CA         20.4680   31.5350   53.0130 C.3      12 GLL5        0.0000 
     55 CA         24.0990   33.1470   53.6630 C.3       8 GLP5        0.0000 
     56 CA         21.2790   29.9555   52.7835 C.3       4 GLC5        0.0000 
     57 CA         22.0900   28.3760   52.5540 C.3       8 GLP5        0.0000 
     58 CA         20.8345   32.5690   51.7645 C.3       4 GLC5        0.0000 
     59 CA         21.2010   33.6030   50.5160 C.3       8 GLP5        0.0000 
     60 CA         22.4690   35.0085   63.6890 C.3       4 GLC5        0.0000 
     61 CA         22.7870   34.2370   62.0400 C.3      12 GLL5        0.0000 
     62 CA         22.1510   35.7800   65.3380 C.3       8 GLP5        0.0000 
     63 OD1        20.5050   36.2950   61.2635 O.co2     3 ASC3        0.0000 
     64 OD1        22.0000   35.1310   61.1790 O.co2    11 ASL3        0.0000 
     65 OD1        19.0100   37.4590   61.3480 O.co2     7 ASP3        0.0000 
     66 OD1        20.7865   35.3265   61.7035 O.co2     3 ASC3        0.0000 
     67 OD1        19.5730   35.5220   62.2280 O.co2     7 ASP3        0.0000 
     68 CA         23.4540   33.8040   57.7925 C.3       4 GLC5        0.0000 
     69 CA         22.7850   33.3220   59.8320 C.3      12 GLL5        0.0000 
     70 CA         24.1230   34.2860   55.7530 C.3       8 GLP5        0.0000 
     71 CA         22.5810   31.1445   59.8240 C.3       4 GLC5        0.0000 
     72 CA         18.1075   29.1902   57.4360 C.3       4 GLC5        0.0000 
     73 CA         17.5870   29.0560   59.3470 C.3      12 GLL5        0.0000 
     74 CA         18.9703   29.7905   57.2325 C.3       4 GLC5        0.0000 
     75 CA         18.0102   30.1110   56.9125 C.3       4 GLC5        0.0000 
     76 CA         17.3340   31.5200   57.9510 C.3      12 GLL5        0.0000 
     77 CA         16.2677   32.6855   59.2805 C.3       4 GLC5        0.0000 
     78 CA         14.3697   31.7205   53.3005 C.3       4 GLC5        0.0000 
     79 CA         14.9700   30.1010   54.3200 C.3      12 GLL5        0.0000 
     80 CA         16.6976   29.3485   54.6923 C.3       4 GLC5        0.0000 
     81 CA         15.4510   31.2390   55.2460 C.3      12 GLL5        0.0000 
     82 CA         18.4580   28.9700   54.4570 C.3       8 GLP5        0.0000 
     83 CA         13.3588   32.7203   53.8418 C.3       4 GLC5        0.0000 
     84 CA         22.3489   34.5754   56.5381 C.3       4 GLC5        0.0000 
     85 CA         20.7120   34.2100   57.6200 C.3      12 GLL5        0.0000 
     86 CA         20.5048   36.3582   54.8255 C.3       4 GLC5        0.0000 
     87 CA         21.0780   38.0320   53.7950 C.3       8 GLP5        0.0000 
     88 CA         17.2481   36.0236   53.8589 C.3       4 GLC5        0.0000 
     89 CA         18.2870   34.5380   54.8810 C.3      12 GLL5        0.0000 
     90 CA         17.2700   37.9560   53.8150 C.3       8 GLP5        0.0000 
     91 CA         19.1209   30.5239   53.8300 C.3       4 GLC5        0.0000 
     92 CA         24.6262   34.9757   62.4952 C.3       4 GLC5        0.0000 
     93 CA         23.7020   33.4980   61.0630 C.3      12 GLL5        0.0000 
     94 CA         26.0080   36.0840   63.4390 C.3       8 GLP5        0.0000 
     95 CA         27.6475   34.3932   56.0433 C.3       4 GLC5        0.0000 
     96 CA         27.7960   33.6880   57.8870 C.3      12 GLL5        0.0000 
     97 CA         27.7350   34.4460   54.0520 C.3       8 GLP5        0.0000 
     98 CA         26.1110   32.0821   57.3498 C.3       4 GLC5        0.0000 
     99 CA         24.9370   30.9930   56.2210 C.3       8 GLP5        0.0000 
    100 CA         25.6865   36.6628   58.1410 C.3       4 GLC5        0.0000 
    101 CA         27.3240   34.9930   58.1820 C.3      12 GLL5        0.0000 
    102 CA         24.5470   38.2430   57.6070 C.3       8 GLP5        0.0000 
@<TRIPOS>BOND
@<TRIPOS>SUBSTRUCTURE
     1 ALC1       28 GROUP        1 X    ALC  0     ROOT ALC X 1
     2 SEC2        7 GROUP        1 X    SEC  0     **** SEC X 2
     3 ASC3       63 GROUP        1 X    ASC  0     **** ASC X 3
     4 GLC5        1 GROUP        1 X    GLC  0     **** GLC X 6
     5 ALP1       30 GROUP        1 Y    ALP  0     ROOT ALP Y 8
     6 SEP2        9 GROUP        1 Y    SEP  0     **** SEP Y 9
     7 ASP3       65 GROUP        1 Y    ASP  0     **** ASP Y 10
     8 GLP5        3 GROUP        1 Y    GLP  0     **** GLP Y 13
     9 ALL1       29 GROUP        1 Z    ALL  0     ROOT ALL Z 15
    10 SEL2        8 GROUP        1 Z    SEL  0     **** SEL Z 16
    11 ASL3       64 GROUP        1 Z    ASL  0     **** ASL Z 17
    12 GLL5        2 GROUP        1 Z    GLL  0     **** GLL Z 20
@<TRIPOS>SET

