#    Name: 2qmf_CS9_2_ligand
#    Modification time : Mon Mar 24 22:30:31 2014

@<TRIPOS>MOLECULE
2qmf_CS9_2_ligand
   83    86     1     0     0
SMALL
NO_CHARGES


@<TRIPOS>ATOM
      1 C1         16.3130   29.5030   58.9130 C.ar      1 CS91        0.0000 
      2 C2         17.5870   29.0560   59.3470 C.ar      1 CS91        0.0000 
      3 C3         18.7380   29.8600   59.0730 C.ar      1 CS91        0.0000 
      4 C4         18.6130   31.1000   58.3730 C.ar      1 CS91        0.0000 
      5 C5         17.3340   31.5200   57.9510 C.ar      1 CS91        0.0000 
      6 C6         16.1770   30.7220   58.2150 C.ar      1 CS91        0.0000 
      7 C7         14.8490   31.1960   57.7730 C.2       1 CS91        0.0000 
      8 N1         14.5430   31.4380   56.4120 N.am      1 CS91        0.0000 
      9 O1         14.0060   31.3930   58.6360 O.2       1 CS91        0.0000 
     10 C8         15.4510   31.2390   55.2460 C.3       1 CS91        0.0000 
     11 C9         14.9700   30.1010   54.3200 C.3       1 CS91        0.0000 
     12 C10        14.6640   28.7840   55.0720 C.3       1 CS91        0.0000 
     13 C11        13.1750   31.9320   56.1120 C.3       1 CS91        0.0000 
     14 C12        13.2020   33.4070   55.6190 C.3       1 CS91        0.0000 
     15 C13        13.9030   34.3930   56.5820 C.3       1 CS91        0.0000 
     16 C30        17.7100   27.7440   60.0900 C.3       1 CS91        0.0000 
     17 C14        19.8130   31.9100   58.0860 C.2       1 CS91        0.0000 
     18 N2         19.6120   33.2560   57.9330 N.am      1 CS91        0.0000 
     19 O2         20.9330   31.4130   57.9720 O.2       1 CS91        0.0000 
     20 C15        20.7120   34.2100   57.6200 C.3       1 CS91        0.0000 
     21 C16        21.1050   35.0670   58.8410 C.3       1 CS91        0.0000 
     22 C17        20.2410   35.0910   56.4160 C.3       1 CS91        0.0000 
     23 O3         22.1620   35.9320   58.4760 O.3       1 CS91        0.0000 
     24 C19        19.6220   34.2780   55.2960 C.ar      1 CS91        0.0000 
     25 C21        18.2870   34.5380   54.8810 C.ar      1 CS91        0.0000 
     26 C22        17.7160   33.7690   53.8300 C.ar      1 CS91        0.0000 
     27 C23        18.4390   32.7410   53.1780 C.ar      1 CS91        0.0000 
     28 C24        19.7600   32.5000   53.6080 C.ar      1 CS91        0.0000 
     29 C25        20.3610   33.2450   54.6460 C.ar      1 CS91        0.0000 
     30 F2         16.4510   34.0290   53.4500 F         1 CS91        0.0000 
     31 F1         20.4680   31.5350   53.0130 F         1 CS91        0.0000 
     32 C26        23.7020   33.4980   61.0630 C.3       1 CS91        0.0000 
     33 C18        22.7870   34.2370   62.0400 C.3       1 CS91        0.0000 
     34 N3         22.0000   35.1310   61.1790 N.4       1 CS91        0.0000 
     35 C20        22.7850   33.3220   59.8320 C.3       1 CS91        0.0000 
     36 C27        21.5740   34.2530   60.0770 C.3       1 CS91        0.0000 
     37 O4         24.8050   34.3820   60.8240 O.3       1 CS91        0.0000 
     38 C31        25.7910   34.0580   59.8680 C.ar      1 CS91        0.0000 
     39 C32        26.2760   32.7420   59.5620 C.ar      1 CS91        0.0000 
     40 C33        27.2720   32.5670   58.5780 C.ar      1 CS91        0.0000 
     41 C34        27.7960   33.6880   57.8870 C.ar      1 CS91        0.0000 
     42 C35        27.3240   34.9930   58.1820 C.ar      1 CS91        0.0000 
     43 C36        26.3280   35.1720   59.1680 C.ar      1 CS91        0.0000 
     44 H          15.4843   28.9327   59.1098 H         1 CS91        0.0000 
     45 H          19.6583   29.5444   59.3809 H         1 CS91        0.0000 
     46 H          17.2239   32.4058   57.4489 H         1 CS91        0.0000 
     47 H          16.4633   30.9942   55.5906 H         1 CS91        0.0000 
     48 H          15.5136   32.1593   54.6522 H         1 CS91        0.0000 
     49 H          15.7416   29.9061   53.5662 H         1 CS91        0.0000 
     50 H          14.0638   30.4276   53.7968 H         1 CS91        0.0000 
     51 H          12.5447   31.8881   57.0037 H         1 CS91        0.0000 
     52 H          12.7085   31.3260   55.3312 H         1 CS91        0.0000 
     53 H          12.1662   33.7410   55.4598 H         1 CS91        0.0000 
     54 H          13.7101   33.4401   54.6440 H         1 CS91        0.0000 
     55 H          18.6685   33.6787   58.0299 H         1 CS91        0.0000 
     56 H          21.5819   33.6563   57.2850 H         1 CS91        0.0000 
     57 H          20.2340   35.6452   59.1432 H         1 CS91        0.0000 
     58 H          21.1094   35.6426   56.0404 H         1 CS91        0.0000 
     59 H          19.5151   35.8192   56.7933 H         1 CS91        0.0000 
     60 H          17.7451   35.2679   55.3321 H         1 CS91        0.0000 
     61 H          18.0243   32.2055   52.4378 H         1 CS91        0.0000 
     62 H          21.3169   33.0510   54.9341 H         1 CS91        0.0000 
     63 H          23.9446   32.5803   61.4637 H         1 CS91        0.0000 
     64 H          23.3893   34.7902   62.7260 H         1 CS91        0.0000 
     65 H          22.1629   33.5257   62.5340 H         1 CS91        0.0000 
     66 H          22.4518   32.3136   59.7775 H         1 CS91        0.0000 
     67 H          23.3009   33.6343   58.9561 H         1 CS91        0.0000 
     68 H          20.7540   33.6317   60.4259 H         1 CS91        0.0000 
     69 H          25.8942   31.9414   60.0613 H         1 CS91        0.0000 
     70 H          27.6183   31.6305   58.3609 H         1 CS91        0.0000 
     71 H          28.5152   33.5567   57.1748 H         1 CS91        0.0000 
     72 H          27.7032   35.7957   57.6837 H         1 CS91        0.0000 
     73 H          25.9868   36.1139   59.3832 H         1 CS91        0.0000 
     74 H          15.4703   28.4317   55.5472 H         1 CS91        0.0000 
     75 H          13.9487   28.9067   55.7599 H         1 CS91        0.0000 
     76 H          14.3527   28.0651   54.4504 H         1 CS91        0.0000 
     77 H          14.8593   34.1447   56.7364 H         1 CS91        0.0000 
     78 H          13.8966   35.3275   56.2262 H         1 CS91        0.0000 
     79 H          13.4582   34.4172   57.4773 H         1 CS91        0.0000 
     80 H          18.6579   27.5460   60.3396 H         1 CS91        0.0000 
     81 H          17.1781   27.7455   60.9368 H         1 CS91        0.0000 
     82 H          17.3846   26.9743   59.5408 H         1 CS91        0.0000 
     83 H          21.7180   36.7094   58.0304 H         1 CS91        0.0000 
@<TRIPOS>BOND
     1    2    1 ar   
     2    6    1 ar   
     3   44    1 1    
     4    3    2 ar   
     5   16    2 1    
     6    4    3 ar   
     7   45    3 1    
     8    5    4 ar   
     9   17    4 1    
    10    6    5 ar   
    11   46    5 1    
    12    7    6 1    
    13    8    7 am   
    14    9    7 2    
    15   10    8 1    
    16   13    8 1    
    17   11   10 1    
    18   47   10 1    
    19   48   10 1    
    20   12   11 1    
    21   49   11 1    
    22   50   11 1    
    23   74   12 1    
    24   75   12 1    
    25   76   12 1    
    26   14   13 1    
    27   51   13 1    
    28   52   13 1    
    29   15   14 1    
    30   53   14 1    
    31   54   14 1    
    32   77   15 1    
    33   78   15 1    
    34   79   15 1    
    35   80   16 1    
    36   81   16 1    
    37   82   16 1    
    38   18   17 am   
    39   19   17 2    
    40   20   18 1    
    41   55   18 1    
    42   21   20 1    
    43   22   20 1    
    44   56   20 1    
    45   23   21 1    
    46   36   21 1    
    47   57   21 1    
    48   24   22 1    
    49   58   22 1    
    50   59   22 1    
    51   83   23 1    
    52   25   24 ar   
    53   29   24 ar   
    54   26   25 ar   
    55   60   25 1    
    56   27   26 ar   
    57   30   26 1    
    58   28   27 ar   
    59   61   27 1    
    60   29   28 ar   
    61   31   28 1    
    62   62   29 1    
    63   33   32 1    
    64   35   32 1    
    65   37   32 1    
    66   63   32 1    
    67   34   33 1    
    68   64   33 1    
    69   65   33 1    
    70   36   34 1    
    71   36   35 1    
    72   66   35 1    
    73   67   35 1    
    74   68   36 1    
    75   38   37 1    
    76   39   38 ar   
    77   43   38 ar   
    78   40   39 ar   
    79   69   39 1    
    80   41   40 ar   
    81   70   40 1    
    82   42   41 ar   
    83   71   41 1    
    84   43   42 ar   
    85   72   42 1    
    86   73   43 1    
@<TRIPOS>SUBSTRUCTURE
     1 CS91        1 GROUP   
@<TRIPOS>SET

