#    Name: 4inb_1F6_1_INTS_M
#    Modification time : Tue Mar 25 04:12:25 2014

@<TRIPOS>MOLECULE
4inb_1F6_1_INTS_M
   96     0     6     0     0
SMALL
NO_CHARGES


@<TRIPOS>ATOM
      1 CA         24.4430   14.5370   40.9320 C.3       2 GLC5        0.0000 
      2 CA         24.7830   13.1970   39.2660 C.3       6 GLL5        0.0000 
      3 CA         24.1030   15.8770   42.5980 C.3       4 GLP5        0.0000 
      4 CA         25.0620   16.1890   38.9520 C.3       2 GLC5        0.0000 
      5 CA         25.4850   14.2360   38.6050 C.3       6 GLL5        0.0000 
      6 CA         24.6390   18.1420   39.2990 C.3       4 GLP5        0.0000 
      7 CA         25.6615    6.5135   34.1705 C.3       2 GLC5        0.0000 
      8 CA         24.5920    6.3920   36.1270 C.3       6 GLL5        0.0000 
      9 CA         26.7310    6.6350   32.2140 C.3       4 GLP5        0.0000 
     10 CA         26.3915    5.6565   36.5475 C.3       2 GLC5        0.0000 
     11 CA         28.1910    4.9210   36.9680 C.3       4 GLP5        0.0000 
     12 CA         25.5345    8.6180   35.0890 C.3       2 GLC5        0.0000 
     13 CA         24.0210    7.0630   34.8710 C.3       6 GLL5        0.0000 
     14 CA         27.0480   10.1730   35.3070 C.3       4 GLP5        0.0000 
     15 CA         24.2585    7.1875   33.0195 C.3       2 GLC5        0.0000 
     16 CA         24.4960    7.3120   31.1680 C.3       4 GLP5        0.0000 
     17 CA         23.2515   10.1995   32.2700 C.3       2 GLC5        0.0000 
     18 CA         23.4790    9.2280   34.0630 C.3       6 GLL5        0.0000 
     19 CA         23.0240   11.1710   30.4770 C.3       4 GLP5        0.0000 
     20 CA         25.2635    9.7005   34.6850 C.3       2 GLC5        0.0000 
     21 CA         23.9875    8.2700   32.6155 C.3       2 GLC5        0.0000 
     22 CA         23.8765   10.9955   34.6795 C.3       2 GLC5        0.0000 
     23 CA         24.2740   12.7630   35.2960 C.3       4 GLP5        0.0000 
     24 CA         28.7040   12.8230   41.2655 C.3       2 GLC5        0.0000 
     25 CA         29.1630   10.9160   40.9340 C.3       6 GLL5        0.0000 
     26 CA         28.2450   14.7300   41.5970 C.3       4 GLP5        0.0000 
     27 CA         30.4770   12.9340   42.0715 C.3       2 GLC5        0.0000 
     28 CA         30.5150   11.0390   41.3430 C.3       6 GLL5        0.0000 
     29 CA         30.4390   14.8290   42.8000 C.3       4 GLP5        0.0000 
     30 CA         32.8190   12.3675   40.6815 C.3       2 GLC5        0.0000 
     31 CA         31.5640   10.7780   40.4200 C.3       6 GLL5        0.0000 
     32 CA         34.0740   13.9570   40.9430 C.3       4 GLP5        0.0000 
     33 CA         32.7505    8.9355   38.9455 C.3       2 GLC5        0.0000 
     34 CA         31.2690   10.3910   39.0900 C.3       6 GLL5        0.0000 
     35 CA         34.2320    7.4800   38.8010 C.3       4 GLP5        0.0000 
     36 CA         28.4850   10.2200   36.9910 C.3       2 GLC5        0.0000 
     37 CA         29.9220   10.2670   38.6750 C.3       6 GLL5        0.0000 
     38 CA         30.8775   11.5360   37.4530 C.3       2 GLC5        0.0000 
     39 CA         31.8330   12.8050   36.2310 C.3       4 GLP5        0.0000 
     40 CA         23.6840    9.9640   42.4610 C.3       2 GLC5        0.0000 
     41 CA         23.7680   11.3480   41.3250 C.3       6 GLL5        0.0000 
     42 CA         23.6000    8.5800   43.5970 C.3       4 GLP5        0.0000 
     43 CA         21.8130   11.4325   41.4085 C.3       2 GLC5        0.0000 
     44 CA         19.8580   11.5170   41.4920 C.3       4 GLP5        0.0000 
     45 CA         24.8980   11.4285   42.7115 C.3       2 GLC5        0.0000 
     46 CA         26.0280   11.5090   44.0980 C.3       4 GLP5        0.0000 
     47 CA         27.9285   14.9085   39.5150 C.3       2 GLC5        0.0000 
     48 CA         27.6120   15.0870   37.4330 C.3       6 GLL5        0.0000 
     49 CA         30.3975   13.8285   36.8425 C.3       2 GLC5        0.0000 
     50 CA         28.9620   14.8520   37.4540 C.3       6 GLL5        0.0000 
     51 CA         29.5320   15.4950   39.0730 C.3       2 GLC5        0.0000 
     52 CA         30.1020   16.1380   40.6920 C.3       4 GLP5        0.0000 
     53 CA         26.0490   17.2290   38.6530 C.3       2 GLC5        0.0000 
     54 CA         27.4590   16.3160   38.0070 C.3       6 GLL5        0.0000 
     55 CA         28.7805   16.2270   39.3495 C.3       2 GLC5        0.0000 
     56 CA         28.3245   15.4555   34.7055 C.3       2 GLC5        0.0000 
     57 CA         27.2920   15.2330   36.1240 C.3       6 GLL5        0.0000 
     58 CA         29.3570   15.6780   33.2870 C.3       4 GLP5        0.0000 
     59 CA         25.9435   15.0520   35.0520 C.3       2 GLC5        0.0000 
     60 CA         24.5950   14.8710   33.9800 C.3       4 GLP5        0.0000 
     61 N          28.8570    7.5260   38.7965 N.am      1 SEC2        0.0000 
     62 N          27.6210    8.1460   38.5710 N.am      5 SEL2        0.0000 
     63 N          30.0930    6.9060   39.0220 N.am      3 SEP2        0.0000 
     64 N          22.3465    8.2500   40.1640 N.am      1 SEC2        0.0000 
     65 N          23.6990    8.7590   40.4460 N.am      5 SEL2        0.0000 
     66 N          20.9940    7.7410   39.8820 N.am      3 SEP2        0.0000 
     67 CA         27.0437   11.1883   36.9895 C.3       2 GLC5        0.0000 
     68 CA         27.3780   12.7460   38.3380 C.3       6 GLL5        0.0000 
     69 CA         27.5708   13.6252   40.1088 C.3       2 GLC5        0.0000 
     70 CA         26.7010   11.6610   39.0060 C.3       6 GLL5        0.0000 
     71 CA         26.6895   14.2233   40.2662 C.3       2 GLC5        0.0000 
     72 CA         26.0852    9.3262   36.8640 C.3       2 GLC5        0.0000 
     73 CA         25.4210    8.8820   38.8640 C.3       6 GLL5        0.0000 
     74 CA         25.9277    7.6747   40.0745 C.3       2 GLC5        0.0000 
     75 CA         24.8240    8.0770   37.9780 C.3       6 GLL5        0.0000 
     76 CA         26.7330    6.8700   41.7280 C.3       4 GLP5        0.0000 
     77 CA         23.1642    8.8972   38.2335 C.3       2 GLC5        0.0000 
     78 CA         21.2060    9.3150   38.0460 C.3       4 GLP5        0.0000 
     79 CA         29.8863    8.8492   40.2850 C.3       2 GLC5        0.0000 
     80 CA         28.8340   10.5270   39.5880 C.3       6 GLL5        0.0000 
     81 CA         30.7740    6.9770   40.3090 C.3       4 GLP5        0.0000 
     82 CA         28.8680   10.0708   42.5422 C.3       2 GLC5        0.0000 
     83 CA         27.8970    9.1640   43.9460 C.3       4 GLP5        0.0000 
     84 CA         30.9068    8.9428   40.5953 C.3       2 GLC5        0.0000 
     85 CA         32.2157   11.2188   38.0565 C.3       2 GLC5        0.0000 
     86 CA         33.0150   11.8530   36.3580 C.3       4 GLP5        0.0000 
     87 CA         30.6848    8.6530   39.5957 C.3       2 GLC5        0.0000 
     88 CA         32.1211    9.9349   41.3819 C.3       2 GLC5        0.0000 
     89 CA         33.0880    9.2200   42.7780 C.3       4 GLP5        0.0000 
     90 CA         29.3530   15.2148   35.8028 C.3       2 GLC5        0.0000 
     91 CA         30.4190   15.4600   34.1620 C.3       4 GLP5        0.0000 
     92 CA         27.9318   13.5996   35.4424 C.3       2 GLC5        0.0000 
     93 CA         28.0740   12.0980   34.1010 C.3       4 GLP5        0.0000 
     94 CA         28.4983   17.0299   36.8643 C.3       2 GLC5        0.0000 
     95 CA         29.4140   18.6220   36.8040 C.3       4 GLP5        0.0000 
     96 CA         24.9787   12.9689   37.0970 C.3       2 GLC5        0.0000 
@<TRIPOS>BOND
@<TRIPOS>SUBSTRUCTURE
     1 SEC2       61 GROUP        1 X    SEC  0     ROOT SEC X 2
     2 GLC5        1 GROUP        1 X    GLC  0     **** GLC X 6
     3 SEP2       63 GROUP        1 Y    SEP  0     ROOT SEP Y 9
     4 GLP5        3 GROUP        1 Y    GLP  0     **** GLP Y 13
     5 SEL2       62 GROUP        1 Z    SEL  0     ROOT SEL Z 16
     6 GLL5        2 GROUP        1 Z    GLL  0     **** GLL Z 20
@<TRIPOS>SET

