#    Name: 4inb_1F6_1_ligand
#    Modification time : Tue Mar 25 04:12:25 2014

@<TRIPOS>MOLECULE
4inb_1F6_1_ligand
   49    51     1     0     0
SMALL
NO_CHARGES


@<TRIPOS>ATOM
      1 C1         26.8060   14.0140   38.1320 C.ar      1 1F6201      0.0000 
      2 C2         27.3780   12.7460   38.3380 C.ar      1 1F6201      0.0000 
      3 C3         26.7010   11.6610   39.0060 C.ar      1 1F6201      0.0000 
      4 C4         25.3740   11.8860   39.4860 C.ar      1 1F6201      0.0000 
      5 C5         24.7830   13.1970   39.2660 C.ar      1 1F6201      0.0000 
      6 C6         25.4850   14.2360   38.6050 C.ar      1 1F6201      0.0000 
      7 N7         27.4290   10.4100   39.1510 N.am      1 1F6201      0.0000 
      8 C8         26.9080    9.1150   38.8630 C.2       1 1F6201      0.0000 
      9 C9         25.4210    8.8820   38.8640 C.2       1 1F6201      0.0000 
     10 C10        24.5240    9.5030   39.8900 C.2       1 1F6201      0.0000 
     11 N11        24.5920   10.8900   40.1780 N.am      1 1F6201      0.0000 
     12 C12        24.8240    8.0770   37.9780 C.2       1 1F6201      0.0000 
     13 N13        25.3450    7.3410   36.9420 N.4       1 1F6201      0.0000 
     14 C14        24.5920    6.3920   36.1270 C.3       1 1F6201      0.0000 
     15 C15        24.0210    7.0630   34.8710 C.3       1 1F6201      0.0000 
     16 O16        23.4390    8.3510   35.1900 O.3       1 1F6201      0.0000 
     17 C17        23.4790    9.2280   34.0630 C.3       1 1F6201      0.0000 
     18 C18        28.8340   10.5270   39.5880 C.ar      1 1F6201      0.0000 
     19 C19        29.1630   10.9160   40.9340 C.ar      1 1F6201      0.0000 
     20 C20        30.5150   11.0390   41.3430 C.ar      1 1F6201      0.0000 
     21 C21        31.5640   10.7780   40.4200 C.ar      1 1F6201      0.0000 
     22 C22        31.2690   10.3910   39.0900 C.ar      1 1F6201      0.0000 
     23 C23        29.9220   10.2670   38.6750 C.ar      1 1F6201      0.0000 
     24 C24        23.7680   11.3480   41.3250 C.3       1 1F6201      0.0000 
     25 C25        27.6120   15.0870   37.4330 C.3       1 1F6201      0.0000 
     26 F26        28.9620   14.8520   37.4540 F         1 1F6201      0.0000 
     27 F27        27.4590   16.3160   38.0070 F         1 1F6201      0.0000 
     28 F28        27.2920   15.2330   36.1240 F         1 1F6201      0.0000 
     29 O29        27.6210    8.1460   38.5710 O.2       1 1F6201      0.0000 
     30 O30        23.6990    8.7590   40.4460 O.2       1 1F6201      0.0000 
     31 H          28.3467   12.5646   37.9936 H         1 1F6201      0.0000 
     32 H          23.8268   13.3592   39.6060 H         1 1F6201      0.0000 
     33 H          25.0425   15.1441   38.4682 H         1 1F6201      0.0000 
     34 H          23.7185    7.9790   38.0889 H         1 1F6201      0.0000 
     35 H          23.7534    5.9666   36.6945 H         1 1F6201      0.0000 
     36 H          25.2306    5.5584   35.8050 H         1 1F6201      0.0000 
     37 H          23.2735    6.3851   34.4382 H         1 1F6201      0.0000 
     38 H          24.8373    7.1646   34.1438 H         1 1F6201      0.0000 
     39 H          28.4076   11.1035   41.5949 H         1 1F6201      0.0000 
     40 H          30.7364   11.3145   42.2985 H         1 1F6201      0.0000 
     41 H          32.5363   10.8708   40.7202 H         1 1F6201      0.0000 
     42 H          32.0254   10.2024   38.4339 H         1 1F6201      0.0000 
     43 H          29.7024    9.9893   37.7151 H         1 1F6201      0.0000 
     44 H          24.4153    9.3894   33.7511 H         1 1F6201      0.0000 
     45 H          22.9709    8.8572   33.2856 H         1 1F6201      0.0000 
     46 H          23.0820   10.1214   34.2734 H         1 1F6201      0.0000 
     47 H          24.3288   11.7548   42.0461 H         1 1F6201      0.0000 
     48 H          23.0989   12.0382   41.0495 H         1 1F6201      0.0000 
     49 H          23.2580   10.5947   41.7402 H         1 1F6201      0.0000 
@<TRIPOS>BOND
     1    2    1 ar   
     2    6    1 ar   
     3   25    1 1    
     4    3    2 ar   
     5   31    2 1    
     6    4    3 ar   
     7    7    3 1    
     8    5    4 ar   
     9   11    4 1    
    10    6    5 ar   
    11   32    5 1    
    12   33    6 1    
    13    8    7 am   
    14   18    7 1    
    15    9    8 1    
    16   29    8 2    
    17   10    9 1    
    18   12    9 2    
    19   11   10 am   
    20   30   10 2    
    21   24   11 1    
    22   13   12 1    
    23   34   12 1    
    24   14   13 1    
    25   15   14 1    
    26   35   14 1    
    27   36   14 1    
    28   16   15 1    
    29   37   15 1    
    30   38   15 1    
    31   17   16 1    
    32   44   17 1    
    33   45   17 1    
    34   46   17 1    
    35   19   18 ar   
    36   23   18 ar   
    37   20   19 ar   
    38   39   19 1    
    39   21   20 ar   
    40   40   20 1    
    41   22   21 ar   
    42   41   21 1    
    43   23   22 ar   
    44   42   22 1    
    45   43   23 1    
    46   47   24 1    
    47   48   24 1    
    48   49   24 1    
    49   26   25 1    
    50   27   25 1    
    51   28   25 1    
@<TRIPOS>SUBSTRUCTURE
     1 1F6201      1 GROUP   
@<TRIPOS>SET

