#    Name: 3kjr_NAP_1_INTS_M
#    Modification time : Mon Mar 24 19:41:21 2014

@<TRIPOS>MOLECULE
3kjr_NAP_1_INTS_M
   95     0    12     0     0
SMALL
NO_CHARGES


@<TRIPOS>ATOM
      1 N          -8.7010    6.3050   -1.7235 N.am      2 SEC2        0.0000 
      2 N          -9.5680    6.2590   -3.0480 N.am     10 SEL2        0.0000 
      3 N          -7.8340    6.3510   -0.3990 N.am      6 SEP2        0.0000 
      4 N         -10.2010    4.6480   -2.8720 N.am      2 SEC2        0.0000 
      5 N         -10.8340    3.0370   -2.6960 N.am      6 SEP2        0.0000 
      6 N          -9.0195    8.7630   -0.2970 N.am      2 SEC2        0.0000 
      7 N          -9.3380    8.4580   -1.6010 N.am     10 SEL2        0.0000 
      8 N          -8.7010    9.0680    1.0070 N.am      6 SEP2        0.0000 
      9 N          -9.3915    9.8350   -1.2520 N.am      2 SEC2        0.0000 
     10 N          -9.4450   11.2120   -0.9030 N.am      6 SEP2        0.0000 
     11 N          -8.5860    7.4045   -1.0000 N.am      2 SEC2        0.0000 
     12 N          -9.9930   10.0485   -3.7960 N.am      2 SEC2        0.0000 
     13 N         -10.0260    8.5470   -3.9410 N.am     10 SEL2        0.0000 
     14 N          -9.9600   11.5500   -3.6510 N.am      6 SEP2        0.0000 
     15 CA        -11.8360    6.6475   -4.9070 C.3       4 GLC5        0.0000 
     16 CA        -10.7820    8.1680   -5.0810 C.3      12 GLL5        0.0000 
     17 CA        -12.8900    5.1270   -4.7330 C.3       8 GLP5        0.0000 
     18 N          -8.1370    9.5970   -5.5230 N.am      2 SEC2        0.0000 
     19 N          -8.7420    8.6460   -6.1670 N.am     10 SEL2        0.0000 
     20 N          -7.5320   10.5480   -4.8790 N.am      6 SEP2        0.0000 
     21 CA         -7.2535    8.6035   -5.6450 C.3       4 GLC5        0.0000 
     22 CA         -8.2490    8.4530   -7.4910 C.3      12 GLL5        0.0000 
     23 CA         -6.2580    8.7540   -3.7990 C.3       8 GLP5        0.0000 
     24 CA         -3.9650    5.3795  -10.4485 C.3       4 GLC5        0.0000 
     25 CA         -5.5780    4.9630   -9.5530 C.3      12 GLL5        0.0000 
     26 CA         -2.3520    5.7960  -11.3440 C.3       8 GLP5        0.0000 
     27 O          -4.9675    2.6035   -8.6985 O.2       1 ALC1        0.0000 
     28 O          -4.9570    3.7600   -9.4110 O.2       9 ALL1        0.0000 
     29 O          -4.9780    1.4470   -7.9860 O.2       5 ALP1        0.0000 
     30 CA         -6.5010    8.1750  -12.5555 C.3       4 GLC5        0.0000 
     31 CA         -6.1250    6.7950  -10.9610 C.3      12 GLL5        0.0000 
     32 CA         -6.8770    9.5550  -14.1500 C.3       8 GLP5        0.0000 
     33 CA         -4.2385    6.2955  -11.1525 C.3       4 GLC5        0.0000 
     34 N         -11.8005    4.3125   -2.0970 N.am      2 SEC2        0.0000 
     35 N         -12.7670    5.5880   -1.4980 N.am     10 SEL2        0.0000 
     36 CA        -12.1520    9.7855   -0.9325 C.3       4 GLC5        0.0000 
     37 CA        -12.1220    8.6080    0.8200 C.3      12 GLL5        0.0000 
     38 CA        -12.1820   10.9630   -2.6850 C.3       8 GLP5        0.0000 
     39 CA        -10.4200    9.9945    0.5935 C.3       4 GLC5        0.0000 
     40 CA         -8.7180   11.3810    0.3670 C.3       8 GLP5        0.0000 
     41 CA        -10.5720    7.2105    0.5435 C.3       4 GLC5        0.0000 
     42 CA         -9.0220    5.8130    0.2670 C.3       8 GLP5        0.0000 
     43 CA        -13.8365    6.6975    1.9570 C.3       4 GLC5        0.0000 
     44 CA        -12.9660    8.4590    2.0830 C.3      12 GLL5        0.0000 
     45 CA        -14.7070    4.9360    1.8310 C.3       8 GLP5        0.0000 
     46 CA        -14.4050   10.9810    2.5965 C.3       4 GLC5        0.0000 
     47 CA        -13.0120    9.7590    2.8700 C.3      12 GLL5        0.0000 
     48 CA        -15.7980   12.2030    2.3230 C.3       8 GLP5        0.0000 
     49 CA        -11.2655    9.7120    6.0260 C.3       4 GLC5        0.0000 
     50 CA        -11.8920    9.6080    3.8760 C.3      12 GLL5        0.0000 
     51 CA        -10.6390    9.8160    8.1760 C.3       8 GLP5        0.0000 
     52 CA        -13.7165    7.6510    4.8540 C.3       4 GLC5        0.0000 
     53 CA        -11.9390    8.1130    4.1730 C.3      12 GLL5        0.0000 
     54 CA        -15.4940    7.1890    5.5350 C.3       8 GLP5        0.0000 
     55 N          -7.9935    4.3870    8.8605 N.am      2 SEC2        0.0000 
     56 N          -8.2290    5.4770    8.0460 N.am     10 SEL2        0.0000 
     57 N          -7.7580    3.2970    9.6750 N.am      6 SEP2        0.0000 
     58 O         -11.8815    6.1770    7.7185 O.2       1 ALC1        0.0000 
     59 O         -10.4990    5.8300    8.3810 O.2       9 ALL1        0.0000 
     60 O         -13.2640    6.5240    7.0560 O.2       5 ALP1        0.0000 
     61 CA         -9.3100    6.6635    2.0030 C.3       4 GLC5        0.0000 
     62 CA         -9.5980    7.5140    3.7390 C.3      12 GLL5        0.0000 
     63 N          -7.8050   11.0260  -11.7585 N.am      2 SEC2        0.0000 
     64 N          -9.1710   10.4310  -11.4930 N.am     10 SEL2        0.0000 
     65 N          -6.4390   11.6210  -12.0240 N.am      6 SEP2        0.0000 
     66 NZ        -10.3010   12.7600   -8.6190 N.4       3 LYC4        0.0000 
     67 NZ         -9.6000   12.1580   -9.6980 N.4      11 LYL4        0.0000 
     68 NZ        -12.3020   13.2830   -7.2540 N.4       7 LYP4        0.0000 
     69 N         -10.3010   12.7600   -8.6190 N.am      2 SEC2        0.0000 
     70 N          -9.6000   12.1580   -9.6980 N.am     10 SEL2        0.0000 
     71 N         -11.0020   13.3620   -7.5400 N.am      6 SEP2        0.0000 
     72 N          -8.1900   12.8500   -9.6580 N.am      2 SEC2        0.0000 
     73 N          -6.7800   13.5420   -9.6180 N.am      6 SEP2        0.0000 
     74 N          -9.7050   13.4995  -10.1925 N.am      2 SEC2        0.0000 
     75 N          -9.8100   14.8410  -10.6870 N.am      6 SEP2        0.0000 
     76 CA        -11.6650    9.7118   -4.8513 C.3       4 GLC5        0.0000 
     77 CA        -10.1400    8.9410   -6.2040 C.3      12 GLL5        0.0000 
     78 CA        -12.8690   10.8690   -4.0600 C.3       8 GLP5        0.0000 
     79 CA         -4.9455    7.1715   -7.9260 C.3       4 GLC5        0.0000 
     80 CA         -6.8870    6.7940   -8.7500 C.3      12 GLL5        0.0000 
     81 CA         -3.3070    8.1630   -7.2230 C.3       8 GLP5        0.0000 
     82 CA        -14.2415    8.1490    4.0058 C.3       4 GLC5        0.0000 
     83 CA        -11.2662    5.1862    6.1517 C.3       4 GLC5        0.0000 
     84 CA        -10.5610    7.0240    5.8040 C.3      12 GLL5        0.0000 
     85 CA        -12.5610    3.6410    6.2700 C.3       8 GLP5        0.0000 
     86 CA        -10.3053    8.2737    7.1048 C.3       4 GLC5        0.0000 
     87 CA         -7.3803    6.1333    3.1292 C.3       4 GLC5        0.0000 
     88 CA         -8.2690    6.4020    5.4280 C.3      12 GLL5        0.0000 
     89 CA         -6.4320    5.5890    1.4680 C.3       8 GLP5        0.0000 
     90 CA         -7.9620    8.8293    2.9395 C.3       4 GLC5        0.0000 
     91 CA         -8.3880    6.9530    4.1530 C.3      12 GLL5        0.0000 
     92 CA         -6.9310   10.4250    1.9330 C.3       8 GLP5        0.0000 
     93 CA         -8.3600    6.4672    2.4067 C.3       4 GLC5        0.0000 
     94 CA         -9.0684   10.3897   -6.9629 C.3       4 GLC5        0.0000 
     95 CA         -8.5180   12.1570   -6.4950 C.3       8 GLP5        0.0000 
@<TRIPOS>BOND
@<TRIPOS>SUBSTRUCTURE
     1 ALC1       27 GROUP        1 X    ALC  0     ROOT ALC X 1
     2 SEC2        1 GROUP        1 X    SEC  0     **** SEC X 2
     3 LYC4       66 GROUP        1 X    LYC  0     **** LYC X 4
     4 GLC5       15 GROUP        1 X    GLC  0     **** GLC X 6
     5 ALP1       29 GROUP        1 Y    ALP  0     ROOT ALP Y 8
     6 SEP2        3 GROUP        1 Y    SEP  0     **** SEP Y 9
     7 LYP4       68 GROUP        1 Y    LYP  0     **** LYP Y 11
     8 GLP5       17 GROUP        1 Y    GLP  0     **** GLP Y 13
     9 ALL1       28 GROUP        1 Z    ALL  0     ROOT ALL Z 15
    10 SEL2        2 GROUP        1 Z    SEL  0     **** SEL Z 16
    11 LYL4       67 GROUP        1 Z    LYL  0     **** LYL Z 18
    12 GLL5       16 GROUP        1 Z    GLL  0     **** GLL Z 20
@<TRIPOS>SET

