#    Name: 3kjr_NAP_1_ligand
#    Modification time : Mon Mar 24 19:41:21 2014

@<TRIPOS>MOLECULE
3kjr_NAP_1_ligand
   73    77     1     0     0
SMALL
NO_CHARGES


@<TRIPOS>ATOM
      1 PA        -10.0700    7.6310   -2.6250 P.3       1 NAP512      0.0000 
      2 O1A        -9.5680    6.2590   -3.0480 O.co2     1 NAP512      0.0000 
      3 O2A        -9.3380    8.4580   -1.6010 O.co2     1 NAP512      0.0000 
      4 O5B       -10.0260    8.5470   -3.9410 O.3       1 NAP512      0.0000 
      5 C5B       -10.7820    8.1680   -5.0810 C.3       1 NAP512      0.0000 
      6 C4B       -10.1400    8.9410   -6.2040 C.3       1 NAP512      0.0000 
      7 O4B        -8.7420    8.6460   -6.1670 O.3       1 NAP512      0.0000 
      8 C3B       -10.6590    8.5220   -7.5660 C.3       1 NAP512      0.0000 
      9 O3B       -11.7370    9.3640   -7.9670 O.3       1 NAP512      0.0000 
     10 C2B        -9.4270    8.5740   -8.4620 C.3       1 NAP512      0.0000 
     11 O2B        -9.1020    9.7820   -9.1640 O.3       1 NAP512      0.0000 
     12 C1B        -8.2490    8.4530   -7.4910 C.3       1 NAP512      0.0000 
     13 N9A        -7.5010    7.1730   -7.6250 N.pl3     1 NAP512      0.0000 
     14 C8A        -7.2920    6.2300   -6.6810 C.2       1 NAP512      0.0000 
     15 N7A        -6.5470    5.2300   -7.2200 N.2       1 NAP512      0.0000 
     16 C5A        -6.2810    5.5660   -8.5080 C.ar      1 NAP512      0.0000 
     17 C6A        -5.5780    4.9630   -9.5530 C.ar      1 NAP512      0.0000 
     18 N6A        -4.9570    3.7600   -9.4110 N.pl3     1 NAP512      0.0000 
     19 N1A        -5.5320    5.6040  -10.7530 N.ar      1 NAP512      0.0000 
     20 C2A        -6.1250    6.7950  -10.9610 C.ar      1 NAP512      0.0000 
     21 N3A        -6.7950    7.3940   -9.9740 N.ar      1 NAP512      0.0000 
     22 C4A        -6.8870    6.7940   -8.7500 C.ar      1 NAP512      0.0000 
     23 O3        -11.6860    7.7290   -2.3550 O.3       1 NAP512      0.0000 
     24 PN        -12.6890    7.0770   -1.2470 P.3       1 NAP512      0.0000 
     25 O1N       -12.7670    5.5880   -1.4980 O.co2     1 NAP512      0.0000 
     26 O2N       -13.9890    7.8480   -1.2490 O.co2     1 NAP512      0.0000 
     27 O5D       -12.0120    7.3330    0.1920 O.3       1 NAP512      0.0000 
     28 C5D       -12.1220    8.6080    0.8200 C.3       1 NAP512      0.0000 
     29 C4D       -12.9660    8.4590    2.0830 C.3       1 NAP512      0.0000 
     30 O4D       -12.3780    7.4890    2.9580 O.3       1 NAP512      0.0000 
     31 C3D       -13.0120    9.7590    2.8700 C.3       1 NAP512      0.0000 
     32 O3D       -14.2890    9.8190    3.5240 O.3       1 NAP512      0.0000 
     33 C2D       -11.8920    9.6080    3.8760 C.3       1 NAP512      0.0000 
     34 O2D       -12.1540   10.3910    5.0340 O.3       1 NAP512      0.0000 
     35 C1D       -11.9390    8.1130    4.1730 C.3       1 NAP512      0.0000 
     36 N1N       -10.6520    7.5460    4.5770 N.pl3     1 NAP512      0.0000 
     37 C2N       -10.5610    7.0240    5.8040 C.ar      1 NAP512      0.0000 
     38 C3N        -9.3820    6.4390    6.2630 C.ar      1 NAP512      0.0000 
     39 C7N        -9.3370    5.8710    7.6570 C.2       1 NAP512      0.0000 
     40 O7N        -8.2290    5.4770    8.0460 O.2       1 NAP512      0.0000 
     41 N7N       -10.4990    5.8300    8.3810 N.am      1 NAP512      0.0000 
     42 C4N        -8.2690    6.4020    5.4280 C.ar      1 NAP512      0.0000 
     43 C5N        -8.3880    6.9530    4.1530 C.ar      1 NAP512      0.0000 
     44 C6N        -9.5980    7.5140    3.7390 C.ar      1 NAP512      0.0000 
     45 P2B        -9.8820   10.7580  -10.1980 P.3       1 NAP512      0.0000 
     46 O1X        -9.1710   10.4310  -11.4930 O.co2     1 NAP512      0.0000 
     47 O2X       -11.3490   10.3840  -10.2440 O.co2     1 NAP512      0.0000 
     48 O3X        -9.6000   12.1580   -9.6980 O.co2     1 NAP512      0.0000 
     49 H         -11.8122    8.4651   -5.0039 H         1 NAP512      0.0000 
     50 H         -10.6985    7.1178   -5.2946 H         1 NAP512      0.0000 
     51 H         -10.3108    9.9845   -6.0642 H         1 NAP512      0.0000 
     52 H         -10.9537    7.4819   -7.4772 H         1 NAP512      0.0000 
     53 H          -9.3783    7.7085   -9.0805 H         1 NAP512      0.0000 
     54 H          -7.5601    9.2858   -7.7400 H         1 NAP512      0.0000 
     55 H          -7.6166    6.2577   -5.7718 H         1 NAP512      0.0000 
     56 H          -5.3732    3.1240   -8.7612 H         1 NAP512      0.0000 
     57 H          -4.1394    3.6183   -9.9690 H         1 NAP512      0.0000 
     58 H          -6.0573    7.2483  -11.9018 H         1 NAP512      0.0000 
     59 H         -12.6119    9.3400    0.1743 H         1 NAP512      0.0000 
     60 H         -11.1473    9.0038    1.1134 H         1 NAP512      0.0000 
     61 H         -13.9625    8.1855    1.8171 H         1 NAP512      0.0000 
     62 H         -12.8201   10.5539    2.2290 H         1 NAP512      0.0000 
     63 H         -10.9794    9.8249    3.3949 H         1 NAP512      0.0000 
     64 H         -12.6840    7.9557    4.9444 H         1 NAP512      0.0000 
     65 H         -11.3818    7.0427    6.4554 H         1 NAP512      0.0000 
     66 H         -10.4211    5.4933    9.3194 H         1 NAP512      0.0000 
     67 H         -11.3235    6.1404    7.9078 H         1 NAP512      0.0000 
     68 H          -7.3973    5.9869    5.7369 H         1 NAP512      0.0000 
     69 H          -7.5822    6.9469    3.5139 H         1 NAP512      0.0000 
     70 H          -9.6627    7.9010    2.7799 H         1 NAP512      0.0000 
     71 H         -11.7350    9.3285   -8.9664 H         1 NAP512      0.0000 
     72 H         -14.7874   10.5462    3.0521 H         1 NAP512      0.0000 
     73 H         -13.1332   10.5902    4.9954 H         1 NAP512      0.0000 
@<TRIPOS>BOND
     1    2    1 ar   
     2    3    1 ar   
     3    4    1 1    
     4   23    1 1    
     5    5    4 1    
     6    6    5 1    
     7   49    5 1    
     8   50    5 1    
     9    7    6 1    
    10    8    6 1    
    11   51    6 1    
    12   12    7 1    
    13    9    8 1    
    14   10    8 1    
    15   52    8 1    
    16   71    9 1    
    17   11   10 1    
    18   12   10 1    
    19   53   10 1    
    20   45   11 1    
    21   13   12 1    
    22   54   12 1    
    23   14   13 1    
    24   22   13 1    
    25   15   14 2    
    26   55   14 1    
    27   16   15 1    
    28   17   16 ar   
    29   22   16 ar   
    30   18   17 1    
    31   19   17 ar   
    32   56   18 1    
    33   57   18 1    
    34   20   19 ar   
    35   21   20 ar   
    36   58   20 1    
    37   22   21 ar   
    38   24   23 1    
    39   25   24 ar   
    40   26   24 ar   
    41   27   24 1    
    42   28   27 1    
    43   29   28 1    
    44   59   28 1    
    45   60   28 1    
    46   30   29 1    
    47   31   29 1    
    48   61   29 1    
    49   35   30 1    
    50   32   31 1    
    51   33   31 1    
    52   62   31 1    
    53   72   32 1    
    54   34   33 1    
    55   35   33 1    
    56   63   33 1    
    57   73   34 1    
    58   36   35 1    
    59   64   35 1    
    60   37   36 ar   
    61   44   36 ar   
    62   38   37 ar   
    63   65   37 1    
    64   39   38 1    
    65   42   38 ar   
    66   40   39 2    
    67   41   39 am   
    68   66   41 1    
    69   67   41 1    
    70   43   42 ar   
    71   68   42 1    
    72   44   43 ar   
    73   69   43 1    
    74   70   44 1    
    75   46   45 ar   
    76   47   45 ar   
    77   48   45 ar   
@<TRIPOS>SUBSTRUCTURE
     1 NAP512      1 GROUP   
@<TRIPOS>SET

