#    Name: 2oji_33A_1_INTS_M
#    Modification time : Tue Mar 25 22:48:02 2014

@<TRIPOS>MOLECULE
2oji_33A_1_INTS_M
   58     0     9     0     0
SMALL
NO_CHARGES


@<TRIPOS>ATOM
      1 CA        -15.2880   16.6265   39.5255 C.3       3 GLC5        0.0000 
      2 CA        -15.0190   16.5280   41.7210 C.3       9 GLL5        0.0000 
      3 CA        -15.5570   16.7250   37.3300 C.3       6 GLP5        0.0000 
      4 CA        -16.7425   17.0905   45.4980 C.3       3 GLC5        0.0000 
      5 CA        -15.8810   16.1680   43.9790 C.3       9 GLL5        0.0000 
      6 CA        -17.6040   18.0130   47.0170 C.3       6 GLP5        0.0000 
      7 CA        -15.5810   13.3135   44.3420 C.3       3 GLC5        0.0000 
      8 CA        -16.5060   14.9910   43.5450 C.3       9 GLL5        0.0000 
      9 CA        -14.6560   11.6360   45.1390 C.3       6 GLP5        0.0000 
     10 CA        -16.1365   15.5145   39.4360 C.3       3 GLC5        0.0000 
     11 CA        -15.6460   15.3510   41.2780 C.3       9 GLL5        0.0000 
     12 CA        -16.6270   15.6780   37.5940 C.3       6 GLP5        0.0000 
     13 CA        -16.0800   11.5900   42.5915 C.3       3 GLC5        0.0000 
     14 CA        -17.1040   13.3000   41.7970 C.3       9 GLL5        0.0000 
     15 CA        -15.0560    9.8800   43.3860 C.3       6 GLP5        0.0000 
     16 CA        -14.9310   19.1995   40.3270 C.3       3 GLC5        0.0000 
     17 CA        -14.0950   17.4800   40.6190 C.3       9 GLL5        0.0000 
     18 CA        -15.7670   20.9190   40.0350 C.3       6 GLP5        0.0000 
     19 CA        -14.1475   16.7620   38.9370 C.3       3 GLC5        0.0000 
     20 CA        -14.2000   16.0440   37.2550 C.3       6 GLP5        0.0000 
     21 CA        -18.8780   11.3440   43.2910 C.3       3 GLC5        0.0000 
     22 CA        -18.3780   13.0100   42.1990 C.3       9 GLL5        0.0000 
     23 CA        -19.3780    9.6780   44.3830 C.3       6 GLP5        0.0000 
     24 CA        -15.4360    9.5350   37.9920 C.3       3 GLC5        0.0000 
     25 CA        -15.1460   11.2170   39.1160 C.3       9 GLL5        0.0000 
     26 CA        -15.7260    7.8530   36.8680 C.3       6 GLP5        0.0000 
     27 O         -13.5230   10.4880   37.7435 O.2       1 ALC1        0.0000 
     28 O         -13.8340   11.2270   38.7860 O.2       7 ALL1        0.0000 
     29 O         -13.2120    9.7490   36.7010 O.2       4 ALP1        0.0000 
     30 N         -10.3515   11.8350   37.7070 N.am      2 SEC2        0.0000 
     31 N         -10.9670   11.6280   38.9740 N.am      8 SEL2        0.0000 
     32 N          -9.7360   12.0420   36.4400 N.am      5 SEP2        0.0000 
     33 N         -10.4565   10.3285   38.8900 N.am      2 SEC2        0.0000 
     34 N          -9.9460    9.0290   38.8060 N.am      5 SEP2        0.0000 
     35 CA        -10.3800   11.9915   42.1515 C.3       3 GLC5        0.0000 
     36 CA         -9.7020   13.5030   40.6460 C.3       9 GLL5        0.0000 
     37 CA        -11.0580   10.4800   43.6570 C.3       6 GLP5        0.0000 
     38 CA         -8.4285   12.3140   41.3235 C.3       3 GLC5        0.0000 
     39 CA         -7.1550   11.1250   42.0010 C.3       6 GLP5        0.0000 
     40 CA         -9.0360   17.8150   36.0430 C.3       3 GLC5        0.0000 
     41 CA         -8.7530   16.8810   38.0400 C.3       9 GLL5        0.0000 
     42 CA         -9.3190   18.7490   34.0460 C.3       6 GLP5        0.0000 
     43 CA        -16.9030   17.1385   41.7002 C.3       3 GLC5        0.0000 
     44 CA        -18.7300   17.5420   41.0070 C.3       6 GLP5        0.0000 
     45 CA        -17.4618   16.5607   42.3845 C.3       3 GLC5        0.0000 
     46 CA        -17.3763   16.2505   41.3710 C.3       3 GLC5        0.0000 
     47 CA        -16.3990   14.5670   42.1920 C.3       9 GLL5        0.0000 
     48 CA        -17.0970   11.6255   38.7000 C.3       3 GLC5        0.0000 
     49 CA        -15.3240   11.9530   40.2680 C.3       9 GLL5        0.0000 
     50 CA        -18.9590   11.6660   37.7080 C.3       6 GLP5        0.0000 
     51 CA        -14.8482   10.9425   41.7755 C.3       3 GLC5        0.0000 
     52 CA        -14.0460   12.4250   40.6380 C.3       9 GLL5        0.0000 
     53 CA        -10.4510   14.6313   37.7208 C.3       3 GLC5        0.0000 
     54 CA        -10.3690   15.6310   39.3840 C.3       9 GLL5        0.0000 
     55 CA        -11.0340   14.1050   35.8800 C.3       6 GLP5        0.0000 
     56 CA        -10.2203   15.4552   37.0830 C.3       3 GLC5        0.0000 
     57 CA        -10.0600   16.7300   38.5320 C.3       9 GLL5        0.0000 
     58 CA        -12.2072   16.1122   38.1065 C.3       3 GLC5        0.0000 
@<TRIPOS>BOND
@<TRIPOS>SUBSTRUCTURE
     1 ALC1       27 GROUP        1 X    ALC  0     ROOT ALC X 1
     2 SEC2       30 GROUP        1 X    SEC  0     **** SEC X 2
     3 GLC5        1 GROUP        1 X    GLC  0     **** GLC X 6
     4 ALP1       29 GROUP        1 Y    ALP  0     ROOT ALP Y 8
     5 SEP2       32 GROUP        1 Y    SEP  0     **** SEP Y 9
     6 GLP5        3 GROUP        1 Y    GLP  0     **** GLP Y 13
     7 ALL1       28 GROUP        1 Z    ALL  0     ROOT ALL Z 15
     8 SEL2       31 GROUP        1 Z    SEL  0     **** SEL Z 16
     9 GLL5        2 GROUP        1 Z    GLL  0     **** GLL Z 20
@<TRIPOS>SET

