#    Name: 2oji_33A_1_ligand
#    Modification time : Tue Mar 25 22:48:02 2014

@<TRIPOS>MOLECULE
2oji_33A_1_ligand
   44    47     1     0     0
SMALL
NO_CHARGES


@<TRIPOS>ATOM
      1 C2        -15.0190   16.5280   41.7210 C.ar      1 33A360      0.0000 
      2 C3        -15.1330   16.9420   43.0660 C.ar      1 33A360      0.0000 
      3 C4        -15.8810   16.1680   43.9790 C.ar      1 33A360      0.0000 
      4 C5        -16.5060   14.9910   43.5450 C.ar      1 33A360      0.0000 
      5 C6        -16.3990   14.5670   42.1920 C.ar      1 33A360      0.0000 
      6 C7        -15.6460   15.3510   41.2780 C.ar      1 33A360      0.0000 
      7 C8        -17.1040   13.3000   41.7970 C.2       1 33A360      0.0000 
      8 CL1       -14.0950   17.4800   40.6190 Cl        1 33A360      0.0000 
      9 C9        -18.3780   13.0100   42.1990 C.2       1 33A360      0.0000 
     10 N10       -18.7230   11.8160   41.7000 N.pl3     1 33A360      0.0000 
     11 N12       -17.6560   11.3130   40.9530 N.2       1 33A360      0.0000 
     12 C13       -16.6530   12.1800   40.9800 C.2       1 33A360      0.0000 
     13 C14       -15.3240   11.9530   40.2680 C.2       1 33A360      0.0000 
     14 C15       -15.1460   11.2170   39.1160 C.2       1 33A360      0.0000 
     15 N16       -13.8340   11.2270   38.7860 N.pl3     1 33A360      0.0000 
     16 C18       -13.1400   11.9770   39.7230 C.2       1 33A360      0.0000 
     17 C19       -14.0460   12.4250   40.6380 C.2       1 33A360      0.0000 
     18 C20       -11.6870   12.2440   39.7410 C.2       1 33A360      0.0000 
     19 O21       -10.9670   11.6280   38.9740 O.2       1 33A360      0.0000 
     20 N22       -11.1610   13.1890   40.6010 N.am      1 33A360      0.0000 
     21 C23        -9.7020   13.5030   40.6460 C.3       1 33A360      0.0000 
     22 C24        -9.3670   14.6840   39.7390 C.ar      1 33A360      0.0000 
     23 C25        -8.0520   14.8510   39.2360 C.ar      1 33A360      0.0000 
     24 C26        -7.7490   15.9470   38.3900 C.ar      1 33A360      0.0000 
     25 C27        -8.7530   16.8810   38.0400 C.ar      1 33A360      0.0000 
     26 C28       -10.0600   16.7300   38.5320 C.ar      1 33A360      0.0000 
     27 C29       -10.3690   15.6310   39.3840 C.ar      1 33A360      0.0000 
     28 H         -14.6754   17.7993   43.3773 H         1 33A360      0.0000 
     29 H         -15.9639   16.4684   44.9517 H         1 33A360      0.0000 
     30 H         -17.0494   14.4222   44.2048 H         1 33A360      0.0000 
     31 H         -15.5647   15.0554   40.3061 H         1 33A360      0.0000 
     32 H         -18.9256   13.5823   42.7516 H         1 33A360      0.0000 
     33 H         -19.5584   11.3539   41.8177 H         1 33A360      0.0000 
     34 H         -15.8517   10.7727   38.6345 H         1 33A360      0.0000 
     35 H         -13.4302   10.7916   38.0300 H         1 33A360      0.0000 
     36 H         -13.8746   12.9637   41.4028 H         1 33A360      0.0000 
     37 H         -11.7577   13.7205   41.2520 H         1 33A360      0.0000 
     38 H          -9.1215   12.6349   40.3207 H         1 33A360      0.0000 
     39 H          -9.4030   13.7501   41.6687 H         1 33A360      0.0000 
     40 H          -7.3234   14.1816   39.4833 H         1 33A360      0.0000 
     41 H          -6.7985   16.0629   38.0307 H         1 33A360      0.0000 
     42 H          -8.5216   17.6665   37.4268 H         1 33A360      0.0000 
     43 H         -10.7882   17.3971   38.2864 H         1 33A360      0.0000 
     44 H         -11.3191   15.5216   39.7436 H         1 33A360      0.0000 
@<TRIPOS>BOND
     1    2    1 ar   
     2    6    1 ar   
     3    8    1 1    
     4    3    2 ar   
     5   28    2 1    
     6    4    3 ar   
     7   29    3 1    
     8    5    4 ar   
     9   30    4 1    
    10    6    5 ar   
    11    7    5 1    
    12   31    6 1    
    13    9    7 2    
    14   12    7 1    
    15   10    9 1    
    16   32    9 1    
    17   11   10 1    
    18   33   10 1    
    19   12   11 2    
    20   13   12 1    
    21   14   13 2    
    22   17   13 1    
    23   15   14 1    
    24   34   14 1    
    25   16   15 1    
    26   35   15 1    
    27   17   16 2    
    28   18   16 1    
    29   36   17 1    
    30   19   18 2    
    31   20   18 am   
    32   21   20 1    
    33   37   20 1    
    34   22   21 1    
    35   38   21 1    
    36   39   21 1    
    37   23   22 ar   
    38   27   22 ar   
    39   24   23 ar   
    40   40   23 1    
    41   25   24 ar   
    42   41   24 1    
    43   26   25 ar   
    44   42   25 1    
    45   27   26 ar   
    46   43   26 1    
    47   44   27 1    
@<TRIPOS>SUBSTRUCTURE
     1 33A360      1 GROUP   
@<TRIPOS>SET

