#    Name: 2fvj_RO0_1_INTS_M
#    Modification time : Tue Mar 25 13:10:00 2014

@<TRIPOS>MOLECULE
2fvj_RO0_1_INTS_M
  114     0     6     0     0
SMALL
NO_CHARGES


@<TRIPOS>ATOM
      1 CA          3.7905   24.6180   16.7530 C.3       2 GLC5        0.0000 
      2 CA          4.5710   25.5790   18.3140 C.3       6 GLL5        0.0000 
      3 CA          3.0100   23.6570   15.1920 C.3       4 GLP5        0.0000 
      4 CA          7.6225   26.3095   17.8335 C.3       2 GLC5        0.0000 
      5 CA          6.6670   24.5490   17.4030 C.3       6 GLL5        0.0000 
      6 CA          8.5780   28.0700   18.2640 C.3       4 GLP5        0.0000 
      7 CA          5.3945   24.3925   20.3355 C.3       2 GLC5        0.0000 
      8 CA          3.8210   23.1440   19.3790 C.3       6 GLL5        0.0000 
      9 CA          6.9680   25.6410   21.2920 C.3       4 GLP5        0.0000 
     10 CA          5.9515   26.2925   19.5325 C.3       2 GLC5        0.0000 
     11 CA          4.9350   26.9440   17.7730 C.3       6 GLL5        0.0000 
     12 CA          6.7565   27.5070   18.0185 C.3       2 GLC5        0.0000 
     13 CA          5.4870   28.4990   19.1985 C.3       2 GLC5        0.0000 
     14 CA          6.0390   30.0540   20.6240 C.3       4 GLP5        0.0000 
     15 CA          8.6225   25.1485   17.9915 C.3       2 GLC5        0.0000 
     16 CA          7.4630   23.4380   17.2530 C.3       6 GLL5        0.0000 
     17 CA          9.7820   26.8590   18.7300 C.3       4 GLP5        0.0000 
     18 CA          2.5000   24.4530   21.4960 C.3       2 GLC5        0.0000 
     19 CA          3.0520   24.2700   19.4920 C.3       6 GLL5        0.0000 
     20 CA          1.9480   24.6360   23.5000 C.3       4 GLP5        0.0000 
     21 CA          2.9045   20.1725   18.8375 C.3       2 GLC5        0.0000 
     22 CA          3.3260   21.8420   19.9590 C.3       6 GLL5        0.0000 
     23 CA          2.4830   18.5030   17.7160 C.3       4 GLP5        0.0000 
     24 CA          1.2275   21.3760   19.8980 C.3       2 GLC5        0.0000 
     25 CA         -0.8710   20.9100   19.8370 C.3       4 GLP5        0.0000 
     26 CA         10.5170   24.1630   16.6190 C.3       2 GLC5        0.0000 
     27 CA          9.0230   24.6810   16.0380 C.3       6 GLL5        0.0000 
     28 CA         12.0110   23.6450   17.2000 C.3       4 GLP5        0.0000 
     29 CA         10.3575   25.5920   15.3065 C.3       2 GLC5        0.0000 
     30 CA         11.6920   26.5030   14.5750 C.3       4 GLP5        0.0000 
     31 CA          9.4025   25.7700   17.3840 C.3       2 GLC5        0.0000 
     32 CA          6.0265   22.6620   21.8275 C.3       2 GLC5        0.0000 
     33 CA          4.0970   22.0210   22.1860 C.3       6 GLL5        0.0000 
     34 CA          7.9560   23.3030   21.4690 C.3       4 GLP5        0.0000 
     35 CA          3.1560   19.1645   19.4290 C.3       2 GLC5        0.0000 
     36 CA          3.8290   19.8260   21.1420 C.3       6 GLL5        0.0000 
     37 CA          9.2035   18.9680   17.4885 C.3       2 GLC5        0.0000 
     38 CA          7.6510   19.9500   18.1260 C.3       6 GLL5        0.0000 
     39 CA         10.7560   17.9860   16.8510 C.3       4 GLP5        0.0000 
     40 CA          6.0935   26.0790   12.5365 C.3       2 GLC5        0.0000 
     41 CA          5.4750   27.5950   14.0550 C.3       6 GLL5        0.0000 
     42 CA          6.7120   24.5630   11.0180 C.3       4 GLP5        0.0000 
     43 CA          6.0825   22.9645   23.4275 C.3       2 GLC5        0.0000 
     44 CA          4.9770   21.4260   23.2990 C.3       6 GLL5        0.0000 
     45 CA          7.1880   24.5030   23.5560 C.3       4 GLP5        0.0000 
     46 CA          0.4570   27.4730   13.4005 C.3       2 GLC5        0.0000 
     47 CA          0.7680   26.8610   14.9770 C.3       6 GLL5        0.0000 
     48 CA          0.1460   28.0850   11.8240 C.3       4 GLP5        0.0000 
     49 CA          1.8890   25.2590   15.0845 C.3       2 GLC5        0.0000 
     50 CA         -0.7510   25.6910   14.4600 C.3       2 GLC5        0.0000 
     51 CA         -2.2700   24.5210   13.9430 C.3       4 GLP5        0.0000 
     52 CA          5.8085   26.2455   11.1990 C.3       2 GLC5        0.0000 
     53 CA          4.9050   27.9280   11.3800 C.3       6 GLL5        0.0000 
     54 CA          3.4190   26.6870   11.1300 C.3       2 GLC5        0.0000 
     55 CA          1.9330   25.4460   10.8800 C.3       4 GLP5        0.0000 
     56 CA          6.5360   28.1495   10.3435 C.3       2 GLC5        0.0000 
     57 CA          8.1670   28.3710    9.3070 C.3       4 GLP5        0.0000 
     58 CA          4.6235   29.4765   10.1985 C.3       2 GLC5        0.0000 
     59 CA          4.3420   31.0250    9.0170 C.3       4 GLP5        0.0000 
     60 CA          3.9280   29.4010   12.4155 C.3       2 GLC5        0.0000 
     61 CA          2.9510   30.8740   13.4510 C.3       4 GLP5        0.0000 
     62 CA          7.2095   21.4595   24.7040 C.3       2 GLC5        0.0000 
     63 CA          6.5270   19.3250   24.8250 C.3       6 GLL5        0.0000 
     64 CA          7.8920   23.5940   24.5830 C.3       4 GLP5        0.0000 
     65 N           2.8775   17.6160   24.5590 N.am      1 SEC2        0.0000 
     66 N           2.9970   18.7800   25.6150 N.am      5 SEL2        0.0000 
     67 N           2.7580   16.4520   23.5030 N.am      3 SEP2        0.0000 
     68 CA          2.3080   17.2395   28.1175 C.3       2 GLC5        0.0000 
     69 CA          2.1890   18.1490   26.6110 C.3       6 GLL5        0.0000 
     70 CA          2.4270   16.3300   29.6240 C.3       4 GLP5        0.0000 
     71 CA          1.2585   18.8660   25.1255 C.3       2 GLC5        0.0000 
     72 CA          0.3280   19.5830   23.6400 C.3       4 GLP5        0.0000 
     73 CA          0.8480   16.6870   26.9700 C.3       2 GLC5        0.0000 
     74 CA         -0.4930   15.2250   27.3290 C.3       4 GLP5        0.0000 
     75 CA          0.7665   19.1430   27.6350 C.3       2 GLC5        0.0000 
     76 CA         -0.6560   20.1370   28.6590 C.3       4 GLP5        0.0000 
     77 CA          3.1035   19.2490   28.2575 C.3       2 GLC5        0.0000 
     78 CA          4.0180   20.3490   29.9040 C.3       4 GLP5        0.0000 
     79 CA          5.0215   23.7760   16.5260 C.3       2 GLC5        0.0000 
     80 CA          5.0600   23.1970   18.6710 C.3       6 GLL5        0.0000 
     81 CA          4.7960   23.7300   14.6550 C.3       4 GLP5        0.0000 
     82 CA          6.7195   22.9675   20.0270 C.3       2 GLC5        0.0000 
     83 CA          5.9305   23.8618   15.9915 C.3       2 GLC5        0.0000 
     84 CA          6.4014   25.2110   19.5514 C.3       2 GLC5        0.0000 
     85 CA          3.2232   23.6820   17.3137 C.3       2 GLC5        0.0000 
     86 CA          5.6453   22.9335   16.4022 C.3       2 GLC5        0.0000 
     87 CA          5.9060   22.0670   18.4990 C.3       6 GLL5        0.0000 
     88 CA          4.7960   25.3835   15.8522 C.3       2 GLC5        0.0000 
     89 CA          7.6145   23.0628   19.4978 C.3       2 GLC5        0.0000 
     90 CA          4.4115   29.0437   15.6073 C.3       2 GLC5        0.0000 
     91 CA          4.6570   27.1300   16.3260 C.3       6 GLL5        0.0000 
     92 CA          4.8260   31.0020   15.1060 C.3       4 GLP5        0.0000 
     93 CA          3.1152   25.3907   15.2000 C.3       2 GLC5        0.0000 
     94 CA          3.3370   27.0410   15.8910 C.3       6 GLL5        0.0000 
     95 CA          5.2150   29.2542   14.9240 C.3       2 GLC5        0.0000 
     96 CA          5.7330   27.4180   15.4290 C.3       6 GLL5        0.0000 
     97 CA          3.2425   23.1797   23.1212 C.3       2 GLC5        0.0000 
     98 CA          2.7817   26.3947   12.4775 C.3       2 GLC5        0.0000 
     99 CA          3.1040   27.2080   14.5250 C.3       6 GLL5        0.0000 
    100 CA          4.2283   29.1727   14.5905 C.3       2 GLC5        0.0000 
    101 CA          4.1570   27.4790   13.6250 C.3       6 GLL5        0.0000 
    102 CA          7.1245   27.9172   15.7486 C.3       2 GLC5        0.0000 
    103 CA          8.9140   28.4000   16.5310 C.3       4 GLP5        0.0000 
    104 CA          4.8383   25.6114   14.4192 C.3       2 GLC5        0.0000 
    105 CA          2.3266   19.6729   23.1526 C.3       2 GLC5        0.0000 
    106 CA          5.2067   20.3030   26.6430 C.3       2 GLC5        0.0000 
    107 CA          5.1400   19.3460   24.7420 C.3       6 GLL5        0.0000 
    108 CA          5.6590   21.5760   28.0510 C.3       4 GLP5        0.0000 
    109 CA          6.2443   20.2865   26.7080 C.3       2 GLC5        0.0000 
    110 CA          8.0823   19.2060   23.9270 C.3       2 GLC5        0.0000 
    111 CA          7.1320   18.6690   25.9050 C.3       6 GLL5        0.0000 
    112 CA          9.3350   19.4150   22.4890 C.3       4 GLP5        0.0000 
    113 CA          5.6547   19.8122   27.4500 C.3       2 GLC5        0.0000 
    114 CA          6.3490   18.0360   26.8820 C.3       6 GLL5        0.0000 
@<TRIPOS>BOND
@<TRIPOS>SUBSTRUCTURE
     1 SEC2       65 GROUP        1 X    SEC  0     ROOT SEC X 2
     2 GLC5        1 GROUP        1 X    GLC  0     **** GLC X 6
     3 SEP2       67 GROUP        1 Y    SEP  0     ROOT SEP Y 9
     4 GLP5        3 GROUP        1 Y    GLP  0     **** GLP Y 13
     5 SEL2       66 GROUP        1 Z    SEL  0     ROOT SEL Z 16
     6 GLL5        2 GROUP        1 Z    GLL  0     **** GLL Z 20
@<TRIPOS>SET

