#    Name: 2fvj_RO0_1_ligand
#    Modification time : Tue Mar 25 13:10:00 2014

@<TRIPOS>MOLECULE
2fvj_RO0_1_ligand
   79    83     1     0     0
SMALL
NO_CHARGES


@<TRIPOS>ATOM
      1 C1          5.4340   24.4470   18.1230 C.ar      1 RO0501      0.0000 
      2 C2          5.0600   23.1970   18.6710 C.ar      1 RO0501      0.0000 
      3 C3          4.5710   25.5790   18.3140 C.ar      1 RO0501      0.0000 
      4 C4          6.6670   24.5490   17.4030 C.ar      1 RO0501      0.0000 
      5 C5          3.8210   23.1440   19.3790 C.ar      1 RO0501      0.0000 
      6 C6          5.9060   22.0670   18.4990 C.ar      1 RO0501      0.0000 
      7 C7          4.9350   26.9440   17.7730 C.3       1 RO0501      0.0000 
      8 N8          3.4350   25.4660   18.9710 N.ar      1 RO0501      0.0000 
      9 C9          7.4630   23.4380   17.2530 C.ar      1 RO0501      0.0000 
     10 C10         3.0520   24.2700   19.4920 C.ar      1 RO0501      0.0000 
     11 C11         3.3260   21.8420   19.9590 C.3       1 RO0501      0.0000 
     12 C12         7.0830   22.2070   17.8000 C.ar      1 RO0501      0.0000 
     13 C13         4.6570   27.1300   16.3260 C.ar      1 RO0501      0.0000 
     14 O14         8.6410   23.4230   16.5700 O.3       1 RO0501      0.0000 
     15 N15         4.2250   21.2410   20.9440 N.4       1 RO0501      0.0000 
     16 O16         7.9920   21.2290   17.5860 O.3       1 RO0501      0.0000 
     17 C17         3.3370   27.0410   15.8910 C.ar      1 RO0501      0.0000 
     18 C18         5.7330   27.4180   15.4290 C.ar      1 RO0501      0.0000 
     19 C19         9.0230   24.6810   16.0380 C.3       1 RO0501      0.0000 
     20 C20         4.0970   22.0210   22.1860 C.3       1 RO0501      0.0000 
     21 C21         3.8290   19.8260   21.1420 C.3       1 RO0501      0.0000 
     22 C22         7.6510   19.9500   18.1260 C.3       1 RO0501      0.0000 
     23 C23         3.1040   27.2080   14.5250 C.ar      1 RO0501      0.0000 
     24 C24         5.4750   27.5950   14.0550 C.ar      1 RO0501      0.0000 
     25 C25         4.9770   21.4260   23.2990 C.3       1 RO0501      0.0000 
     26 C26         4.5600   19.1730   22.3350 C.3       1 RO0501      0.0000 
     27 C27         4.1570   27.4790   13.6250 C.ar      1 RO0501      0.0000 
     28 O28         1.8100   27.1190   14.0410 O.3       1 RO0501      0.0000 
     29 C29         4.4560   20.0260   23.5920 C.3       1 RO0501      0.0000 
     30 O30         3.8430   27.6480   12.2890 O.3       1 RO0501      0.0000 
     31 C31         0.7680   26.8610   14.9770 C.3       1 RO0501      0.0000 
     32 C32         5.1400   19.3460   24.7420 C.ar      1 RO0501      0.0000 
     33 C33         4.9050   27.9280   11.3800 C.3       1 RO0501      0.0000 
     34 C34         4.3690   18.7140   25.7280 C.ar      1 RO0501      0.0000 
     35 C35         6.5270   19.3250   24.8250 C.ar      1 RO0501      0.0000 
     36 C36         4.9520   18.0610   26.8160 C.ar      1 RO0501      0.0000 
     37 O37         2.9970   18.7800   25.6150 O.3       1 RO0501      0.0000 
     38 C38         7.1320   18.6690   25.9050 C.ar      1 RO0501      0.0000 
     39 C39         6.3490   18.0360   26.8820 C.ar      1 RO0501      0.0000 
     40 C40         2.1890   18.1490   26.6110 C.3       1 RO0501      0.0000 
     41 H           6.9322   25.4556   17.0115 H         1 RO0501      0.0000 
     42 H           5.6246   21.1705   18.8978 H         1 RO0501      0.0000 
     43 H           6.0135   27.1258   17.9715 H         1 RO0501      0.0000 
     44 H           4.3873   27.7132   18.3594 H         1 RO0501      0.0000 
     45 H           2.1325   24.2043   20.0007 H         1 RO0501      0.0000 
     46 H           3.1485   21.1318   19.1203 H         1 RO0501      0.0000 
     47 H           2.3257   22.0208   20.4137 H         1 RO0501      0.0000 
     48 H           5.2341   21.2914   20.5826 H         1 RO0501      0.0000 
     49 H           2.5818   26.8638   16.5334 H         1 RO0501      0.0000 
     50 H           6.6813   27.4932   15.7919 H         1 RO0501      0.0000 
     51 H           3.0608   22.0242   22.5370 H         1 RO0501      0.0000 
     52 H           4.4060   23.0583   22.0262 H         1 RO0501      0.0000 
     53 H           4.0527   19.2357   20.2427 H         1 RO0501      0.0000 
     54 H           2.7481   19.7522   21.3248 H         1 RO0501      0.0000 
     55 H           6.2255   27.7985   13.4125 H         1 RO0501      0.0000 
     56 H           4.8960   22.0372   24.1784 H         1 RO0501      0.0000 
     57 H           5.9933   21.3730   22.9558 H         1 RO0501      0.0000 
     58 H           5.6099   19.0382   22.0709 H         1 RO0501      0.0000 
     59 H           4.1193   18.1925   22.5214 H         1 RO0501      0.0000 
     60 H           3.3811   20.1125   23.8260 H         1 RO0501      0.0000 
     61 H           7.0998   19.7782   24.1139 H         1 RO0501      0.0000 
     62 H           4.3878   17.6233   27.5283 H         1 RO0501      0.0000 
     63 H           8.1567   18.6508   25.9829 H         1 RO0501      0.0000 
     64 H           6.8134   17.5440   27.6620 H         1 RO0501      0.0000 
     65 H           9.1320   25.3697   16.7548 H         1 RO0501      0.0000 
     66 H           9.8929   24.6282   15.5476 H         1 RO0501      0.0000 
     67 H           8.3442   25.0334   15.3937 H         1 RO0501      0.0000 
     68 H           8.3577   19.2676   17.9391 H         1 RO0501      0.0000 
     69 H           7.5328   19.9854   19.1184 H         1 RO0501      0.0000 
     70 H           6.7967   19.6003   17.7414 H         1 RO0501      0.0000 
     71 H           0.9040   25.9928   15.4543 H         1 RO0501      0.0000 
     72 H           0.7117   27.5740   15.6759 H         1 RO0501      0.0000 
     73 H          -0.1268   26.8144   14.5331 H         1 RO0501      0.0000 
     74 H           5.3824   28.7744   11.6160 H         1 RO0501      0.0000 
     75 H           5.5888   27.1984   11.3717 H         1 RO0501      0.0000 
     76 H           4.5738   28.0300   10.4420 H         1 RO0501      0.0000 
     77 H           2.3662   17.1663   26.6652 H         1 RO0501      0.0000 
     78 H           2.3577   18.5279   27.5209 H         1 RO0501      0.0000 
     79 H           1.2132   18.2609   26.4232 H         1 RO0501      0.0000 
@<TRIPOS>BOND
     1    2    1 ar   
     2    3    1 ar   
     3    4    1 ar   
     4    5    2 ar   
     5    6    2 ar   
     6    7    3 1    
     7    8    3 ar   
     8    9    4 ar   
     9   41    4 1    
    10   10    5 ar   
    11   11    5 1    
    12   12    6 ar   
    13   42    6 1    
    14   13    7 1    
    15   43    7 1    
    16   44    7 1    
    17   10    8 ar   
    18   12    9 ar   
    19   14    9 1    
    20   45   10 1    
    21   15   11 1    
    22   46   11 1    
    23   47   11 1    
    24   16   12 1    
    25   17   13 ar   
    26   18   13 ar   
    27   19   14 1    
    28   20   15 1    
    29   21   15 1    
    30   48   15 1    
    31   22   16 1    
    32   23   17 ar   
    33   49   17 1    
    34   24   18 ar   
    35   50   18 1    
    36   65   19 1    
    37   66   19 1    
    38   67   19 1    
    39   25   20 1    
    40   51   20 1    
    41   52   20 1    
    42   26   21 1    
    43   53   21 1    
    44   54   21 1    
    45   68   22 1    
    46   69   22 1    
    47   70   22 1    
    48   27   23 ar   
    49   28   23 1    
    50   27   24 ar   
    51   55   24 1    
    52   29   25 1    
    53   56   25 1    
    54   57   25 1    
    55   29   26 1    
    56   58   26 1    
    57   59   26 1    
    58   30   27 1    
    59   31   28 1    
    60   32   29 1    
    61   60   29 1    
    62   33   30 1    
    63   71   31 1    
    64   72   31 1    
    65   73   31 1    
    66   34   32 ar   
    67   35   32 ar   
    68   74   33 1    
    69   75   33 1    
    70   76   33 1    
    71   36   34 ar   
    72   37   34 1    
    73   38   35 ar   
    74   61   35 1    
    75   39   36 ar   
    76   62   36 1    
    77   40   37 1    
    78   39   38 ar   
    79   63   38 1    
    80   64   39 1    
    81   77   40 1    
    82   78   40 1    
    83   79   40 1    
@<TRIPOS>SUBSTRUCTURE
     1 RO0501      1 GROUP   
@<TRIPOS>SET

