#    Name: 1ycp_TYR_GLY_VAL_ARG_GLY_PRO_1_INTS_M
#    Modification time : Tue Mar 25 11:03:01 2014

@<TRIPOS>MOLECULE
1ycp_TYR_GLY_VAL_ARG_GLY_PRO_1_INTS_M
   72     0    12     0     0
SMALL
NO_CHARGES


@<TRIPOS>ATOM
      1 O           8.1615   10.8270   43.5325 O.2       1 ALC1        0.0000 
      2 O           8.8930   11.5550   44.3920 O.2       9 ALL1        0.0000 
      3 O           7.4300   10.0990   42.6730 O.2       5 ALP1        0.0000 
      4 CA          8.6965   13.1795   43.1395 C.3       4 GLC5        0.0000 
      5 CA         10.0100   11.5060   43.4190 C.3      12 GLL5        0.0000 
      6 CA          7.3830   14.8530   42.8600 C.3       8 GLP5        0.0000 
      7 N           7.6300   12.5830   41.7690 N.am      2 SEC2        0.0000 
      8 N           8.9800   12.8450   41.7160 N.am     10 SEL2        0.0000 
      9 N           6.2800   12.3210   41.8220 N.am      6 SEP2        0.0000 
     10 CA          9.3210   14.6845   42.1675 C.3       4 GLC5        0.0000 
     11 CA         11.2590   14.5160   41.4750 C.3      12 GLL5        0.0000 
     12 CA         14.3700   15.4450   43.1815 C.3       4 GLC5        0.0000 
     13 CA         12.6290   15.1740   41.8000 C.3      12 GLL5        0.0000 
     14 CA         16.1110   15.7160   44.5630 C.3       8 GLP5        0.0000 
     15 CA         14.9430   14.2135   40.9515 C.3       4 GLC5        0.0000 
     16 CA         13.3330   15.6700   40.5590 C.3      12 GLL5        0.0000 
     17 CA         16.5530   12.7570   41.3440 C.3       8 GLP5        0.0000 
     18 CA         12.2815   17.6740   41.5280 C.3       4 GLC5        0.0000 
     19 CA         12.4300   16.3050   42.7810 C.3      12 GLL5        0.0000 
     20 CA         12.1330   19.0430   40.2750 C.3       8 GLP5        0.0000 
     21 CA         13.8515   16.2210   44.1880 C.3       4 GLC5        0.0000 
     22 CA         15.2730   16.1370   45.5950 C.3       8 GLP5        0.0000 
     23 CA         11.0755   17.3755   43.1715 C.3       4 GLC5        0.0000 
     24 CA          9.7210   18.4460   43.5620 C.3       8 GLP5        0.0000 
     25 O           9.2100   15.2765   39.6205 O.2       1 ALC1        0.0000 
     26 O          10.1820   14.1550   39.3370 O.2       9 ALL1        0.0000 
     27 O           8.2380   16.3980   39.9040 O.2       5 ALP1        0.0000 
     28 N          11.4245   13.2670   34.5375 N.am      2 SEC2        0.0000 
     29 N          10.8800   13.7530   35.7600 N.am     10 SEL2        0.0000 
     30 N          11.9690   12.7810   33.3150 N.am      6 SEP2        0.0000 
     31 N          10.0745   14.7420   34.7380 N.am      2 SEC2        0.0000 
     32 N           9.2690   15.7310   33.7160 N.am      6 SEP2        0.0000 
     33 CA          7.0770   14.9780   36.5310 C.3       4 GLC5        0.0000 
     34 CA          8.6100   13.8580   37.4930 C.3      12 GLL5        0.0000 
     35 CA          5.5440   16.0980   35.5690 C.3       8 GLP5        0.0000 
     36 CA          5.8950   12.0920   35.8485 C.3       4 GLC5        0.0000 
     37 CA          7.3230   11.6710   37.5280 C.3      12 GLL5        0.0000 
     38 CA          4.4670   12.5130   34.1690 C.3       8 GLP5        0.0000 
     39 CA          7.5870   10.6985   35.9425 C.3       4 GLC5        0.0000 
     40 CA          7.8510    9.7260   34.3570 C.3       8 GLP5        0.0000 
     41 O           6.5530    9.2160   38.8835 O.2       1 ALC1        0.0000 
     42 O           6.5540   10.7290   38.3440 O.2       9 ALL1        0.0000 
     43 O           6.5520    7.7030   39.4230 O.2       5 ALP1        0.0000 
     44 OD1         3.2820    9.6635   38.0805 O.co2     3 ASC3        0.0000 
     45 OD1         5.2300   10.5830   38.2970 O.co2    11 ASL3        0.0000 
     46 OD1         1.9350    9.5970   37.0510 O.co2     7 ASP3        0.0000 
     47 OD1         4.2300    9.2240   37.7660 O.co2     3 ASC3        0.0000 
     48 OD1         3.2300    7.8650   37.2350 O.co2     7 ASP3        0.0000 
     49 O           3.2150   10.4515   37.2575 O.2       1 ALC1        0.0000 
     50 O           4.4950   11.3060   37.4640 O.2       9 ALL1        0.0000 
     51 O           1.9350    9.5970   37.0510 O.2       5 ALP1        0.0000 
     52 O           3.2820    9.6635   38.0805 O.2       1 ALC1        0.0000 
     53 O           4.6290    9.7300   39.1100 O.2       9 ALL1        0.0000 
     54 O           5.5905    8.7165   39.2665 O.2       1 ALC1        0.0000 
     55 CA         11.9280   15.6430   36.0915 C.3       4 GLC5        0.0000 
     56 CA         13.3390   14.6930   36.5520 C.3      12 GLL5        0.0000 
     57 CA         10.5170   16.5930   35.6310 C.3       8 GLP5        0.0000 
     58 CA         12.7470   16.8900   40.1773 C.3       4 GLC5        0.0000 
     59 CA         12.5130   18.3580   39.1750 C.3       8 GLP5        0.0000 
     60 CA          9.9157   15.1568   36.6905 C.3       4 GLC5        0.0000 
     61 CA         10.0190   13.5830   38.0070 C.3      12 GLL5        0.0000 
     62 CA          7.4795   14.0315   39.6343 C.3       4 GLC5        0.0000 
     63 CA          6.8810   14.6190   41.4120 C.3       8 GLP5        0.0000 
     64 CA         14.1200   11.0047   34.2067 C.3       4 GLC5        0.0000 
     65 CA         15.1220   12.0070   34.4110 C.3      12 GLL5        0.0000 
     66 CA         12.7290    9.7490   34.6130 C.3       8 GLP5        0.0000 
     67 CA         16.2450   15.7345   32.9050 C.3       4 GLC5        0.0000 
     68 CA         15.1960   14.4170   34.3100 C.3      12 GLL5        0.0000 
     69 CA         16.6930   17.3450   31.8360 C.3       8 GLP5        0.0000 
     70 CA         13.9280   13.4081   33.0291 C.3       4 GLC5        0.0000 
     71 CA         16.3980   13.8310   33.6380 C.3      12 GLL5        0.0000 
     72 CA         12.2020   13.6240   32.1710 C.3       8 GLP5        0.0000 
@<TRIPOS>BOND
@<TRIPOS>SUBSTRUCTURE
     1 ALC1        1 GROUP        1 X    ALC  0     ROOT ALC X 1
     2 SEC2        7 GROUP        1 X    SEC  0     **** SEC X 2
     3 ASC3       44 GROUP        1 X    ASC  0     **** ASC X 3
     4 GLC5        4 GROUP        1 X    GLC  0     **** GLC X 6
     5 ALP1        3 GROUP        1 Y    ALP  0     ROOT ALP Y 8
     6 SEP2        9 GROUP        1 Y    SEP  0     **** SEP Y 9
     7 ASP3       46 GROUP        1 Y    ASP  0     **** ASP Y 10
     8 GLP5        6 GROUP        1 Y    GLP  0     **** GLP Y 13
     9 ALL1        2 GROUP        1 Z    ALL  0     ROOT ALL Z 15
    10 SEL2        8 GROUP        1 Z    SEL  0     **** SEL Z 16
    11 ASL3       45 GROUP        1 Z    ASL  0     **** ASL Z 17
    12 GLL5        5 GROUP        1 Z    GLL  0     **** GLL Z 20
@<TRIPOS>SET

