#    Name: 1ycp_TYR_GLY_VAL_ARG_GLY_PRO_1_ligand
#    Modification time : Tue Mar 25 11:03:01 2014

@<TRIPOS>MOLECULE
1ycp_TYR_GLY_VAL_ARG_GLY_PRO_1_ligand
   71    71     5     0     0
SMALL
NO_CHARGES


@<TRIPOS>ATOM
      1 N           8.8930   11.5550   44.3920 N.4       1 GLY314      0.0000
      2 CA         10.0100   11.5060   43.4190 C.3       1 GLY314      0.0000
      3 C           9.9680   12.6460   42.4160 C.2       1 GLY314      0.0000
      4 O           8.9800   12.8450   41.7160 O.2       1 GLY314      0.0000
      5 HA2         9.9866   10.5516   42.8659 H         1 GLY314      0.0000
      6 HA3        10.9757   11.5431   43.9514 H         1 GLY314      0.0000
      7 HNCA        8.9373   10.8003   45.0466 H         1 GLY314      0.0000
      8 H           8.8988   12.4032   44.9217 H         1 GLY314      0.0000
      9 H           8.0032   11.4984   43.9391 H         1 GLY314      0.0000
     10 N          11.0670   13.3850   42.3600 N.am      2 VAL315      0.0000
     11 CA         11.2590   14.5160   41.4750 C.3       2 VAL315      0.0000
     12 C          11.2410   13.8840   40.0920 C.2       2 VAL315      0.0000
     13 O          12.1510   13.1320   39.7310 O.2       2 VAL315      0.0000
     14 CB         12.6290   15.1740   41.8000 C.3       2 VAL315      0.0000
     15 CG1        13.3330   15.6700   40.5590 C.3       2 VAL315      0.0000
     16 CG2        12.4300   16.3050   42.7810 C.3       2 VAL315      0.0000
     17 HNCA       11.8971   13.1715   42.9918 H         2 VAL315      0.0000
     18 HA         10.4859   15.2114   41.5649 H         2 VAL315      0.0000
     19 HB         13.2490   14.4145   42.2777 H         2 VAL315      0.0000
     20 H          14.2145   16.0899   40.7748 H         2 VAL315      0.0000
     21 H          13.5120   14.9287   39.9122 H         2 VAL315      0.0000
     22 H          12.7917   16.3573   40.0746 H         2 VAL315      0.0000
     23 HG21       13.2938   16.7531   43.0113 H         2 VAL315      0.0000
     24 HG22       11.8220   17.0103   42.4164 H         2 VAL315      0.0000
     25 HG23       12.0274   15.9859   43.6390 H         2 VAL315      0.0000
     26 N          10.1820   14.1550   39.3370 N.am      3 ARG316      0.0000
     27 CA         10.0190   13.5830   38.0070 C.3       3 ARG316      0.0000
     28 C          11.0960   13.8980   36.9700 C.2       3 ARG316      0.0000
     29 O          10.8800   13.7530   35.7600 O.2       3 ARG316      0.0000
     30 CB          8.6100   13.8580   37.4930 C.3       3 ARG316      0.0000
     31 CG          7.5460   13.0300   38.2200 C.3       3 ARG316      0.0000
     32 CD          7.3230   11.6710   37.5280 C.3       3 ARG316      0.0000
     33 NE          6.5540   10.7290   38.3440 N.pl3     3 ARG316      0.0000
     34 CZ          5.2300   10.5830   38.2970 C.cat     3 ARG316      0.0000
     35 NH1         4.4950   11.3060   37.4640 N.pl3     3 ARG316      0.0000
     36 NH2         4.6290    9.7300   39.1100 N.pl3     3 ARG316      0.0000
     37 HNCA        9.4170   14.7874   39.6551 H         3 ARG316      0.0000
     38 HA         10.0436   12.4403   38.1348 H         3 ARG316      0.0000
     39 HB2         8.5663   13.6312   36.4213 H         3 ARG316      0.0000
     40 HB3         8.3809   14.9225   37.6206 H         3 ARG316      0.0000
     41 HG2         6.6061   13.5800   38.2305 H         3 ARG316      0.0000
     42 HG3         7.8641   12.8560   39.2470 H         3 ARG316      0.0000
     43 HD2         8.3155   11.2539   37.2806 H         3 ARG316      0.0000
     44 HD3         6.8122   11.8636   36.5677 H         3 ARG316      0.0000
     45 HE          7.1422   10.1423   39.0059 H         3 ARG316      0.0000
     46 HH11        4.9964   11.9196   36.8540 H         3 ARG316      0.0000
     47 HH12        3.5056   11.1725   37.5210 H         3 ARG316      0.0000
     48 HH21        5.2162    9.2661   39.7733 H         3 ARG316      0.0000
     49 HH22        3.6419    9.6264   38.9876 H         3 ARG316      0.0000
     50 N          12.2300   14.4160   37.4400 N.am      4 GLY317      0.0000
     51 CA         13.3390   14.6930   36.5520 C.3       4 GLY317      0.0000
     52 C          13.7840   13.3300   36.0520 C.2       4 GLY317      0.0000
     53 O          13.3630   12.3180   36.6240 O.2       4 GLY317      0.0000
     54 HNCA       12.3692   14.6402   38.4402 H         4 GLY317      0.0000
     55 HA2        14.1583   15.1539   37.0728 H         4 GLY317      0.0000
     56 HA3        13.0337   15.2867   35.7098 H         4 GLY317      0.0000
     57 N          14.6220   13.2550   35.0030 N.am      5 PRO318      0.0000
     58 CA         15.1220   12.0070   34.4110 C.3       5 PRO318      0.0000
     59 C          15.9380   11.0360   35.2870 C.2       5 PRO318      0.0000
     60 O          15.6220   10.8540   36.4820 O.2       5 PRO318      0.0000
     61 CB         15.9000   12.5140   33.1900 C.3       5 PRO318      0.0000
     62 CG         16.3980   13.8310   33.6380 C.3       5 PRO318      0.0000
     63 CD         15.1960   14.4170   34.3100 C.3       5 PRO318      0.0000
     64 HA         14.2551   11.4597   33.9837 H         5 PRO318      0.0000
     65 H          16.7200   10.6001   34.7664 H         5 PRO318      0.0000
     66 HB2        15.2300   12.6139   32.3716 H         5 PRO318      0.0000
     67 HB3        16.7022   11.8465   32.9911 H         5 PRO318      0.0000
     68 HG2        16.6763   14.4315   32.8046 H         5 PRO318      0.0000
     69 HG3        17.1871   13.7151   34.3427 H         5 PRO318      0.0000
     70 HD2        15.5002   15.1633   35.0070 H         5 PRO318      0.0000
     71 HD3        14.5209   14.7943   33.5771 H         5 PRO318      0.0000
@<TRIPOS>BOND
     1    2    1 1
     2    7    1 1
     3    8    1 1
     4    9    1 1
     5    3    2 1
     6    5    2 1
     7    6    2 1
     8    4    3 2
     9   11   10 1
    10   17   10 1
    11   12   11 1
    12   14   11 1
    13   18   11 1
    14   13   12 2
    15   15   14 1
    16   16   14 1
    17   19   14 1
    18   20   15 1
    19   21   15 1
    20   22   15 1
    21   23   16 1
    22   24   16 1
    23   25   16 1
    24   27   26 1
    25   37   26 1
    26   28   27 1
    27   30   27 1
    28   38   27 1
    29   29   28 2
    30   31   30 1
    31   39   30 1
    32   40   30 1
    33   32   31 1
    34   41   31 1
    35   42   31 1
    36   33   32 1
    37   43   32 1
    38   44   32 1
    39   34   33 ar
    40   45   33 1
    41   35   34 ar
    42   36   34 ar
    43   46   35 1
    44   47   35 1
    45   48   36 1
    46   49   36 1
    47   51   50 1
    48   54   50 1
    49   52   51 1
    50   55   51 1
    51   56   51 1
    52   53   52 2
    53   58   57 1
    54   63   57 1
    55   59   58 1
    56   61   58 1
    57   64   58 1
    58   60   59 2
    59   65   59 1
    60   62   61 1
    61   66   61 1
    62   67   61 1
    63   63   62 1
    64   68   62 1
    65   69   62 1
    66   70   63 1
    67   71   63 1
    68   10    3 am
    69   26   12 am
    70   50   28 am
    71   57   52 am
@<TRIPOS>SUBSTRUCTURE
     1 GLY314      1 RESIDUE
     2 VAL315     10 RESIDUE
     3 ARG316     26 RESIDUE
     4 GLY317     50 RESIDUE
     5 PRO318     57 RESIDUE
@<TRIPOS>SET

