#    Name: 1ZZB_1_CAVITY_N1_6.mol2
#    Modification time : Tue Mar 11 00:01:40 2014

@<TRIPOS>MOLECULE
1ZZB_1_CAVITY_N1_6.mol2
   65     0     7     0     0
SMALL
NO_CHARGES


@<TRIPOS>ATOM
      1 CA         33.3741   51.1889   27.6259 C.3       6 GLY6        0.0000 
      2 CZ         35.4041   51.4177   28.1975 C.ar      5 PHE5        0.0000 
      3 CZ         35.1572   50.5731   29.4123 C.ar      5 PHE5        0.0000 
      4 CA         34.6427   50.4342   27.3590 C.3       6 GLY6        0.0000 
      5 CZ         37.4341   51.6465   28.7691 C.ar      5 PHE5        0.0000 
      6 CZ         37.1872   50.8020   29.9840 C.ar      5 PHE5        0.0000 
      7 CZ         36.6726   50.6630   27.9307 C.ar      5 PHE5        0.0000 
      8 N          36.4258   49.8185   29.1455 N.2       2 ALA2        0.0000 
      9 CZ         40.7400   52.9977   32.2325 C.ar      5 PHE5        0.0000 
     10 CZ         39.2172   51.0308   30.5556 C.ar      5 PHE5        0.0000 
     11 O          38.9703   50.1862   31.7704 O.2       2 ALA2        0.0000 
     12 OG         38.7026   50.8919   28.5023 O.2       1 SER1        0.0000 
     13 CZ         38.4558   50.0473   29.7171 C.ar      5 PHE5        0.0000 
     14 CA         38.2089   49.2027   30.9319 C.3       6 GLY6        0.0000 
     15 OG         37.9412   49.9084   27.6638 O.2       1 SER1        0.0000 
     16 CA         37.6943   49.0638   28.8787 C.3       6 GLY6        0.0000 
     17 CA         37.4475   48.2193   30.0935 C.3       6 GLY6        0.0000 
     18 N          36.6860   47.2358   29.2550 N.2       2 ALA2        0.0000 
     19 CZ         42.2555   53.0876   30.7509 C.ar      5 PHE5        0.0000 
     20 NZ         42.0086   52.2431   31.9657 N.2       4 LYS4        0.0000 
     21 OG         41.4940   52.1042   29.9124 O.2       1 SER1        0.0000 
     22 CZ         41.2472   51.2596   31.1272 C.ar      5 PHE5        0.0000 
     23 OG         40.4857   50.2761   30.2888 O.2       1 SER1        0.0000 
     24 OG         39.9712   50.1372   28.2355 O.2       1 SER1        0.0000 
     25 CA         39.7243   49.2926   29.4503 C.3       6 GLY6        0.0000 
     26 OG         39.4567   49.9983   26.1822 O.2       1 SER1        0.0000 
     27 OG         39.2098   49.1537   27.3970 O.2       1 SER1        0.0000 
     28 CA         38.9629   48.3092   28.6118 C.3       6 GLY6        0.0000 
     29 CA         38.2015   47.3257   27.7734 C.3       6 GLY6        0.0000 
     30 OD1        42.7626   51.3495   29.6456 O.3       3 ASP3        0.0000 
     31 OD1        42.5157   50.5049   30.8604 O.3       3 ASP3        0.0000 
     32 OD1        42.0012   50.3660   28.8071 O.3       3 ASP3        0.0000 
     33 O          41.7543   49.5215   30.0219 O.2       2 ALA2        0.0000 
     34 OG         41.2398   49.3825   27.9686 O.2       1 SER1        0.0000 
     35 CA         40.9929   48.5380   29.1835 C.3       6 GLY6        0.0000 
     36 DU         40.4784   48.3991   27.1302 H         7 CUB7        0.0000 
     37 CA         40.2315   47.5545   28.3450 C.3       6 GLY6        0.0000 
     38 CA         39.4701   46.5710   27.5065 C.3       6 GLY6        0.0000 
     39 CA         39.2232   45.7265   28.7213 C.3       6 GLY6        0.0000 
     40 OD1        43.0229   48.7668   29.7551 O.3       3 ASP3        0.0000 
     41 OD1        42.5084   48.6279   27.7018 O.3       3 ASP3        0.0000 
     42 CA         42.2615   47.7833   28.9166 C.3       6 GLY6        0.0000 
     43 CA         42.0146   46.9388   30.1314 C.3       6 GLY6        0.0000 
     44 N          41.9939   48.4890   25.6485 N.2       2 ALA2        0.0000 
     45 DU         41.7470   47.6444   26.8633 H         7 CUB7        0.0000 
     46 CA         41.5001   46.7999   28.0782 C.3       6 GLY6        0.0000 
     47 CA         41.2532   45.9553   29.2930 C.3       6 GLY6        0.0000 
     48 DU         40.7387   45.8164   27.2397 H         7 CUB7        0.0000 
     49 CA         40.4918   44.9718   28.4545 C.3       6 GLY6        0.0000 
     50 CA         44.2915   48.0122   29.4883 C.3       6 GLY6        0.0000 
     51 OD1        43.7770   47.8732   27.4350 O.3       3 ASP3        0.0000 
     52 CA         43.5301   47.0287   28.6498 C.3       6 GLY6        0.0000 
     53 CA         43.2832   46.1841   29.8646 C.3       6 GLY6        0.0000 
     54 CA         43.0156   46.8898   26.5965 C.3       6 GLY6        0.0000 
     55 NZ         42.7687   46.0452   27.8113 N.2       4 LYS4        0.0000 
     56 CA         42.5218   45.2007   29.0261 C.3       6 GLY6        0.0000 
     57 CA         42.2541   45.9063   25.7580 C.3       6 GLY6        0.0000 
     58 NZ         42.0073   45.0617   26.9729 N.2       4 LYS4        0.0000 
     59 OD1        45.8070   48.1021   28.0066 O.3       3 ASP3        0.0000 
     60 CA         45.5601   47.2575   29.2214 C.3       6 GLY6        0.0000 
     61 N          45.0455   47.1186   27.1681 N.2       2 ALA2        0.0000 
     62 CA         44.7987   46.2740   28.3830 C.3       6 GLY6        0.0000 
     63 NZ         44.0372   45.2906   27.5445 N.2       4 LYS4        0.0000 
     64 CA         43.7904   44.4460   28.7593 C.3       6 GLY6        0.0000 
     65 CA         46.8287   46.5029   28.9546 C.3       6 GLY6        0.0000 
@<TRIPOS>BOND
@<TRIPOS>SUBSTRUCTURE
     1 SER1       12 GROUP   
     2 ALA2        8 GROUP   
     3 ASP3       30 GROUP   
     4 LYS4       20 GROUP   
     5 PHE5        2 GROUP   
     6 GLY6        1 GROUP   
     7 CUB7       36 GROUP   
@<TRIPOS>SET

