#    Name: 1zzb_S0H_1_ligand
#    Modification time : Mon Mar 24 18:12:09 2014

@<TRIPOS>MOLECULE
1zzb_S0H_1_ligand
   15    14     1     0     0
SMALL
NO_CHARGES


@<TRIPOS>ATOM
      1 P1         41.6180   50.5230   30.6840 P.3       1 S0H1002     0.0000 
      2 C2         39.9150   49.8580   30.9130 C.3       1 S0H1002     0.0000 
      3 C3         39.1400   49.6760   29.5700 C.3       1 S0H1002     0.0000 
      4 O6         37.8250   49.2520   29.8090 O.3       1 S0H1002     0.0000 
      5 C1         39.0180   50.6360   29.0650 C.3       1 S0H1002     0.0000 
      6 O13        42.2300   50.1710   29.4080 O.co2     1 S0H1002     0.0000 
      7 O14        42.5070   50.0490   31.8610 O.co2     1 S0H1002     0.0000 
      8 O15        41.6330   52.0440   31.0000 O.co2     1 S0H1002     0.0000 
      9 H          39.4732   50.5872   31.5570 H         1 S0H1002     0.0000 
     10 H          40.0997   48.9354   31.4193 H         1 S0H1002     0.0000 
     11 H          39.6726   48.8610   29.0546 H         1 S0H1002     0.0000 
     12 H          39.8824   51.1348   29.0016 H         1 S0H1002     0.0000 
     13 H          38.6751   50.5241   28.1323 H         1 S0H1002     0.0000 
     14 H          38.3720   51.2290   29.5456 H         1 S0H1002     0.0000 
     15 H          37.9055   48.2865   30.0566 H         1 S0H1002     0.0000 
@<TRIPOS>BOND
     1    2    1 1    
     2    6    1 ar   
     3    7    1 ar   
     4    8    1 ar   
     5    3    2 1    
     6    9    2 1    
     7   10    2 1    
     8    4    3 1    
     9    5    3 1    
    10   11    3 1    
    11   15    4 1    
    12   12    5 1    
    13   13    5 1    
    14   14    5 1    
@<TRIPOS>SUBSTRUCTURE
     1 S0H1002     1 GROUP   
@<TRIPOS>SET

