#    Name: 2v0i_UD1_1_INTS_M
#    Modification time : Tue Mar 25 00:38:27 2014

@<TRIPOS>MOLECULE
2v0i_UD1_1_INTS_M
   74     0     9     0     0
SMALL
NO_CHARGES


@<TRIPOS>ATOM
      1 CA         67.0645    7.7390   71.8820 C.3       3 GLC5        0.0000 
      2 CA         66.8290    6.8150   73.7670 C.3       9 GLL5        0.0000 
      3 CA         67.3000    8.6630   69.9970 C.3       6 GLP5        0.0000 
      4 CA         62.5045    8.3140   75.5335 C.3       3 GLC5        0.0000 
      5 CA         64.3540    8.4050   76.3520 C.3       9 GLL5        0.0000 
      6 CA         60.6550    8.2230   74.7150 C.3       6 GLP5        0.0000 
      7 CA         63.2205    6.5820   75.8995 C.3       3 GLC5        0.0000 
      8 CA         62.0870    4.7590   75.4470 C.3       6 GLP5        0.0000 
      9 CA         70.4095    4.2860   72.3610 C.3       3 GLC5        0.0000 
     10 CA         69.8080    3.1790   73.9810 C.3       9 GLL5        0.0000 
     11 CA         71.0110    5.3930   70.7410 C.3       6 GLP5        0.0000 
     12 CA         71.2545    2.3870   73.3885 C.3       3 GLC5        0.0000 
     13 CA         72.7010    1.5950   72.7960 C.3       6 GLP5        0.0000 
     14 CA         68.1980    3.1160   72.7410 C.3       3 GLC5        0.0000 
     15 CA         66.5880    3.0530   71.5010 C.3       6 GLP5        0.0000 
     16 O          69.1920    5.7415   73.4970 O.2       1 ALC1        0.0000 
     17 O          68.3230    5.0360   74.3370 O.2       7 ALL1        0.0000 
     18 O          70.0610    6.4470   72.6570 O.2       4 ALP1        0.0000 
     19 N          66.9065    7.8830   71.8440 N.am      2 SEC2        0.0000 
     20 N          66.5250    6.3000   72.4850 N.am      8 SEL2        0.0000 
     21 N          67.2880    9.4660   71.2030 N.am      5 SEP2        0.0000 
     22 N          65.1870    5.6450   72.3860 N.am      2 SEC2        0.0000 
     23 N          63.8490    4.9900   72.2870 N.am      5 SEP2        0.0000 
     24 O          67.6080    6.0360   71.7850 O.2       1 ALC1        0.0000 
     25 O          66.5250    6.3000   72.4850 O.2       7 ALL1        0.0000 
     26 O          68.6910    5.7720   71.0850 O.2       4 ALP1        0.0000 
     27 N          66.4450    9.1845   72.3245 N.am      2 SEC2        0.0000 
     28 N          65.6020    8.9030   73.4460 N.am      8 SEL2        0.0000 
     29 O          64.2255    8.9890   73.3570 O.2       1 ALC1        0.0000 
     30 O          65.6020    8.9030   73.4460 O.2       7 ALL1        0.0000 
     31 O          62.8490    9.0750   73.2680 O.2       4 ALP1        0.0000 
     32 N          68.1485    1.7805   75.5610 N.am      2 SEC2        0.0000 
     33 N          67.7240    3.0250   75.1430 N.am      8 SEL2        0.0000 
     34 N          68.5730    0.5360   75.9790 N.am      5 SEP2        0.0000 
     35 O          70.6255   -1.3925   83.7490 O.2       1 ALC1        0.0000 
     36 O          70.3260   -0.2260   82.9720 O.2       7 ALL1        0.0000 
     37 O          70.9250   -2.5590   84.5260 O.2       4 ALP1        0.0000 
     38 CA         71.8450    0.0110   79.6535 C.3       3 GLC5        0.0000 
     39 CA         70.9930    1.0330   81.1660 C.3       9 GLL5        0.0000 
     40 CA         72.6970   -1.0110   78.1410 C.3       6 GLP5        0.0000 
     41 N          68.2555    0.7290   85.8885 N.am      2 SEC2        0.0000 
     42 N          68.5430    0.4910   84.4000 N.am      8 SEL2        0.0000 
     43 N          67.9680    0.9670   87.3770 N.am      5 SEP2        0.0000 
     44 N          71.7615   -2.3645   82.1675 N.am      2 SEC2        0.0000 
     45 N          72.0230   -1.0070   81.6420 N.am      8 SEL2        0.0000 
     46 N          71.5000   -3.7220   82.6930 N.am      5 SEP2        0.0000 
     47 N          72.7950   -1.3005   80.3955 N.am      2 SEC2        0.0000 
     48 N          73.5670   -1.5940   79.1490 N.am      5 SEP2        0.0000 
     49 CA         66.6175    1.7305   82.7895 C.3       3 GLC5        0.0000 
     50 CA         68.2790    2.9440   82.7000 C.3       9 GLL5        0.0000 
     51 CA         64.9560    0.5170   82.8790 C.3       6 GLP5        0.0000 
     52 CA         65.5060    4.0790   81.0810 C.3       3 GLC5        0.0000 
     53 CA         67.2260    4.5930   81.4060 C.3       9 GLL5        0.0000 
     54 CA         63.7860    3.5650   80.7560 C.3       6 GLP5        0.0000 
     55 O          66.5475    6.8315   83.7415 O.2       1 ALC1        0.0000 
     56 O          67.1380    5.5990   83.5840 O.2       7 ALL1        0.0000 
     57 O          65.9570    8.0640   83.8990 O.2       4 ALP1        0.0000 
     58 CA         67.9905    3.3385   79.0235 C.3       3 GLC5        0.0000 
     59 CA         67.7030    5.0500   80.0360 C.3       9 GLL5        0.0000 
     60 CA         68.2780    1.6270   78.0110 C.3       6 GLP5        0.0000 
     61 CA         65.8840    3.9990   79.7955 C.3       3 GLC5        0.0000 
     62 CA         64.0650    2.9480   79.5550 C.3       6 GLP5        0.0000 
     63 N          71.3655    7.2310   75.7245 N.am      2 SEC2        0.0000 
     64 N          70.7960    8.0420   76.9060 N.am      8 SEL2        0.0000 
     65 N          71.9350    6.4200   74.5430 N.am      5 SEP2        0.0000 
     66 CA         66.7787    4.6615   72.8878 C.3       3 GLC5        0.0000 
     67 CA         67.1100    5.7250   74.7820 C.3       9 GLL5        0.0000 
     68 CA         64.7790    7.1270   72.5493 C.3       3 GLC5        0.0000 
     69 CA         63.2950    6.9850   71.1070 C.3       6 GLP5        0.0000 
     70 CA         65.3037   10.2130   75.5283 C.3       3 GLC5        0.0000 
     71 CA         65.6830    8.0370   75.7170 C.3       9 GLL5        0.0000 
     72 CA         65.5890   12.2050   75.0220 C.3       6 GLP5        0.0000 
     73 CA         69.4062    1.5668   79.6562 C.3       3 GLC5        0.0000 
     74 CA         70.0760    1.9800   81.4370 C.3       9 GLL5        0.0000 
@<TRIPOS>BOND
@<TRIPOS>SUBSTRUCTURE
     1 ALC1       16 GROUP        1 X    ALC  0     ROOT ALC X 1
     2 SEC2       19 GROUP        1 X    SEC  0     **** SEC X 2
     3 GLC5        1 GROUP        1 X    GLC  0     **** GLC X 6
     4 ALP1       18 GROUP        1 Y    ALP  0     ROOT ALP Y 8
     5 SEP2       21 GROUP        1 Y    SEP  0     **** SEP Y 9
     6 GLP5        3 GROUP        1 Y    GLP  0     **** GLP Y 13
     7 ALL1       17 GROUP        1 Z    ALL  0     ROOT ALL Z 15
     8 SEL2       20 GROUP        1 Z    SEL  0     **** SEL Z 16
     9 GLL5        2 GROUP        1 Z    GLL  0     **** GLL Z 20
@<TRIPOS>SET

