#    Name: 2v0i_UD1_1_ligand
#    Modification time : Tue Mar 25 00:38:27 2014

@<TRIPOS>MOLECULE
2v0i_UD1_1_ligand
   64    66     1     0     0
SMALL
NO_CHARGES


@<TRIPOS>ATOM
      1 C1'        67.4300    6.3410   76.1460 C.3       1 UD11455     0.0000 
      2 C2'        67.1100    5.7250   74.7820 C.3       1 UD11455     0.0000 
      3 C3'        66.8290    6.8150   73.7670 C.3       1 UD11455     0.0000 
      4 C4'        65.6970    7.7230   74.2160 C.3       1 UD11455     0.0000 
      5 C5'        65.6830    8.0370   75.7170 C.3       1 UD11455     0.0000 
      6 C6'        64.3540    8.4050   76.3520 C.3       1 UD11455     0.0000 
      7 C7'        68.5270    3.7350   74.5460 C.2       1 UD11455     0.0000 
      8 C8'        69.8080    3.1790   73.9810 C.3       1 UD11455     0.0000 
      9 N2'        68.3230    5.0360   74.3370 N.am      1 UD11455     0.0000 
     10 O1'        68.6090    7.1410   76.0790 O.3       1 UD11455     0.0000 
     11 O3'        66.5250    6.3000   72.4850 O.3       1 UD11455     0.0000 
     12 O4'        65.6020    8.9030   73.4460 O.3       1 UD11455     0.0000 
     13 O5'        66.4330    7.2320   76.6220 O.3       1 UD11455     0.0000 
     14 O6'        64.7140    9.4450   77.2590 O.3       1 UD11455     0.0000 
     15 O7'        67.7240    3.0250   75.1430 O.2       1 UD11455     0.0000 
     16 N1         69.2860    1.9190   82.4450 N.am      1 UD11455     0.0000 
     17 C2         69.2290    0.6770   83.1840 C.2       1 UD11455     0.0000 
     18 N3         70.3260   -0.2260   82.9720 N.am      1 UD11455     0.0000 
     19 C4         71.1120   -0.0840   81.9200 C.2       1 UD11455     0.0000 
     20 C5         70.9930    1.0330   81.1660 C.2       1 UD11455     0.0000 
     21 C6         70.0760    1.9800   81.4370 C.2       1 UD11455     0.0000 
     22 O2         68.5430    0.4910   84.4000 O.2       1 UD11455     0.0000 
     23 O4         72.0230   -1.0070   81.6420 O.2       1 UD11455     0.0000 
     24 C1B        68.2790    2.9440   82.7000 C.3       1 UD11455     0.0000 
     25 C2B        69.0210    4.2660   82.9280 C.3       1 UD11455     0.0000 
     26 O2'        69.4500    4.4420   84.2670 O.3       1 UD11455     0.0000 
     27 C3B        68.0030    5.2890   82.5070 C.3       1 UD11455     0.0000 
     28 C4B        67.2260    4.5930   81.4060 C.3       1 UD11455     0.0000 
     29 O4B        67.4120    3.1730   81.5900 O.3       1 UD11455     0.0000 
     30 O3B        67.1380    5.5990   83.5840 O.3       1 UD11455     0.0000 
     31 C5B        67.7030    5.0500   80.0360 C.3       1 UD11455     0.0000 
     32 O5B        69.0470    4.6090   79.8590 O.3       1 UD11455     0.0000 
     33 PA         70.2420    5.5420   79.3270 P.3       1 UD11455     0.0000 
     34 O1A        70.3300    6.7100   80.2740 O.co2     1 UD11455     0.0000 
     35 O2A        71.4040    4.6410   79.0500 O.co2     1 UD11455     0.0000 
     36 O3A        69.7260    5.9730   77.8790 O.3       1 UD11455     0.0000 
     37 PB         69.4860    7.4720   77.3880 P.3       1 UD11455     0.0000 
     38 O1B        68.6560    8.2090   78.4000 O.co2     1 UD11455     0.0000 
     39 O2B        70.7960    8.0420   76.9060 O.co2     1 UD11455     0.0000 
     40 H          67.5847    5.5360   76.8576 H         1 UD11455     0.0000 
     41 H          66.3022    5.0706   74.8592 H         1 UD11455     0.0000 
     42 H          67.7335    7.4516   73.7082 H         1 UD11455     0.0000 
     43 H          64.7395    7.1217   74.0397 H         1 UD11455     0.0000 
     44 H          66.2539    9.1076   75.7650 H         1 UD11455     0.0000 
     45 H          63.9669    7.5432   76.8545 H         1 UD11455     0.0000 
     46 H          63.6928    8.7468   75.5832 H         1 UD11455     0.0000 
     47 H          69.0224    5.6346   73.8419 H         1 UD11455     0.0000 
     48 H          70.4580   -0.9740   83.6758 H         1 UD11455     0.0000 
     49 H          71.6394    1.1626   80.3422 H         1 UD11455     0.0000 
     50 H          70.0248    2.8141   80.7620 H         1 UD11455     0.0000 
     51 H          67.7338    2.7363   83.5950 H         1 UD11455     0.0000 
     52 H          69.8274    4.2972   82.2113 H         1 UD11455     0.0000 
     53 H          68.4974    6.1237   82.0961 H         1 UD11455     0.0000 
     54 H          66.1838    4.8541   81.5200 H         1 UD11455     0.0000 
     55 H          67.6231    6.1377   79.9962 H         1 UD11455     0.0000 
     56 H          67.0333    4.6251   79.2863 H         1 UD11455     0.0000 
     57 H          70.6115    3.6349   74.3638 H         1 UD11455     0.0000 
     58 H          69.9057    2.2025   74.1732 H         1 UD11455     0.0000 
     59 H          69.8543    3.2884   72.9881 H         1 UD11455     0.0000 
     60 H          67.4124    6.1023   72.0685 H         1 UD11455     0.0000 
     61 H          64.6209    9.0582   73.3304 H         1 UD11455     0.0000 
     62 H          65.7136    9.4685   77.2421 H         1 UD11455     0.0000 
     63 H          68.6938    4.9131   84.7211 H         1 UD11455     0.0000 
     64 H          66.8593    6.5465   83.4275 H         1 UD11455     0.0000 
@<TRIPOS>BOND
     1    2    1 1    
     2   10    1 1    
     3   13    1 1    
     4   40    1 1    
     5    3    2 1    
     6    9    2 1    
     7   41    2 1    
     8    4    3 1    
     9   11    3 1    
    10   42    3 1    
    11    5    4 1    
    12   12    4 1    
    13   43    4 1    
    14    6    5 1    
    15   13    5 1    
    16   44    5 1    
    17   14    6 1    
    18   45    6 1    
    19   46    6 1    
    20    8    7 1    
    21    9    7 am   
    22   15    7 2    
    23   57    8 1    
    24   58    8 1    
    25   59    8 1    
    26   47    9 1    
    27   37   10 1    
    28   60   11 1    
    29   61   12 1    
    30   62   14 1    
    31   17   16 1    
    32   21   16 1    
    33   24   16 1    
    34   18   17 1    
    35   22   17 2    
    36   19   18 1    
    37   48   18 1    
    38   20   19 1    
    39   23   19 2    
    40   21   20 2    
    41   49   20 1    
    42   50   21 1    
    43   25   24 1    
    44   29   24 1    
    45   51   24 1    
    46   26   25 1    
    47   27   25 1    
    48   52   25 1    
    49   63   26 1    
    50   28   27 1    
    51   30   27 1    
    52   53   27 1    
    53   29   28 1    
    54   31   28 1    
    55   54   28 1    
    56   64   30 1    
    57   32   31 1    
    58   55   31 1    
    59   56   31 1    
    60   33   32 1    
    61   34   33 ar   
    62   35   33 ar   
    63   36   33 1    
    64   37   36 1    
    65   38   37 ar   
    66   39   37 ar   
@<TRIPOS>SUBSTRUCTURE
     1 UD11455     1 GROUP   
@<TRIPOS>SET

