#    Name: 1GKC_2_CAVITY_N1_ALL.mol2
#    Modification time : Tue Mar 11 01:53:33 2014

@<TRIPOS>MOLECULE
1GKC_2_CAVITY_N1_ALL.mol2
   65     0     5     0     0
SMALL
NO_CHARGES


@<TRIPOS>ATOM
      1 OD1        41.3597   15.1365  147.1941 O.3       2 ASP3        0.0000 
      2 OD1        42.1010   14.9315  145.9063 O.3       2 ASP3        0.0000 
      3 N          41.7168   17.2984  143.5611 N.2       1 ALA2        0.0000 
      4 OD1        42.2796   16.0124  144.0898 O.3       2 ASP3        0.0000 
      5 N          42.8423   14.7264  144.6185 N.2       1 ALA2        0.0000 
      6 CA         41.8954   18.3794  141.7446 C.3       4 GLY6        0.0000 
      7 CA         42.4581   17.0934  142.2733 C.3       4 GLY6        0.0000 
      8 NZ         43.0209   15.8074  142.8020 N.2       3 LYS4        0.0000 
      9 N          43.5836   14.5214  143.3307 N.2       1 ALA2        0.0000 
     10 CA         42.6367   18.1743  140.4568 C.3       4 GLY6        0.0000 
     11 CA         43.1994   16.8883  140.9855 C.3       4 GLY6        0.0000 
     12 CA         43.7622   15.6023  141.5142 C.3       4 GLY6        0.0000 
     13 CA         43.9407   16.6833  139.6977 C.3       4 GLY6        0.0000 
     14 CA         43.0988   14.5950  148.2814 C.3       4 GLY6        0.0000 
     15 CA         43.6345   17.8378  142.8319 C.3       4 GLY6        0.0000 
     16 CA         44.3758   17.6328  141.5441 C.3       4 GLY6        0.0000 
     17 CA         44.9385   16.3468  142.0728 C.3       4 GLY6        0.0000 
     18 CA         35.8351   13.5763  140.7681 C.3       4 GLY6        0.0000 
     19 CA         36.5764   13.3713  139.4803 C.3       4 GLY6        0.0000 
     20 CA         37.3177   13.1662  138.1925 C.3       4 GLY6        0.0000 
     21 CA         37.7527   14.1157  140.0389 C.3       4 GLY6        0.0000 
     22 N          38.3155   12.8297  140.5676 N.2       1 ALA2        0.0000 
     23 N          38.8782   11.5437  141.0963 N.2       1 ALA2        0.0000 
     24 N          39.4410   10.2577  141.6250 N.2       1 ALA2        0.0000 
     25 O          38.4940   13.9106  138.7511 O.2       1 ALA2        0.0000 
     26 N          39.0568   12.6246  139.2798 N.2       1 ALA2        0.0000 
     27 O          38.6726   14.9916  136.9346 O.2       1 ALA2        0.0000 
     28 O          39.2353   13.7056  137.4633 O.2       1 ALA2        0.0000 
     29 N          39.7981   12.4196  137.9920 N.2       1 ALA2        0.0000 
     30 N          38.7505   13.7792  142.4140 N.2       1 ALA2        0.0000 
     31 CA         39.3133   12.4932  142.9427 C.3       4 GLY6        0.0000 
     32 N          38.9291   14.8601  140.5975 N.2       1 ALA2        0.0000 
     33 N          39.4918   13.5741  141.1262 N.2       1 ALA2        0.0000 
     34 N          40.0546   12.2881  141.6549 N.2       1 ALA2        0.0000 
     35 O          39.6704   14.6551  139.3097 O.2       1 ALA2        0.0000 
     36 N          40.2331   13.3691  139.8384 N.2       1 ALA2        0.0000 
     37 CA         40.4117   14.4500  138.0219 C.3       4 GLY6        0.0000 
     38 N          40.9744   13.1640  138.5506 N.2       1 ALA2        0.0000 
     39 N          38.4443   14.9337  145.5482 N.2       1 ALA2        0.0000 
     40 N          39.1856   14.7286  144.2604 N.2       1 ALA2        0.0000 
     41 CA         39.7483   13.4426  144.7891 C.3       4 GLY6        0.0000 
     42 N          39.9269   14.5236  142.9726 N.2       1 ALA2        0.0000 
     43 CA         40.4896   13.2376  143.5013 C.3       4 GLY6        0.0000 
     44 N          40.1054   15.6045  141.1561 N.2       1 ALA2        0.0000 
     45 N          40.6682   14.3185  141.6848 N.2       1 ALA2        0.0000 
     46 O          41.2309   13.0325  142.2135 O.2       1 ALA2        0.0000 
     47 O          40.8467   15.3995  139.8683 O.2       1 ALA2        0.0000 
     48 CA         41.4095   14.1135  140.3970 C.3       4 GLY6        0.0000 
     49 O          41.9722   12.8275  140.9257 O.2       1 ALA2        0.0000 
     50 OD1        40.1834   14.3921  146.6355 O.3       2 ASP3        0.0000 
     51 CA         40.7462   13.1061  147.1642 C.3       4 GLY6        0.0000 
     52 N          39.7992   16.7591  144.2903 N.2       1 ALA2        0.0000 
     53 OD1        40.3619   15.4731  144.8190 O.3       2 ASP3        0.0000 
     54 CA         40.9247   14.1871  145.3477 C.3       4 GLY6        0.0000 
     55 N          39.9777   17.8400  142.4738 N.2       1 ALA2        0.0000 
     56 N          40.5405   16.5540  143.0025 N.2       1 ALA2        0.0000 
     57 N          41.1032   15.2680  143.5312 N.2       1 ALA2        0.0000 
     58 CA         41.6660   13.9820  144.0599 C.3       4 GLY6        0.0000 
     59 O          40.7190   17.6350  141.1860 O.2       1 ALA2        0.0000 
     60 N          41.2818   16.3490  141.7147 N.2       1 ALA2        0.0000 
     61 DU         41.8445   15.0630  142.2434 H         5 CUB7        0.0000 
     62 O          42.4073   13.7770  142.7721 O.2       1 ALA2        0.0000 
     63 O          41.4603   17.4299  139.8982 O.2       1 ALA2        0.0000 
     64 CA         42.0231   16.1439  140.4269 C.3       4 GLY6        0.0000 
     65 CA         42.5858   14.8579  140.9556 C.3       4 GLY6        0.0000 
@<TRIPOS>BOND
@<TRIPOS>SUBSTRUCTURE
     1 ALA2        3 GROUP   
     2 ASP3        1 GROUP   
     3 LYS4        8 GROUP   
     4 GLY6        6 GROUP   
     5 CUB7       61 GROUP   
@<TRIPOS>SET

