#    Name: 1gkc_NFH_2_INTS_M
#    Modification time : Tue Mar 25 03:15:52 2014

@<TRIPOS>MOLECULE
1gkc_NFH_2_INTS_M
   59     0    12     0     0
SMALL
NO_CHARGES


@<TRIPOS>ATOM
      1 N          43.0480   12.1565  141.5645 N.am      2 SEC2        0.0000 
      2 N          42.0490   13.0510  141.7320 N.am     10 SEL2        0.0000 
      3 N          44.0470   11.2620  141.3970 N.am      6 SEP2        0.0000 
      4 O          38.9000   15.0570  141.8205 O.2       1 ALC1        0.0000 
      5 O          39.9100   13.7310  141.3120 O.2       9 ALL1        0.0000 
      6 O          37.8900   16.3830  142.3290 O.2       5 ALP1        0.0000 
      7 N          39.3710   15.8030  138.4030 N.am      2 SEC2        0.0000 
      8 N          39.4140   14.4010  138.5500 N.am     10 SEL2        0.0000 
      9 N          39.3280   17.2050  138.2560 N.am      6 SEP2        0.0000 
     10 O          40.8855   11.3515  138.7650 O.2       1 ALC1        0.0000 
     11 O          40.4160   12.3930  137.9810 O.2       9 ALL1        0.0000 
     12 O          41.3550   10.3100  139.5490 O.2       5 ALP1        0.0000 
     13 CA         41.8170   16.8110  139.1150 C.3       4 GLC5        0.0000 
     14 CA         42.2020   16.8920  141.1640 C.3      12 GLL5        0.0000 
     15 CA         41.4320   16.7300  137.0660 C.3       8 GLP5        0.0000 
     16 Zn         42.2895   17.0915  146.7010 Zn        3 ZIC7        0.0000 
     17 Zn         43.3040   16.3430  146.8650 Zn       11 ZIL7        0.0000 
     18 Zn         41.2750   17.8400  146.5370 Zn        7 ZIP7        0.0000 
     19 N          44.6090   16.5780  146.8275 N.am      2 SEC2        0.0000 
     20 N          43.3040   16.3430  146.8650 N.am     10 SEL2        0.0000 
     21 N          45.9140   16.8130  146.7900 N.am      6 SEP2        0.0000 
     22 CA         41.7645   12.5905  144.5535 C.3       4 GLC5        0.0000 
     23 CA         41.6740   14.3840  144.3280 C.3      12 GLL5        0.0000 
     24 CA         41.8550   10.7970  144.7790 C.3       8 GLP5        0.0000 
     25 Zn         41.0765   16.9215  146.2270 Zn        3 ZIC7        0.0000 
     26 Zn         40.8780   16.0030  145.9170 Zn       11 ZIL7        0.0000 
     27 CA         40.9670   11.1105  141.1610 C.3       4 GLC5        0.0000 
     28 CA         39.5580   12.6360  140.3070 C.3      12 GLL5        0.0000 
     29 CA         42.3760    9.5850  142.0150 C.3       8 GLP5        0.0000 
     30 CA         39.0825   18.1095  142.3685 C.3       4 GLC5        0.0000 
     31 CA         40.9880   17.8430  141.2820 C.3      12 GLL5        0.0000 
     32 CA         37.1770   18.3760  143.4550 C.3       8 GLP5        0.0000 
     33 CA         39.2285   17.5730  140.5505 C.3       4 GLC5        0.0000 
     34 CA         37.4690   17.3030  139.8190 C.3       8 GLP5        0.0000 
     35 CA         40.6870   17.8160  139.3525 C.3       4 GLC5        0.0000 
     36 CA         40.3860   17.7890  137.4230 C.3       8 GLP5        0.0000 
     37 CA         45.3750   17.3590  141.0590 C.3       4 GLC5        0.0000 
     38 CA         43.3970   17.8130  140.9450 C.3      12 GLL5        0.0000 
     39 CA         47.3530   16.9050  141.1730 C.3       8 GLP5        0.0000 
     40 CA         43.3625   19.1785  142.4605 C.3       4 GLC5        0.0000 
     41 CA         43.3280   20.5440  143.9760 C.3       8 GLP5        0.0000 
     42 CA         43.4730   17.9450  138.8200 C.3       4 GLC5        0.0000 
     43 CA         43.5490   18.0770  136.6950 C.3       8 GLP5        0.0000 
     44 CA         39.2225    9.5125  139.2230 C.3       4 GLC5        0.0000 
     45 CA         37.6710   10.9340  139.5340 C.3      12 GLL5        0.0000 
     46 CA         40.7740    8.0910  138.9120 C.3       8 GLP5        0.0000 
     47 CA         36.0145   14.7700  140.1335 C.3       4 GLC5        0.0000 
     48 CA         36.9360   13.1610  140.4040 C.3      12 GLL5        0.0000 
     49 CA         35.0930   16.3790  139.8630 C.3       8 GLP5        0.0000 
     50 CA         42.5885   12.2625  137.2930 C.3       4 GLC5        0.0000 
     51 CA         40.7520   12.7020  136.5730 C.3      12 GLL5        0.0000 
     52 CA         44.4250   11.8230  138.0130 C.3       8 GLP5        0.0000 
     53 CA         42.3115   13.1745  135.4850 C.3       4 GLC5        0.0000 
     54 CA         43.8710   13.6470  134.3970 C.3       8 GLP5        0.0000 
     55 CA         41.0920   14.7160  136.8195 C.3       4 GLC5        0.0000 
     56 CA         43.4548   15.8287  139.6533 C.3       4 GLC5        0.0000 
     57 CA         44.1100   14.3050  138.2520 C.3       8 GLP5        0.0000 
     58 CA         42.3436   18.2978  143.1223 C.3       4 GLC5        0.0000 
     59 CA         43.0440   19.4290  144.6910 C.3       8 GLP5        0.0000 
@<TRIPOS>BOND
@<TRIPOS>SUBSTRUCTURE
     1 ALC1        4 GROUP        1 X    ALC  0     ROOT ALC X 1
     2 SEC2        1 GROUP        1 X    SEC  0     **** SEC X 2
     3 ZIC7       16 GROUP        1 X    ZIC  0     **** ZIC X 5
     4 GLC5       13 GROUP        1 X    GLC  0     **** GLC X 6
     5 ALP1        6 GROUP        1 Y    ALP  0     ROOT ALP Y 8
     6 SEP2        3 GROUP        1 Y    SEP  0     **** SEP Y 9
     7 ZIP7       18 GROUP        1 Y    ZIP  0     **** ZIP Y 12
     8 GLP5       15 GROUP        1 Y    GLP  0     **** GLP Y 13
     9 ALL1        5 GROUP        1 Z    ALL  0     ROOT ALL Z 15
    10 SEL2        2 GROUP        1 Z    SEL  0     **** SEL Z 16
    11 ZIL7       17 GROUP        1 Z    ZIL  0     **** ZIL Z 19
    12 GLL5       14 GROUP        1 Z    GLL  0     **** GLL Z 20
@<TRIPOS>SET

