#    Name: 1gkc_NFH_2_ligand
#    Modification time : Tue Mar 25 03:15:52 2014

@<TRIPOS>MOLECULE
1gkc_NFH_2_ligand
   50    49     1     0     0
SMALL
NO_CHARGES


@<TRIPOS>ATOM
      1 C          41.1030   13.8520  141.9350 C.2       1 NFH1449     0.0000 
      2 N          41.8940   15.3460  145.4410 N.am      1 NFH1449     0.0000 
      3 O          42.0490   13.0510  141.7320 O.2       1 NFH1449     0.0000 
      4 C1         39.7890   13.2410  138.8430 C.2       1 NFH1449     0.0000 
      5 N1         39.9100   13.7310  141.3120 N.am      1 NFH1449     0.0000 
      6 O1         39.4140   14.4010  138.5500 O.2       1 NFH1449     0.0000 
      7 N2         40.4160   12.3930  137.9810 N.am      1 NFH1449     0.0000 
      8 CA         41.2870   15.0470  142.9440 C.3       1 NFH1449     0.0000 
      9 CB         42.3950   16.0880  142.4860 C.3       1 NFH1449     0.0000 
     10 CG         42.2020   16.8920  141.1640 C.3       1 NFH1449     0.0000 
     11 CM         43.1010   15.5780  145.9820 C.2       1 NFH1449     0.0000 
     12 OM         43.3040   16.3430  146.8650 O.2       1 NFH1449     0.0000 
     13 CN         41.6740   14.3840  144.3280 C.3       1 NFH1449     0.0000 
     14 ON         40.8780   16.0030  145.9170 O.3       1 NFH1449     0.0000 
     15 CA1        39.5580   12.6360  140.3070 C.3       1 NFH1449     0.0000 
     16 CB1        38.0640   12.0680  140.5500 C.3       1 NFH1449     0.0000 
     17 CD1        40.9880   17.8430  141.2820 C.3       1 NFH1449     0.0000 
     18 CD2        43.3970   17.8130  140.9450 C.3       1 NFH1449     0.0000 
     19 CG1        37.6710   10.9340  139.5340 C.3       1 NFH1449     0.0000 
     20 CG2        37.9180   11.5010  141.9910 C.3       1 NFH1449     0.0000 
     21 CG3        36.9360   13.1610  140.4040 C.3       1 NFH1449     0.0000 
     22 CN2        40.7520   12.7020  136.5730 C.3       1 NFH1449     0.0000 
     23 H          39.1226   14.4041  141.4845 H         1 NFH1449     0.0000 
     24 H          40.7043   11.4269  138.2987 H         1 NFH1449     0.0000 
     25 H          40.3551   15.5390  143.0666 H         1 NFH1449     0.0000 
     26 H          43.3668   15.5353  142.4251 H         1 NFH1449     0.0000 
     27 H          42.5359   16.8157  143.3251 H         1 NFH1449     0.0000 
     28 H          42.0786   16.2548  140.3528 H         1 NFH1449     0.0000 
     29 H          43.9133   14.9870  145.5310 H         1 NFH1449     0.0000 
     30 H          40.8657   13.6739  144.5811 H         1 NFH1449     0.0000 
     31 H          42.5817   13.7786  144.1514 H         1 NFH1449     0.0000 
     32 H          40.2501   11.8166  140.4284 H         1 NFH1449     0.0000 
     33 H          41.1011   18.4987  142.0285 H         1 NFH1449     0.0000 
     34 H          40.8484   18.3726  140.4453 H         1 NFH1449     0.0000 
     35 H          40.1400   17.3428  141.4572 H         1 NFH1449     0.0000 
     36 H          44.2533   17.3008  140.8779 H         1 NFH1449     0.0000 
     37 H          43.3067   18.3446  140.1029 H         1 NFH1449     0.0000 
     38 H          43.5043   18.4666  141.6942 H         1 NFH1449     0.0000 
     39 H          37.7036   11.2556  138.5877 H         1 NFH1449     0.0000 
     40 H          38.2864   10.1484  139.5980 H         1 NFH1449     0.0000 
     41 H          36.7445   10.5946  139.6964 H         1 NFH1449     0.0000 
     42 H          38.5590   10.7528  142.1624 H         1 NFH1449     0.0000 
     43 H          38.0914   12.2002  142.6846 H         1 NFH1449     0.0000 
     44 H          36.9991   11.1438  142.1582 H         1 NFH1449     0.0000 
     45 H          37.0580   13.9099  141.0553 H         1 NFH1449     0.0000 
     46 H          36.9275   13.5661  139.4898 H         1 NFH1449     0.0000 
     47 H          36.0258   12.7790  140.5638 H         1 NFH1449     0.0000 
     48 H          41.3617   13.4914  136.5013 H         1 NFH1449     0.0000 
     49 H          41.2110   11.9354  136.1239 H         1 NFH1449     0.0000 
     50 H          39.9363   12.9118  136.0340 H         1 NFH1449     0.0000 
@<TRIPOS>BOND
     1    3    1 2    
     2    5    1 am   
     3    8    1 1    
     4   11    2 am   
     5   13    2 1    
     6   14    2 1    
     7    6    4 2    
     8    7    4 am   
     9   15    4 1    
    10   15    5 1    
    11   23    5 1    
    12   22    7 1    
    13   24    7 1    
    14    9    8 1    
    15   13    8 1    
    16   25    8 1    
    17   10    9 1    
    18   26    9 1    
    19   27    9 1    
    20   17   10 1    
    21   18   10 1    
    22   28   10 1    
    23   12   11 2    
    24   29   11 1    
    25   30   13 1    
    26   31   13 1    
    27   16   15 1    
    28   32   15 1    
    29   19   16 1    
    30   20   16 1    
    31   21   16 1    
    32   33   17 1    
    33   34   17 1    
    34   35   17 1    
    35   36   18 1    
    36   37   18 1    
    37   38   18 1    
    38   39   19 1    
    39   40   19 1    
    40   41   19 1    
    41   42   20 1    
    42   43   20 1    
    43   44   20 1    
    44   45   21 1    
    45   46   21 1    
    46   47   21 1    
    47   48   22 1    
    48   49   22 1    
    49   50   22 1    
@<TRIPOS>SUBSTRUCTURE
     1 NFH1449     1 GROUP   
@<TRIPOS>SET

