#    Name: 2C4H_2_CAVITY_N1_6.mol2
#    Modification time : Tue Mar 11 06:16:26 2014

@<TRIPOS>MOLECULE
2C4H_2_CAVITY_N1_6.mol2
  104     0     6     0     0
SMALL
NO_CHARGES


@<TRIPOS>ATOM
      1 CA          3.8473   63.3085   70.5925 C.3       5 GLY6        0.0000 
      2 CA          4.7796   62.1392   70.7085 C.3       5 GLY6        0.0000 
      3 N           5.7120   60.9699   70.8245 N.2       2 ALA2        0.0000 
      4 CZ         -0.0307   65.9049   69.7438 C.ar      4 PHE5        0.0000 
      5 CZ          0.9017   64.7356   69.8598 C.ar      4 PHE5        0.0000 
      6 CZ          1.8340   63.5663   69.9758 C.ar      4 PHE5        0.0000 
      7 DU          2.7664   62.3969   70.0918 H         6 CUB7        0.0000 
      8 DU          3.6987   61.2276   70.2078 H         6 CUB7        0.0000 
      9 CA          4.6310   60.0583   70.3238 C.3       5 GLY6        0.0000 
     10 CZ         -0.1792   63.8240   69.3591 C.ar      4 PHE5        0.0000 
     11 CZ          0.7531   62.6547   69.4751 C.ar      4 PHE5        0.0000 
     12 CZ          1.6854   61.4854   69.5911 C.ar      4 PHE5        0.0000 
     13 CZ          2.6178   60.3161   69.7071 C.ar      4 PHE5        0.0000 
     14 O           3.5501   59.1468   69.8231 O.2       2 ALA2        0.0000 
     15 CA          4.4825   57.9775   69.9391 C.3       5 GLY6        0.0000 
     16 N           2.4692   58.2352   69.3224 N.2       2 ALA2        0.0000 
     17 CZ          4.3081   63.5361   69.1833 C.ar      4 PHE5        0.0000 
     18 CZ          5.2404   62.3668   69.2993 C.ar      4 PHE5        0.0000 
     19 CZ          6.1728   61.1975   69.4153 C.ar      4 PHE5        0.0000 
     20 OG          0.4302   66.1325   68.3346 O.2       1 SER1        0.0000 
     21 OG          2.2948   63.7939   68.5666 O.2       1 SER1        0.0000 
     22 OG          3.2272   62.6246   68.6826 O.2       1 SER1        0.0000 
     23 CZ          4.1595   61.4552   68.7986 C.ar      4 PHE5        0.0000 
     24 O           5.0919   60.2859   68.9146 O.2       2 ALA2        0.0000 
     25 CZ          2.1462   61.7130   68.1819 C.ar      4 PHE5        0.0000 
     26 CZ          3.0786   60.5437   68.2979 C.ar      4 PHE5        0.0000 
     27 O           4.0109   59.3744   68.4139 O.2       2 ALA2        0.0000 
     28 NZ          1.0395   68.4409   67.3100 N.2       3 LYS4        0.0000 
     29 CA         -0.9737   68.6987   66.6934 C.3       5 GLY6        0.0000 
     30 CA         -0.0414   67.5294   66.8094 C.3       5 GLY6        0.0000 
     31 CZ          3.6880   62.8522   67.2734 C.ar      4 PHE5        0.0000 
     32 CZ          4.6203   61.6829   67.3894 C.ar      4 PHE5        0.0000 
     33 O          -2.0547   67.7872   66.1927 O.2       2 ALA2        0.0000 
     34 CZ          2.5813   69.5801   66.4015 C.ar      4 PHE5        0.0000 
     35 CA          1.5003   68.6686   65.9008 C.3       5 GLY6        0.0000 
     36 CZ          2.4327   67.4992   66.0168 C.ar      4 PHE5        0.0000 
     37 N          -0.5129   68.9263   65.2842 N.2       2 ALA2        0.0000 
     38 OG          0.4194   67.7570   65.4002 O.2       1 SER1        0.0000 
     39 OG         -0.6615   66.8455   64.8995 O.2       1 SER1        0.0000 
     40 CZ          3.9744   68.6384   65.1083 C.ar      4 PHE5        0.0000 
     41 CZ          4.9068   67.4691   65.2243 C.ar      4 PHE5        0.0000 
     42 CZ          2.8935   67.7269   64.6076 C.ar      4 PHE5        0.0000 
     43 CZ          3.8258   66.5576   64.7237 C.ar      4 PHE5        0.0000 
     44 CZ          4.7582   65.3882   64.8397 C.ar      4 PHE5        0.0000 
     45 OG          1.8126   66.8153   64.1070 O.2       1 SER1        0.0000 
     46 OG          2.7449   65.6460   64.2230 O.2       1 SER1        0.0000 
     47 OG          3.6772   64.4767   64.3390 O.2       1 SER1        0.0000 
     48 DU          4.2866   66.7852   63.3144 H         6 CUB7        0.0000 
     49 CZ          5.2190   65.6159   63.4305 C.ar      4 PHE5        0.0000 
     50 O           4.1380   64.7043   62.9298 O.2       2 ALA2        0.0000 
     51 CZ          5.0704   63.5350   63.0458 C.ar      4 PHE5        0.0000 
     52 N           2.3163   60.5448   74.4354 N.2       2 ALA2        0.0000 
     53 CA          3.2486   59.3755   74.5514 C.3       5 GLY6        0.0000 
     54 DU          0.3030   60.8026   73.8187 H         6 CUB7        0.0000 
     55 DU          1.2354   59.6333   73.9347 H         6 CUB7        0.0000 
     56 DU          2.1677   58.4639   74.0507 H         6 CUB7        0.0000 
     57 N           3.1001   57.2946   74.1667 N.2       2 ALA2        0.0000 
     58 DU          0.1544   58.7217   73.4340 H         6 CUB7        0.0000 
     59 DU          1.0868   57.5524   73.5500 H         6 CUB7        0.0000 
     60 N           2.0191   56.3831   73.6660 N.2       2 ALA2        0.0000 
     61 CA         -0.9265   57.8102   72.9333 C.3       5 GLY6        0.0000 
     62 DU          0.0059   56.6409   73.0493 H         6 CUB7        0.0000 
     63 DU          0.9382   55.4716   73.1654 H         6 CUB7        0.0000 
     64 N          -1.0751   55.7293   72.5487 N.2       2 ALA2        0.0000 
     65 N          -0.1427   54.5600   72.6647 N.2       2 ALA2        0.0000 
     66 OG         -0.0199   64.2803   72.6782 O.2       1 SER1        0.0000 
     67 DU          0.9124   63.1110   72.7942 H         6 CUB7        0.0000 
     68 N           1.8448   61.9417   72.9102 N.2       2 ALA2        0.0000 
     69 N           2.7771   60.7724   73.0262 N.2       2 ALA2        0.0000 
     70 CA          3.7094   59.6031   73.1422 C.3       5 GLY6        0.0000 
     71 N           4.6418   58.4338   73.2582 N.2       2 ALA2        0.0000 
     72 OG         -0.1685   62.1995   72.2935 O.2       1 SER1        0.0000 
     73 DU          0.7638   61.0302   72.4095 H         6 CUB7        0.0000 
     74 DU          1.6962   59.8609   72.5255 H         6 CUB7        0.0000 
     75 N           2.6285   58.6916   72.6415 N.2       2 ALA2        0.0000 
     76 CZ         -1.2494   61.2879   71.7928 C.ar      4 PHE5        0.0000 
     77 CZ         -0.3171   60.1186   71.9088 C.ar      4 PHE5        0.0000 
     78 CZ          0.6153   58.9493   72.0248 C.ar      4 PHE5        0.0000 
     79 N           1.5476   57.7800   72.1408 N.2       2 ALA2        0.0000 
     80 N           2.4799   56.6107   72.2568 N.2       2 ALA2        0.0000 
     81 CZ         -1.3980   59.2071   71.4081 C.ar      4 PHE5        0.0000 
     82 CZ         -0.4657   58.0378   71.5241 C.ar      4 PHE5        0.0000 
     83 CA          0.4667   56.8685   71.6401 C.3       5 GLY6        0.0000 
     84 CA          1.3990   55.6992   71.7562 C.3       5 GLY6        0.0000 
     85 CA         -0.6143   55.9569   71.1395 C.3       5 GLY6        0.0000 
     86 CA          4.3188   61.9116   72.1177 C.3       5 GLY6        0.0000 
     87 CA          5.2512   60.7423   72.2337 C.3       5 GLY6        0.0000 
     88 CZ          0.4409   64.5080   71.2690 C.ar      4 PHE5        0.0000 
     89 CZ          1.3732   63.3386   71.3850 C.ar      4 PHE5        0.0000 
     90 CA          2.3056   62.1693   71.5010 C.3       5 GLY6        0.0000 
     91 DU          3.2379   61.0000   71.6170 H         6 CUB7        0.0000 
     92 N           4.1702   59.8307   71.7330 N.2       2 ALA2        0.0000 
     93 N           5.1026   58.6614   71.8490 N.2       2 ALA2        0.0000 
     94 OG         -0.6400   63.5964   70.7683 O.2       1 SER1        0.0000 
     95 DU          0.2923   62.4271   70.8843 H         6 CUB7        0.0000 
     96 DU          1.2246   61.2578   71.0003 H         6 CUB7        0.0000 
     97 DU          2.1570   60.0885   71.1163 H         6 CUB7        0.0000 
     98 N           3.0893   58.9192   71.2323 N.2       2 ALA2        0.0000 
     99 CZ         -1.7210   62.6849   70.2676 C.ar      4 PHE5        0.0000 
    100 CZ         -0.7886   61.5156   70.3836 C.ar      4 PHE5        0.0000 
    101 CZ          0.1437   60.3462   70.4996 C.ar      4 PHE5        0.0000 
    102 CZ          1.0761   59.1769   70.6156 C.ar      4 PHE5        0.0000 
    103 N           2.0084   58.0076   70.7316 N.2       2 ALA2        0.0000 
    104 CA          0.9275   57.0961   70.2309 C.3       5 GLY6        0.0000 
@<TRIPOS>BOND
@<TRIPOS>SUBSTRUCTURE
     1 SER1       20 GROUP   
     2 ALA2        3 GROUP   
     3 LYS4       28 GROUP   
     4 PHE5        4 GROUP   
     5 GLY6        1 GROUP   
     6 CUB7        7 GROUP   
@<TRIPOS>SET

