#    Name: 2c4h_AT3_2_INTS_M
#    Modification time : Mon Mar 24 22:35:53 2014

@<TRIPOS>MOLECULE
2c4h_AT3_2_INTS_M
   22     0     3     0     0
SMALL
NO_CHARGES


@<TRIPOS>ATOM
      1 CA         -2.1925   63.3305   70.8675 C.3       1 GLC5        0.0000 
      2 CA         -0.6820   62.1740   71.0670 C.3       3 GLL5        0.0000 
      3 CA         -3.7030   64.4870   70.6680 C.3       2 GLP5        0.0000 
      4 CA         -1.7315   61.1745   69.8045 C.3       1 GLC5        0.0000 
      5 CA         -2.7810   60.1750   68.5420 C.3       2 GLP5        0.0000 
      6 CA          4.3775   65.1525   68.3995 C.3       1 GLC5        0.0000 
      7 CA          3.3260   64.3890   68.6970 C.3       3 GLL5        0.0000 
      8 CA          5.4290   65.9160   68.1020 C.3       2 GLP5        0.0000 
      9 CA          5.1675   63.4550   67.8830 C.3       1 GLC5        0.0000 
     10 CA          7.0090   62.5210   67.0690 C.3       2 GLP5        0.0000 
     11 CA          3.1740   65.4185   70.3280 C.3       1 GLC5        0.0000 
     12 CA          3.0220   66.4480   71.9590 C.3       2 GLP5        0.0000 
     13 CA         -0.7375   59.2080   70.5200 C.3       1 GLC5        0.0000 
     14 CA         -0.2450   60.0820   72.2180 C.3       3 GLL5        0.0000 
     15 CA         -1.2300   58.3340   68.8220 C.3       2 GLP5        0.0000 
     16 CA         -3.0960   62.6280   71.2210 C.3       1 GLC5        0.0000 
     17 CA         -2.4890   60.7690   71.7740 C.3       3 GLL5        0.0000 
     18 CA         -3.4890   60.1660   70.8120 C.3       1 GLC5        0.0000 
     19 CA         -4.4890   59.5630   69.8500 C.3       2 GLP5        0.0000 
     20 CA          0.4865   61.2570   68.5290 C.3       1 GLC5        0.0000 
     21 CA          1.6870   62.2840   69.6810 C.3       3 GLL5        0.0000 
     22 CA         -0.7140   60.2300   67.3770 C.3       2 GLP5        0.0000 
@<TRIPOS>BOND
@<TRIPOS>SUBSTRUCTURE
     1 GLC5        1 GROUP        1 X    GLC  0     ROOT GLC X 6
     2 GLP5        3 GROUP        1 Y    GLP  0     ROOT GLP Y 13
     3 GLL5        2 GROUP        1 Z    GLL  0     ROOT GLL Z 20
@<TRIPOS>SET

