#    Name: 2c4h_AT3_2_ligand
#    Modification time : Mon Mar 24 22:35:53 2014

@<TRIPOS>MOLECULE
2c4h_AT3_2_ligand
   26    25     1     0     0
SMALL
NO_CHARGES


@<TRIPOS>ATOM
      1 N1         -1.1440   61.2420   72.1190 N.4       1 AT31541     0.0000 
      2 C2         -0.6820   62.1740   71.0670 C.3       1 AT31541     0.0000 
      3 C3          0.7970   62.5060   71.2390 C.3       1 AT31541     0.0000 
      4 C5          1.9700   63.9720   69.2700 C.2       1 AT31541     0.0000 
      5 O7          0.9120   64.9260   69.3620 O.2       1 AT31541     0.0000 
      6 C6          3.3260   64.3890   68.6970 C.3       1 AT31541     0.0000 
      7 C8         -0.2450   60.0820   72.2180 C.3       1 AT31541     0.0000 
      8 C9         -1.2090   61.9270   73.4160 C.3       1 AT31541     0.0000 
      9 C10        -2.4890   60.7690   71.7740 C.3       1 AT31541     0.0000 
     10 S24         1.6870   62.2840   69.6810 S.3       1 AT31541     0.0000 
     11 H          -1.2548   63.1071   71.1062 H         1 AT31541     0.0000 
     12 H          -0.8260   61.7310   70.0754 H         1 AT31541     0.0000 
     13 H           1.3102   61.8422   71.8945 H         1 AT31541     0.0000 
     14 H           0.9812   63.5298   71.4661 H         1 AT31541     0.0000 
     15 H           3.7448   65.1235   69.2309 H         1 AT31541     0.0000 
     16 H           3.9746   63.6279   68.6863 H         1 AT31541     0.0000 
     17 H           3.2461   64.7192   67.7565 H         1 AT31541     0.0000 
     18 H           0.6904   60.3552   72.4425 H         1 AT31541     0.0000 
     19 H          -0.5415   59.4418   72.9267 H         1 AT31541     0.0000 
     20 H          -0.2030   59.5704   71.3598 H         1 AT31541     0.0000 
     21 H          -0.3162   62.2816   73.6939 H         1 AT31541     0.0000 
     22 H          -1.8390   62.7033   73.3949 H         1 AT31541     0.0000 
     23 H          -1.5211   61.3160   74.1435 H         1 AT31541     0.0000 
     24 H          -2.5010   60.2925   70.8949 H         1 AT31541     0.0000 
     25 H          -2.8454   60.1320   72.4576 H         1 AT31541     0.0000 
     26 H          -3.1422   61.5232   71.7075 H         1 AT31541     0.0000 
@<TRIPOS>BOND
     1    2    1 1    
     2    7    1 1    
     3    8    1 1    
     4    9    1 1    
     5    3    2 1    
     6   11    2 1    
     7   12    2 1    
     8   10    3 1    
     9   13    3 1    
    10   14    3 1    
    11    5    4 2    
    12    6    4 1    
    13   10    4 1    
    14   15    6 1    
    15   16    6 1    
    16   17    6 1    
    17   18    7 1    
    18   19    7 1    
    19   20    7 1    
    20   21    8 1    
    21   22    8 1    
    22   23    8 1    
    23   24    9 1    
    24   25    9 1    
    25   26    9 1    
@<TRIPOS>SUBSTRUCTURE
     1 AT31541     1 GROUP   
@<TRIPOS>SET

