#    Name: 3lak_KR1_1_INTS_M
#    Modification time : Mon Mar 24 21:15:13 2014

@<TRIPOS>MOLECULE
3lak_KR1_1_INTS_M
   84     0     6     0     0
SMALL
NO_CHARGES


@<TRIPOS>ATOM
      1 CA         11.5170   11.0480   22.7200 C.3       2 GLC5        0.0000 
      2 CA          9.7770   10.6110   22.4320 C.3       6 GLL5        0.0000 
      3 CA         13.2570   11.4850   23.0080 C.3       4 GLP5        0.0000 
      4 CA          8.1145    9.6110   22.4905 C.3       2 GLC5        0.0000 
      5 CA          6.4520    8.6110   22.5490 C.3       4 GLP5        0.0000 
      6 CA          9.8450   12.0705   23.7840 C.3       2 GLC5        0.0000 
      7 CA          9.9130   13.5300   25.1360 C.3       4 GLP5        0.0000 
      8 CA          3.6290    6.5220   19.4335 C.3       2 GLC5        0.0000 
      9 CA          4.6400    7.0660   17.5350 C.3       6 GLL5        0.0000 
     10 CA          2.6180    5.9780   21.3320 C.3       4 GLP5        0.0000 
     11 CA          6.2385    7.0750   18.4685 C.3       2 GLC5        0.0000 
     12 CA          7.8370    7.0840   19.4020 C.3       4 GLP5        0.0000 
     13 CA          3.0875    6.8965   16.5710 C.3       2 GLC5        0.0000 
     14 CA          1.5350    6.7270   15.6070 C.3       4 GLP5        0.0000 
     15 O           8.0630   13.8545   12.6760 O.2       1 ALC1        0.0000 
     16 O           8.6310   13.2370   13.8250 O.2       5 ALL1        0.0000 
     17 O           7.4950   14.4720   11.5270 O.2       3 ALP1        0.0000 
     18 O           6.6365    7.9635   11.8290 O.2       1 ALC1        0.0000 
     19 O           6.3930    7.6350   13.1420 O.2       5 ALL1        0.0000 
     20 O           6.8800    8.2920   10.5160 O.2       3 ALP1        0.0000 
     21 CA          8.6265   14.4790   17.9960 C.3       2 GLC5        0.0000 
     22 CA          9.7830   13.2250   18.9850 C.3       6 GLL5        0.0000 
     23 CA          7.4700   15.7330   17.0070 C.3       4 GLP5        0.0000 
     24 CA          8.3115   13.8270   16.6145 C.3       2 GLC5        0.0000 
     25 CA          9.1530   11.9210   16.2220 C.3       6 GLL5        0.0000 
     26 CA          8.9255   15.5075   18.6980 C.3       2 GLC5        0.0000 
     27 CA         10.3810   15.2820   20.3890 C.3       6 GLL5        0.0000 
     28 CA         11.9625   14.3565   20.7255 C.3       2 GLC5        0.0000 
     29 CA         13.5440   13.4310   21.0620 C.3       4 GLP5        0.0000 
     30 CA          9.9630   16.4785   21.8395 C.3       2 GLC5        0.0000 
     31 CA          9.5450   17.6750   23.2900 C.3       4 GLP5        0.0000 
     32 CA         11.3925   10.0475   14.3445 C.3       2 GLC5        0.0000 
     33 CA         12.6530   11.5790   14.9090 C.3       6 GLL5        0.0000 
     34 CA         10.1320    8.5160   13.7800 C.3       4 GLP5        0.0000 
     35 CA         13.7895   12.9115   13.9830 C.3       2 GLC5        0.0000 
     36 CA         14.9260   14.2440   13.0570 C.3       4 GLP5        0.0000 
     37 CA         14.1585   10.4365   15.2475 C.3       2 GLC5        0.0000 
     38 CA         15.6640    9.2940   15.5860 C.3       4 GLP5        0.0000 
     39 CA         13.0845   10.3920   13.6950 C.3       2 GLC5        0.0000 
     40 CA         13.5160    9.2050   12.4810 C.3       4 GLP5        0.0000 
     41 CA         10.9485   15.2905   16.2445 C.3       2 GLC5        0.0000 
     42 CA         12.3270   13.7000   16.2910 C.3       6 GLL5        0.0000 
     43 CA          9.5700   16.8810   16.1980 C.3       4 GLP5        0.0000 
     44 CA         13.6265   13.9720   14.6740 C.3       2 GLC5        0.0000 
     45 CA         13.4760   14.8830   16.0555 C.3       2 GLC5        0.0000 
     46 CA         14.6250   16.0660   15.8200 C.3       4 GLP5        0.0000 
     47 CA          6.9980   13.6370   16.6955 C.3       2 GLC5        0.0000 
     48 CA          6.5260   11.5410   16.3840 C.3       6 GLL5        0.0000 
     49 CA          5.5100   11.6170   18.1795 C.3       2 GLC5        0.0000 
     50 CA          4.4940   11.6930   19.9750 C.3       4 GLP5        0.0000 
     51 CA          4.9540   12.5725   15.7865 C.3       2 GLC5        0.0000 
     52 CA          3.3820   13.6040   15.1890 C.3       4 GLP5        0.0000 
     53 CA          5.0205   10.4615   18.4925 C.3       2 GLC5        0.0000 
     54 CA          5.5470    9.2300   17.0100 C.3       6 GLL5        0.0000 
     55 CA          8.1022   12.0177   21.3425 C.3       2 GLC5        0.0000 
     56 CA          9.7760   11.4600   21.2440 C.3       6 GLL5        0.0000 
     57 CA          6.4280   13.0000   20.8470 C.3       4 GLP5        0.0000 
     58 CA          4.7285    5.7895   17.8780 C.3       2 GLC5        0.0000 
     59 CA          5.2560    7.9280   16.6250 C.3       6 GLL5        0.0000 
     60 CA          4.5090    4.0820   18.6760 C.3       4 GLP5        0.0000 
     61 CA         11.8100   11.9372   20.2700 C.3       2 GLC5        0.0000 
     62 CA         13.7010   11.7000   19.2260 C.3       4 GLP5        0.0000 
     63 CA          8.6880   12.5473   23.0065 C.3       2 GLC5        0.0000 
     64 CA         10.0620   12.8890   21.3840 C.3       6 GLL5        0.0000 
     65 CA          7.4570   12.9200   24.6990 C.3       4 GLP5        0.0000 
     66 CA         11.5975   11.5212   19.3107 C.3       2 GLC5        0.0000 
     67 CA          9.4910   10.8990   19.9710 C.3       6 GLL5        0.0000 
     68 CA          7.9610   12.1713   20.1212 C.3       2 GLC5        0.0000 
     69 CA          9.4970   11.7860   18.8200 C.3       6 GLL5        0.0000 
     70 CA         11.8133   12.5947   19.4220 C.3       2 GLC5        0.0000 
     71 CA          8.1760   13.1366   20.3741 C.3       2 GLC5        0.0000 
     72 CA          9.9238   10.3460   14.8277 C.3       2 GLC5        0.0000 
     73 CA         12.9826   12.2628   17.5480 C.3       2 GLC5        0.0000 
     74 CA         11.7500   12.3230   15.9890 C.3       6 GLL5        0.0000 
     75 CA          4.4708    8.4797   14.2033 C.3       2 GLC5        0.0000 
     76 CA          6.4960    9.5540   14.6540 C.3       6 GLL5        0.0000 
     77 CA          2.6160    8.0720   13.8910 C.3       4 GLP5        0.0000 
     78 CA          7.6915    8.0571   15.2305 C.3       2 GLC5        0.0000 
     79 CA          6.1550    8.2210   14.3770 C.3       6 GLL5        0.0000 
     80 CA          9.1350    7.0930   15.6050 C.3       4 GLP5        0.0000 
     81 CA          7.2683    7.8360   16.2112 C.3       2 GLC5        0.0000 
     82 CA          4.0088    8.3255   15.3543 C.3       2 GLC5        0.0000 
     83 CA          3.4067    8.6852   17.2400 C.3       2 GLC5        0.0000 
     84 CA          1.5660    9.0070   17.4350 C.3       4 GLP5        0.0000 
@<TRIPOS>BOND
@<TRIPOS>SUBSTRUCTURE
     1 ALC1       15 GROUP        1 X    ALC  0     ROOT ALC X 1
     2 GLC5        1 GROUP        1 X    GLC  0     **** GLC X 6
     3 ALP1       17 GROUP        1 Y    ALP  0     ROOT ALP Y 8
     4 GLP5        3 GROUP        1 Y    GLP  0     **** GLP Y 13
     5 ALL1       16 GROUP        1 Z    ALL  0     ROOT ALL Z 15
     6 GLL5        2 GROUP        1 Z    GLL  0     **** GLL Z 20
@<TRIPOS>SET

