#    Name: 3lak_KR1_1_ligand
#    Modification time : Mon Mar 24 21:15:14 2014

@<TRIPOS>MOLECULE
3lak_KR1_1_ligand
   51    53     1     0     0
SMALL
NO_CHARGES


@<TRIPOS>ATOM
      1 C1          9.7770   10.6110   22.4320 C.1       1 KR1701      0.0000 
      2 F1          4.6400    7.0660   17.5350 F         1 KR1701      0.0000 
      3 N1          9.7620    9.9520   23.4440 N.1       1 KR1701      0.0000 
      4 O1          8.9660    9.9400   17.3500 O.2       1 KR1701      0.0000 
      5 C2         10.0620   12.8890   21.3840 C.ar      1 KR1701      0.0000 
      6 N2          8.6310   13.2370   13.8250 N.am      1 KR1701      0.0000 
      7 O2         10.8860   13.6750   13.4630 O.2       1 KR1701      0.0000 
      8 C3          9.7760   11.4600   21.2440 C.ar      1 KR1701      0.0000 
      9 N3          7.7760   12.0520   15.7350 N.am      1 KR1701      0.0000 
     10 O3          6.3430   12.8390   14.1040 O.2       1 KR1701      0.0000 
     11 C4          9.4910   10.8990   19.9710 C.ar      1 KR1701      0.0000 
     12 N4          6.3930    7.6350   13.1420 N.pl3     1 KR1701      0.0000 
     13 C5          9.4970   11.7860   18.8200 C.ar      1 KR1701      0.0000 
     14 N5          5.5630    7.4840   15.3490 N.ar      1 KR1701      0.0000 
     15 C6          9.7830   13.2250   18.9850 C.ar      1 KR1701      0.0000 
     16 C7         10.0680   13.7540   20.2510 C.ar      1 KR1701      0.0000 
     17 C8          9.2020   11.2000   17.4890 C.2       1 KR1701      0.0000 
     18 C9          9.1530   11.9210   16.2220 C.2       1 KR1701      0.0000 
     19 C10        10.3810   15.2820   20.3890 C.3       1 KR1701      0.0000 
     20 C11        10.2780   12.4310   15.5290 C.2       1 KR1701      0.0000 
     21 C12         9.9930   13.1460   14.2310 C.2       1 KR1701      0.0000 
     22 C13         7.5330   12.7270   14.5230 C.2       1 KR1701      0.0000 
     23 C14        11.7500   12.3230   15.9890 C.3       1 KR1701      0.0000 
     24 C15        12.6530   11.5790   14.9090 C.3       1 KR1701      0.0000 
     25 C16        12.3270   13.7000   16.2910 C.3       1 KR1701      0.0000 
     26 C17         6.5260   11.5410   16.3840 C.3       1 KR1701      0.0000 
     27 C18         6.1860   10.0890   16.0160 C.ar      1 KR1701      0.0000 
     28 C19         6.4960    9.5540   14.6540 C.ar      1 KR1701      0.0000 
     29 C20         6.1550    8.2210   14.3770 C.ar      1 KR1701      0.0000 
     30 C21         5.2560    7.9280   16.6250 C.ar      1 KR1701      0.0000 
     31 C22         5.5470    9.2300   17.0100 C.ar      1 KR1701      0.0000 
     32 H          10.2581   13.2555   22.3140 H         1 KR1701      0.0000 
     33 H           8.4433   13.7402   12.9067 H         1 KR1701      0.0000 
     34 H           9.2910    9.9282   19.8545 H         1 KR1701      0.0000 
     35 H           6.3231    8.2385   12.3478 H         1 KR1701      0.0000 
     36 H           6.6140    6.6598   13.1530 H         1 KR1701      0.0000 
     37 H           9.7651   13.8097   18.1534 H         1 KR1701      0.0000 
     38 H          11.7850   11.7247   16.8948 H         1 KR1701      0.0000 
     39 H           5.6707   12.1791   16.1008 H         1 KR1701      0.0000 
     40 H           6.6219   11.6064   17.4819 H         1 KR1701      0.0000 
     41 H           6.9311   10.1583   13.9945 H         1 KR1701      0.0000 
     42 H           5.3431    9.5944   17.9145 H         1 KR1701      0.0000 
     43 H          11.2929   15.4416   20.7671 H         1 KR1701      0.0000 
     44 H          10.3438   15.7499   19.5060 H         1 KR1701      0.0000 
     45 H           9.7290   15.7417   20.9920 H         1 KR1701      0.0000 
     46 H          13.6047   11.5064   15.2072 H         1 KR1701      0.0000 
     47 H          12.3297   10.6495   14.7315 H         1 KR1701      0.0000 
     48 H          12.6564   12.0605   14.0326 H         1 KR1701      0.0000 
     49 H          13.2804   13.6462   16.5879 H         1 KR1701      0.0000 
     50 H          12.3030   14.2968   15.4890 H         1 KR1701      0.0000 
     51 H          11.8196   14.1642   17.0170 H         1 KR1701      0.0000 
@<TRIPOS>BOND
     1    3    1 3    
     2    8    1 1    
     3   30    2 1    
     4   17    4 2    
     5    8    5 ar   
     6   16    5 ar   
     7   32    5 1    
     8   21    6 1    
     9   22    6 1    
    10   33    6 1    
    11   21    7 2    
    12   11    8 ar   
    13   18    9 1    
    14   22    9 1    
    15   26    9 1    
    16   22   10 2    
    17   13   11 ar   
    18   34   11 1    
    19   29   12 1    
    20   35   12 1    
    21   36   12 1    
    22   15   13 ar   
    23   17   13 1    
    24   29   14 ar   
    25   30   14 ar   
    26   16   15 ar   
    27   37   15 1    
    28   19   16 1    
    29   18   17 1    
    30   20   18 2    
    31   43   19 1    
    32   44   19 1    
    33   45   19 1    
    34   21   20 1    
    35   23   20 1    
    36   24   23 1    
    37   25   23 1    
    38   38   23 1    
    39   46   24 1    
    40   47   24 1    
    41   48   24 1    
    42   49   25 1    
    43   50   25 1    
    44   51   25 1    
    45   27   26 1    
    46   39   26 1    
    47   40   26 1    
    48   28   27 ar   
    49   31   27 ar   
    50   29   28 ar   
    51   41   28 1    
    52   31   30 ar   
    53   42   31 1    
@<TRIPOS>SUBSTRUCTURE
     1 KR1701      1 GROUP   
@<TRIPOS>SET

