#    Name: 2nr4_FMN_1_INTS_M
#    Modification time : Tue Mar 25 21:31:16 2014

@<TRIPOS>MOLECULE
2nr4_FMN_1_INTS_M
   48     0     9     0     0
SMALL
NO_CHARGES


@<TRIPOS>ATOM
      1 N          41.4210   48.5560   24.1335 N.am      2 SEC2        0.0000 
      2 N          41.4240   47.3470   23.5170 N.am      8 SEL2        0.0000 
      3 N          41.4180   49.7650   24.7500 N.am      5 SEP2        0.0000 
      4 O          41.2355   45.8690   25.7350 O.2       1 ALC1        0.0000 
      5 O          41.6330   45.3200   24.5170 O.2       7 ALL1        0.0000 
      6 O          40.8380   46.4180   26.9530 O.2       4 ALP1        0.0000 
      7 N          41.1575   41.9575   25.0605 N.am      2 SEC2        0.0000 
      8 N          41.7460   43.1790   25.2690 N.am      8 SEL2        0.0000 
      9 N          40.5690   40.7360   24.8520 N.am      5 SEP2        0.0000 
     10 CA         41.7280   41.6940   22.3790 C.3       3 GLC5        0.0000 
     11 CA         43.7730   41.8220   21.9960 C.3       9 GLL5        0.0000 
     12 CA         39.6830   41.5660   22.7620 C.3       6 GLP5        0.0000 
     13 CA         45.8125   36.6500   20.2440 C.3       3 GLC5        0.0000 
     14 CA         45.3450   38.6310   20.7050 C.3       9 GLL5        0.0000 
     15 CA         46.2800   34.6690   19.7830 C.3       6 GLP5        0.0000 
     16 CA         46.5160   39.9150   16.9645 C.3       3 GLC5        0.0000 
     17 CA         45.5020   40.4720   18.3470 C.3       9 GLL5        0.0000 
     18 CA         47.5300   39.3580   15.5820 C.3       6 GLP5        0.0000 
     19 O          41.4010   43.3250   19.5260 O.2       1 ALC1        0.0000 
     20 O          42.1630   43.9060   18.6470 O.2       7 ALL1        0.0000 
     21 O          40.6390   42.7440   20.4050 O.2       4 ALP1        0.0000 
     22 O          42.6005   45.8280   14.3745 O.2       1 ALC1        0.0000 
     23 O          42.4420   46.5300   15.6620 O.2       7 ALL1        0.0000 
     24 O          42.7590   45.1260   13.0870 O.2       4 ALP1        0.0000 
     25 N          38.0550   50.4170   16.7510 N.am      2 SEC2        0.0000 
     26 N          38.8470   49.5430   16.0660 N.am      8 SEL2        0.0000 
     27 N          37.2630   51.2910   17.4360 N.am      5 SEP2        0.0000 
     28 N          36.7845   48.6905   18.2750 N.am      2 SEC2        0.0000 
     29 N          37.9260   47.9480   17.7620 N.am      8 SEL2        0.0000 
     30 N          35.6430   49.4330   18.7880 N.am      5 SEP2        0.0000 
     31 N          37.0720   47.3430   18.5160 N.am      2 SEC2        0.0000 
     32 N          36.2180   46.7380   19.2700 N.am      5 SEP2        0.0000 
     33 N          36.2220   47.2685   15.5000 N.am      2 SEC2        0.0000 
     34 N          37.5510   47.5750   15.1990 N.am      8 SEL2        0.0000 
     35 N          34.8930   46.9620   15.8010 N.am      5 SEP2        0.0000 
     36 CA         42.7375   40.7420   20.2890 C.3       3 GLC5        0.0000 
     37 CA         41.4810   40.3250   18.6300 C.3       6 GLP5        0.0000 
     38 CA         46.9310   39.6637   20.6820 C.3       3 GLC5        0.0000 
     39 CA         44.8230   40.0400   20.7390 C.3       9 GLL5        0.0000 
     40 CA         48.7780   39.9920   20.6420 C.3       6 GLP5        0.0000 
     41 CA         47.0165   40.3483   19.8240 C.3       3 GLC5        0.0000 
     42 CA         45.0080   40.9370   19.6650 C.3       9 GLL5        0.0000 
     43 CA         43.3449   40.4026   18.9522 C.3       3 GLC5        0.0000 
     44 CA         42.8693   41.4060   19.4860 C.3       3 GLC5        0.0000 
     45 CA         44.5750   42.2670   19.7540 C.3       9 GLL5        0.0000 
     46 CA         39.6925   45.5110   17.2545 C.3       3 GLC5        0.0000 
     47 CA         41.8550   46.0270   16.8360 C.3       9 GLL5        0.0000 
     48 CA         38.1050   44.5420   17.4430 C.3       6 GLP5        0.0000 
@<TRIPOS>BOND
@<TRIPOS>SUBSTRUCTURE
     1 ALC1        4 GROUP        1 X    ALC  0     ROOT ALC X 1
     2 SEC2        1 GROUP        1 X    SEC  0     **** SEC X 2
     3 GLC5       10 GROUP        1 X    GLC  0     **** GLC X 6
     4 ALP1        6 GROUP        1 Y    ALP  0     ROOT ALP Y 8
     5 SEP2        3 GROUP        1 Y    SEP  0     **** SEP Y 9
     6 GLP5       12 GROUP        1 Y    GLP  0     **** GLP Y 13
     7 ALL1        5 GROUP        1 Z    ALL  0     ROOT ALL Z 15
     8 SEL2        2 GROUP        1 Z    SEL  0     **** SEL Z 16
     9 GLL5       11 GROUP        1 Z    GLL  0     **** GLL Z 20
@<TRIPOS>SET

