#    Name: 2nr4_FMN_1_ligand
#    Modification time : Tue Mar 25 21:31:16 2014

@<TRIPOS>MOLECULE
2nr4_FMN_1_ligand
   50    52     1     0     0
SMALL
NO_CHARGES


@<TRIPOS>ATOM
      1 N1         42.4330   45.7550   22.3030 N.2       1 FMN401      0.0000 
      2 C2         41.8020   46.1800   23.4530 C.2       1 FMN401      0.0000 
      3 O2         41.4240   47.3470   23.5170 O.2       1 FMN401      0.0000 
      4 N3         41.6330   45.3200   24.5170 N.am      1 FMN401      0.0000 
      5 C4         42.0760   44.0090   24.4310 C.2       1 FMN401      0.0000 
      6 O4         41.7460   43.1790   25.2690 O.2       1 FMN401      0.0000 
      7 C4A        42.7040   43.5700   23.2680 C.2       1 FMN401      0.0000 
      8 N5         43.1640   42.2670   23.1610 N.2       1 FMN401      0.0000 
      9 C5A        43.7730   41.8220   21.9960 C.ar      1 FMN401      0.0000 
     10 C6         44.2150   40.4960   21.9000 C.ar      1 FMN401      0.0000 
     11 C7         44.8230   40.0400   20.7390 C.ar      1 FMN401      0.0000 
     12 C7M        45.3450   38.6310   20.7050 C.3       1 FMN401      0.0000 
     13 C8         45.0080   40.9370   19.6650 C.ar      1 FMN401      0.0000 
     14 C8M        45.5020   40.4720   18.3470 C.3       1 FMN401      0.0000 
     15 C9         44.5750   42.2670   19.7540 C.ar      1 FMN401      0.0000 
     16 C9A        43.9400   42.7070   20.9300 C.ar      1 FMN401      0.0000 
     17 N10        43.4920   44.0240   21.0460 N.pl3     1 FMN401      0.0000 
     18 C10        42.8810   44.4550   22.2050 C.2       1 FMN401      0.0000 
     19 C1'        43.8090   45.0240   19.9750 C.3       1 FMN401      0.0000 
     20 C2'        42.5860   45.1720   19.0780 C.3       1 FMN401      0.0000 
     21 O2'        42.1630   43.9060   18.6470 O.3       1 FMN401      0.0000 
     22 C3'        42.9890   45.9650   17.8570 C.3       1 FMN401      0.0000 
     23 O3'        43.3990   47.2550   18.2770 O.3       1 FMN401      0.0000 
     24 C4'        41.8550   46.0270   16.8360 C.3       1 FMN401      0.0000 
     25 O4'        42.4420   46.5300   15.6620 O.3       1 FMN401      0.0000 
     26 C5'        40.7050   46.9330   17.2960 C.3       1 FMN401      0.0000 
     27 O5'        39.8610   47.2490   16.2080 O.3       1 FMN401      0.0000 
     28 P          38.4670   48.0740   16.3190 P.3       1 FMN401      0.0000 
     29 O1P        38.8470   49.5430   16.0660 O.co2     1 FMN401      0.0000 
     30 O2P        37.9260   47.9480   17.7620 O.co2     1 FMN401      0.0000 
     31 O3P        37.5510   47.5750   15.1990 O.co2     1 FMN401      0.0000 
     32 H          41.1757   45.6496   25.3818 H         1 FMN401      0.0000 
     33 H          44.0851   39.8600   22.6998 H         1 FMN401      0.0000 
     34 H          44.7173   42.9102   18.9770 H         1 FMN401      0.0000 
     35 H          44.6454   44.6803   19.3804 H         1 FMN401      0.0000 
     36 H          44.0418   45.9834   20.4184 H         1 FMN401      0.0000 
     37 H          41.8340   45.7050   19.6034 H         1 FMN401      0.0000 
     38 H          43.8273   45.4343   17.3891 H         1 FMN401      0.0000 
     39 H          41.4829   45.0302   16.6923 H         1 FMN401      0.0000 
     40 H          41.1558   47.8302   17.7460 H         1 FMN401      0.0000 
     41 H          40.1693   46.4003   18.0960 H         1 FMN401      0.0000 
     42 H          45.7643   38.4115   19.8241 H         1 FMN401      0.0000 
     43 H          46.0397   38.4753   21.4073 H         1 FMN401      0.0000 
     44 H          44.6179   37.9618   20.8584 H         1 FMN401      0.0000 
     45 H          46.4066   40.0514   18.4167 H         1 FMN401      0.0000 
     46 H          44.8926   39.7909   17.9412 H         1 FMN401      0.0000 
     47 H          45.5782   41.2242   17.6925 H         1 FMN401      0.0000 
     48 H          41.2718   43.7698   19.0798 H         1 FMN401      0.0000 
     49 H          42.5872   47.6604   18.6972 H         1 FMN401      0.0000 
     50 H          42.4116   45.7708   15.0118 H         1 FMN401      0.0000 
@<TRIPOS>BOND
     1    2    1 1    
     2   18    1 2    
     3    3    2 2    
     4    4    2 am   
     5    5    4 am   
     6   32    4 1    
     7    6    5 2    
     8    7    5 1    
     9    8    7 2    
    10   18    7 1    
    11    9    8 1    
    12   10    9 ar   
    13   16    9 ar   
    14   11   10 ar   
    15   33   10 1    
    16   12   11 1    
    17   13   11 ar   
    18   42   12 1    
    19   43   12 1    
    20   44   12 1    
    21   14   13 1    
    22   15   13 ar   
    23   45   14 1    
    24   46   14 1    
    25   47   14 1    
    26   16   15 ar   
    27   34   15 1    
    28   17   16 1    
    29   18   17 1    
    30   19   17 1    
    31   20   19 1    
    32   35   19 1    
    33   36   19 1    
    34   21   20 1    
    35   22   20 1    
    36   37   20 1    
    37   48   21 1    
    38   23   22 1    
    39   24   22 1    
    40   38   22 1    
    41   49   23 1    
    42   25   24 1    
    43   26   24 1    
    44   39   24 1    
    45   50   25 1    
    46   27   26 1    
    47   40   26 1    
    48   41   26 1    
    49   28   27 1    
    50   29   28 ar   
    51   30   28 ar   
    52   31   28 ar   
@<TRIPOS>SUBSTRUCTURE
     1 FMN401      1 GROUP   
@<TRIPOS>SET

