#    Name: 1B0P_1_CAVITY_N1_6.mol2
#    Modification time : Mon Mar 10 14:04:01 2014

@<TRIPOS>MOLECULE
1B0P_1_CAVITY_N1_6.mol2
   61     0     7     0     0
SMALL
NO_CHARGES


@<TRIPOS>ATOM
      1 CA        -26.0950  -73.9252   20.3064 C.3       6 GLY6        0.0000 
      2 O         -25.7664  -72.1032   21.3421 O.2       2 ALA2        0.0000 
      3 O         -27.2331  -72.0092   21.6421 O.2       2 ALA2        0.0000 
      4 CA        -24.6138  -72.5690   19.6232 C.3       6 GLY6        0.0000 
      5 O         -26.0805  -72.4750   19.9232 O.2       2 ALA2        0.0000 
      6 CA        -27.5472  -72.3810   20.2232 C.3       6 GLY6        0.0000 
      7 CZ        -27.7885  -65.5021   16.8882 C.ar      5 PHE5        0.0000 
      8 CZ        -26.6359  -65.9679   15.1694 C.ar      5 PHE5        0.0000 
      9 CZ        -28.1026  -65.8739   15.4694 C.ar      5 PHE5        0.0000 
     10 CA        -24.0166  -66.5276   13.1505 C.3       6 GLY6        0.0000 
     11 CZ        -25.4832  -66.4337   13.4505 C.ar      5 PHE5        0.0000 
     12 CA        -26.9499  -66.3397   13.7505 C.3       6 GLY6        0.0000 
     13 CZ        -27.4890  -66.5804   18.6903 C.ar      5 PHE5        0.0000 
     14 N         -28.9557  -66.4865   18.9903 N.2       2 ALA2        0.0000 
     15 CZ        -26.3364  -67.0462   16.9715 C.ar      5 PHE5        0.0000 
     16 CZ        -27.8031  -66.9523   17.2715 C.ar      5 PHE5        0.0000 
     17 OG        -29.2698  -66.8583   17.5715 O.2       1 SER1        0.0000 
     18 CA        -26.0514  -69.5747   19.1568 C.3       6 GLY6        0.0000 
     19 CA        -27.5181  -69.4807   19.4568 C.3       6 GLY6        0.0000 
     20 CA        -25.0948  -67.0091   23.0301 C.3       6 GLY6        0.0000 
     21 CA        -25.4088  -67.3810   21.6112 C.3       6 GLY6        0.0000 
     22 CA        -26.8755  -67.2870   21.9112 C.3       6 GLY6        0.0000 
     23 CZ        -26.8610  -65.8368   21.5280 C.ar      5 PHE5        0.0000 
     24 CZ        -27.1750  -66.2086   20.1092 C.ar      5 PHE5        0.0000 
     25 O         -25.4687  -64.9835   13.0673 O.2       2 ALA2        0.0000 
     26 CA        -25.7519  -70.6531   20.9588 C.3       6 GLY6        0.0000 
     27 O         -27.2186  -70.5591   21.2588 O.2       2 ALA2        0.0000 
     28 O         -28.6853  -70.4651   21.5588 O.2       2 ALA2        0.0000 
     29 NZ        -24.6592  -68.7214   10.6961 N.2       4 LYS4        0.0000 
     30 OD1       -26.1258  -68.6274   10.9961 O.3       3 ASP3        0.0000 
     31 CA        -24.3306  -66.8995   11.7317 C.3       6 GLY6        0.0000 
     32 OD1       -25.7973  -66.8055   12.0317 O.3       3 ASP3        0.0000 
     33 CA        -27.2640  -66.7115   12.3317 C.3       6 GLY6        0.0000 
     34 CA        -24.6446  -67.2713   10.3128 C.3       6 GLY6        0.0000 
     35 O         -25.8263  -69.7058   12.7981 O.2       2 ALA2        0.0000 
     36 CA        -26.0659  -71.0249   19.5400 C.3       6 GLY6        0.0000 
     37 CA        -27.5326  -70.9309   19.8400 C.3       6 GLY6        0.0000 
     38 CZ        -25.7228  -67.7528   20.1924 C.ar      5 PHE5        0.0000 
     39 CZ        -27.1895  -67.6588   20.4924 C.ar      5 PHE5        0.0000 
     40 N         -28.6562  -67.5648   20.7924 N.2       2 ALA2        0.0000 
     41 CA        -24.5702  -68.2185   18.4735 C.3       6 GLY6        0.0000 
     42 CZ        -26.0369  -68.1246   18.7735 C.ar      5 PHE5        0.0000 
     43 CA        -27.5036  -68.0306   19.0735 C.3       6 GLY6        0.0000 
     44 CA        -28.9703  -67.9366   19.3735 C.3       6 GLY6        0.0000 
     45 N         -24.8842  -68.5904   17.0547 N.2       2 ALA2        0.0000 
     46 N         -26.3509  -68.4964   17.3547 N.2       2 ALA2        0.0000 
     47 CA        -27.8176  -68.4024   17.6547 C.3       6 GLY6        0.0000 
     48 DU        -25.4233  -68.8311   21.9945 H         7 CUB7        0.0000 
     49 CA        -26.8900  -68.7371   22.2945 C.3       6 GLY6        0.0000 
     50 CA        -25.7374  -69.2029   20.5756 C.3       6 GLY6        0.0000 
     51 CA        -27.2041  -69.1089   20.8756 C.3       6 GLY6        0.0000 
     52 CA        -28.6707  -69.0150   21.1756 C.3       6 GLY6        0.0000 
     53 N         -25.1837  -67.5120   15.2526 N.2       2 ALA2        0.0000 
     54 N         -26.6504  -67.4180   15.5526 N.2       2 ALA2        0.0000 
     55 CA        -24.0311  -67.9778   13.5338 C.3       6 GLY6        0.0000 
     56 CA        -25.4978  -67.8838   13.8338 C.3       6 GLY6        0.0000 
     57 N         -26.9645  -67.7898   14.1338 N.2       2 ALA2        0.0000 
     58 O         -22.8784  -68.4436   11.8149 O.2       2 ALA2        0.0000 
     59 O         -24.3451  -68.3496   12.1149 O.2       2 ALA2        0.0000 
     60 O         -25.8118  -68.2556   12.4149 O.2       2 ALA2        0.0000 
     61 O         -27.2785  -68.1617   12.7149 O.2       2 ALA2        0.0000 
@<TRIPOS>BOND
@<TRIPOS>SUBSTRUCTURE
     1 SER1       17 GROUP   
     2 ALA2        2 GROUP   
     3 ASP3       30 GROUP   
     4 LYS4       29 GROUP   
     5 PHE5        7 GROUP   
     6 GLY6        1 GROUP   
     7 CUB7       48 GROUP   
@<TRIPOS>SET

