#    Name: 1b0p_TPP_1_INTS_M
#    Modification time : Mon Mar 24 19:11:59 2014

@<TRIPOS>MOLECULE
1b0p_TPP_1_INTS_M
   81     0     9     0     0
SMALL
NO_CHARGES


@<TRIPOS>ATOM
      1 CA        -27.0700  -66.4985   24.0300 C.3       3 GLC5        0.0000 
      2 CA        -25.7990  -65.0760   23.0510 C.3       9 GLL5        0.0000 
      3 CA        -28.3410  -67.9210   25.0090 C.3       6 GLP5        0.0000 
      4 CA        -24.2705  -65.3810   21.6030 C.3       3 GLC5        0.0000 
      5 CA        -22.7420  -65.6860   20.1550 C.3       6 GLP5        0.0000 
      6 CA        -26.7910  -62.9575   24.6160 C.3       3 GLC5        0.0000 
      7 CA        -25.0830  -63.9770   23.7940 C.3       9 GLL5        0.0000 
      8 CA        -28.4990  -61.9380   25.4380 C.3       6 GLP5        0.0000 
      9 CA        -26.5430  -64.1985   25.4185 C.3       3 GLC5        0.0000 
     10 CA        -28.0030  -64.4200   27.0430 C.3       6 GLP5        0.0000 
     11 CA        -24.8190  -62.1770   24.5010 C.3       3 GLC5        0.0000 
     12 CA        -24.5550  -60.3770   25.2080 C.3       6 GLP5        0.0000 
     13 CA        -25.0620  -67.1140   24.0780 C.3       3 GLC5        0.0000 
     14 CA        -25.7060  -67.1460   21.9680 C.3       9 GLL5        0.0000 
     15 CA        -24.4180  -67.0820   26.1880 C.3       6 GLP5        0.0000 
     16 CA        -24.2240  -66.4160   21.0615 C.3       3 GLC5        0.0000 
     17 CA        -28.4025  -68.1330   22.1825 C.3       3 GLC5        0.0000 
     18 CA        -27.6940  -67.9000   20.5380 C.3       9 GLL5        0.0000 
     19 CA        -29.1110  -68.3660   23.8270 C.3       6 GLP5        0.0000 
     20 CA        -26.2940  -66.3915   19.8655 C.3       3 GLC5        0.0000 
     21 CA        -24.8940  -64.8830   19.1930 C.3       6 GLP5        0.0000 
     22 CA        -28.7925  -68.9250   19.2100 C.3       3 GLC5        0.0000 
     23 CA        -29.8910  -69.9500   17.8820 C.3       6 GLP5        0.0000 
     24 CA        -24.3665  -66.8795   19.4625 C.3       3 GLC5        0.0000 
     25 CA        -25.9910  -68.0730   18.7700 C.3       9 GLL5        0.0000 
     26 CA        -24.7355  -69.3170   16.0445 C.3       3 GLC5        0.0000 
     27 CA        -25.7560  -68.3360   17.1440 C.3       9 GLL5        0.0000 
     28 CA        -23.7150  -70.2980   14.9450 C.3       6 GLP5        0.0000 
     29 CA        -28.9195  -64.4350   19.1150 C.3       3 GLC5        0.0000 
     30 CA        -29.0610  -66.2300   18.1140 C.3       9 GLL5        0.0000 
     31 CA        -28.7780  -62.6400   20.1160 C.3       6 GLP5        0.0000 
     32 CA        -30.9135  -65.5620   18.1525 C.3       3 GLC5        0.0000 
     33 CA        -32.7660  -64.8940   18.1910 C.3       6 GLP5        0.0000 
     34 CA        -27.3675  -65.3585   18.1105 C.3       3 GLC5        0.0000 
     35 CA        -25.6740  -64.4870   18.1070 C.3       6 GLP5        0.0000 
     36 CA        -29.9175  -65.3365   16.6860 C.3       3 GLC5        0.0000 
     37 CA        -30.7740  -64.4430   15.2580 C.3       6 GLP5        0.0000 
     38 CA        -29.0085  -66.5365   14.4660 C.3       3 GLC5        0.0000 
     39 CA        -27.4760  -66.9480   15.4850 C.3       9 GLL5        0.0000 
     40 CA        -30.5410  -66.1250   13.4470 C.3       6 GLP5        0.0000 
     41 CA        -25.1130  -68.8430   14.6810 C.3       3 GLC5        0.0000 
     42 CA        -26.5110  -67.3880   14.4170 C.3       9 GLL5        0.0000 
     43 CA        -28.2280  -66.9075   13.2465 C.3       3 GLC5        0.0000 
     44 CA        -29.9450  -66.4270   12.0760 C.3       6 GLP5        0.0000 
     45 N         -24.2415  -64.0725   13.0830 N.am      1 SEC2        0.0000 
     46 N         -24.5830  -65.4710   12.6710 N.am      7 SEL2        0.0000 
     47 N         -23.9000  -62.6740   13.4950 N.am      4 SEP2        0.0000 
     48 Zn        -26.6625  -66.0955   10.1010 Zn        2 ZIC7        0.0000 
     49 Zn        -26.3580  -65.8000   10.9140 Zn        8 ZIL7        0.0000 
     50 Zn        -26.9670  -66.3910    9.2880 Zn        5 ZIP7        0.0000 
     51 N         -26.0250  -64.3615   11.1875 N.am      1 SEC2        0.0000 
     52 N         -26.3580  -65.8000   10.9140 N.am      7 SEL2        0.0000 
     53 N         -25.6920  -62.9230   11.4610 N.am      4 SEP2        0.0000 
     54 N         -24.9020  -67.1950   10.1865 N.am      1 SEC2        0.0000 
     55 N         -25.1390  -67.6980   11.8100 N.am      7 SEL2        0.0000 
     56 N         -24.6650  -66.6920    8.5630 N.am      4 SEP2        0.0000 
     57 Zn        -26.9005  -67.3020    9.7220 Zn        2 ZIC7        0.0000 
     58 Zn        -26.8340  -68.2130   10.1560 Zn        8 ZIL7        0.0000 
     59 N         -28.1155  -68.4140   10.6295 N.am      1 SEC2        0.0000 
     60 N         -26.8340  -68.2130   10.1560 N.am      7 SEL2        0.0000 
     61 N         -29.3970  -68.6150   11.1030 N.am      4 SEP2        0.0000 
     62 N         -27.9465  -68.9680    9.3010 N.am      1 SEC2        0.0000 
     63 N         -29.0590  -69.7230    8.4460 N.am      4 SEP2        0.0000 
     64 N         -24.6390  -67.9465    9.2545 N.am      1 SEC2        0.0000 
     65 N         -24.6130  -69.2010    9.9460 N.am      7 SEL2        0.0000 
     66 N         -25.1945  -70.7595   12.4385 N.am      1 SEC2        0.0000 
     67 N         -26.1770  -69.9160   11.8670 N.am      7 SEL2        0.0000 
     68 N         -24.2120  -71.6030   13.0100 N.am      4 SEP2        0.0000 
     69 N         -27.4580  -70.5915   12.1985 N.am      1 SEC2        0.0000 
     70 N         -28.7390  -71.2670   12.5300 N.am      4 SEP2        0.0000 
     71 CA        -24.9295  -65.8042   24.8053 C.3       3 GLC5        0.0000 
     72 CA        -25.1740  -63.1467   22.2218 C.3       3 GLC5        0.0000 
     73 CA        -24.9070  -61.7670   21.0210 C.3       6 GLP5        0.0000 
     74 CA        -28.0285  -67.3670   22.7585 C.3       3 GLC5        0.0000 
     75 CA        -24.3577  -69.2488   18.5850 C.3       3 GLC5        0.0000 
     76 CA        -22.8420  -70.2930   19.2130 C.3       6 GLP5        0.0000 
     77 CA        -27.8822  -69.0772   17.9195 C.3       3 GLC5        0.0000 
     78 CA        -29.0875  -68.3375   17.8300 C.3       3 GLC5        0.0000 
     79 CA        -27.8460  -67.0820   18.0280 C.3       9 GLL5        0.0000 
     80 CA        -26.0677  -65.8635   15.8870 C.3       3 GLC5        0.0000 
     81 CA        -25.1420  -64.5590   16.8230 C.3       6 GLP5        0.0000 
@<TRIPOS>BOND
@<TRIPOS>SUBSTRUCTURE
     1 SEC2       45 GROUP        1 X    SEC  0     ROOT SEC X 2
     2 ZIC7       48 GROUP        1 X    ZIC  0     **** ZIC X 5
     3 GLC5        1 GROUP        1 X    GLC  0     **** GLC X 6
     4 SEP2       47 GROUP        1 Y    SEP  0     ROOT SEP Y 9
     5 ZIP7       50 GROUP        1 Y    ZIP  0     **** ZIP Y 12
     6 GLP5        3 GROUP        1 Y    GLP  0     **** GLP Y 13
     7 SEL2       46 GROUP        1 Z    SEL  0     ROOT SEL Z 16
     8 ZIL7       49 GROUP        1 Z    ZIL  0     **** ZIL Z 19
     9 GLL5        2 GROUP        1 Z    GLL  0     **** GLL Z 20
@<TRIPOS>SET

