#    Name: 1b0p_TPP_1_ligand
#    Modification time : Mon Mar 24 19:11:59 2014

@<TRIPOS>MOLECULE
1b0p_TPP_1_ligand
   42    43     1     0     0
SMALL
NO_CHARGES


@<TRIPOS>ATOM
      1 N1'       -27.0830  -64.9150   22.6690 N.ar      1 TPP1236     0.0000 
      2 C2'       -25.7990  -65.0760   23.0510 C.ar      1 TPP1236     0.0000 
      3 CM2       -25.0830  -63.9770   23.7940 C.3       1 TPP1236     0.0000 
      4 N3'       -25.1410  -66.2060   22.7880 N.ar      1 TPP1236     0.0000 
      5 C4'       -25.7060  -67.1460   21.9680 C.ar      1 TPP1236     0.0000 
      6 N4'       -24.9880  -68.2450   21.7440 N.pl3     1 TPP1236     0.0000 
      7 C5'       -26.9920  -66.9020   21.4140 C.ar      1 TPP1236     0.0000 
      8 C6'       -27.5430  -65.7120   21.6890 C.ar      1 TPP1236     0.0000 
      9 C7'       -27.6940  -67.9000   20.5380 C.3       1 TPP1236     0.0000 
     10 N3        -27.2130  -67.6700   19.1080 N.pl3     1 TPP1236     0.0000 
     11 C2        -25.9910  -68.0730   18.7700 C.2       1 TPP1236     0.0000 
     12 S1        -25.7560  -68.3360   17.1440 S.3       1 TPP1236     0.0000 
     13 C5        -27.1680  -67.3580   16.8560 C.2       1 TPP1236     0.0000 
     14 C4        -27.8460  -67.0820   18.0280 C.2       1 TPP1236     0.0000 
     15 CM4       -29.0610  -66.2300   18.1140 C.3       1 TPP1236     0.0000 
     16 C6        -27.4760  -66.9480   15.4850 C.3       1 TPP1236     0.0000 
     17 C7        -26.5110  -67.3880   14.4170 C.3       1 TPP1236     0.0000 
     18 O7        -26.6120  -66.5620   13.2950 O.3       1 TPP1236     0.0000 
     19 PA        -25.6780  -66.2770   12.0860 P.3       1 TPP1236     0.0000 
     20 O1A       -24.5830  -65.4710   12.6710 O.co2     1 TPP1236     0.0000 
     21 O2A       -26.3580  -65.8000   10.9140 O.co2     1 TPP1236     0.0000 
     22 O3A       -25.1390  -67.6980   11.8100 O.3       1 TPP1236     0.0000 
     23 PB        -25.7010  -68.9000   10.9360 P.3       1 TPP1236     0.0000 
     24 O1B       -26.8340  -68.2130   10.1560 O.co2     1 TPP1236     0.0000 
     25 O2B       -24.6130  -69.2010    9.9460 O.co2     1 TPP1236     0.0000 
     26 O3B       -26.1770  -69.9160   11.8670 O.co2     1 TPP1236     0.0000 
     27 H         -25.4004  -68.9238   21.1364 H         1 TPP1236     0.0000 
     28 H         -24.1012  -68.2925   22.2036 H         1 TPP1236     0.0000 
     29 H         -28.3720  -65.3854   21.1138 H         1 TPP1236     0.0000 
     30 H         -28.7600  -67.7484   20.5821 H         1 TPP1236     0.0000 
     31 H         -27.4407  -68.9029   20.8402 H         1 TPP1236     0.0000 
     32 H         -25.1979  -68.2457   19.2989 H         1 TPP1236     0.0000 
     33 H         -27.5631  -65.8288   15.4357 H         1 TPP1236     0.0000 
     34 H         -28.4996  -67.3148   15.2017 H         1 TPP1236     0.0000 
     35 H         -26.7338  -68.4440   14.1768 H         1 TPP1236     0.0000 
     36 H         -25.4956  -67.3725   14.8542 H         1 TPP1236     0.0000 
     37 H         -24.1421  -64.2316   24.0175 H         1 TPP1236     0.0000 
     38 H         -25.0390  -63.1339   23.2581 H         1 TPP1236     0.0000 
     39 H         -25.5386  -63.7532   24.6556 H         1 TPP1236     0.0000 
     40 H         -28.9060  -65.4178   18.6764 H         1 TPP1236     0.0000 
     41 H         -29.3554  -65.9109   17.2132 H         1 TPP1236     0.0000 
     42 H         -29.8323  -66.7227   18.5169 H         1 TPP1236     0.0000 
@<TRIPOS>BOND
     1    2    1 ar   
     2    8    1 ar   
     3    3    2 1    
     4    4    2 ar   
     5   37    3 1    
     6   38    3 1    
     7   39    3 1    
     8    5    4 ar   
     9    6    5 1    
    10    7    5 ar   
    11   27    6 1    
    12   28    6 1    
    13    8    7 ar   
    14    9    7 1    
    15   29    8 1    
    16   10    9 1    
    17   30    9 1    
    18   31    9 1    
    19   11   10 2    
    20   14   10 1    
    21   12   11 1    
    22   32   11 1    
    23   13   12 1    
    24   14   13 2    
    25   16   13 1    
    26   15   14 1    
    27   40   15 1    
    28   41   15 1    
    29   42   15 1    
    30   17   16 1    
    31   33   16 1    
    32   34   16 1    
    33   18   17 1    
    34   35   17 1    
    35   36   17 1    
    36   19   18 1    
    37   20   19 ar   
    38   21   19 ar   
    39   22   19 1    
    40   23   22 1    
    41   24   23 ar   
    42   25   23 ar   
    43   26   23 ar   
@<TRIPOS>SUBSTRUCTURE
     1 TPP1236     1 GROUP   
@<TRIPOS>SET

