#    Name: 3em0_CHD_6_INTS_M
#    Modification time : Tue Mar 25 02:08:10 2014

@<TRIPOS>MOLECULE
3em0_CHD_6_INTS_M
   58     0     6     0     0
SMALL
NO_CHARGES


@<TRIPOS>ATOM
      1 CA        -37.1010  -16.6940   -6.0865 C.3       2 GLC5        0.0000 
      2 CA        -35.6310  -16.7690   -7.5650 C.3       6 GLL5        0.0000 
      3 CA        -38.5710  -16.6190   -4.6080 C.3       4 GLP5        0.0000 
      4 N         -36.9830  -17.3280  -11.9600 N.am      1 SEC2        0.0000 
      5 N         -37.1100  -18.3620  -10.6930 N.am      5 SEL2        0.0000 
      6 N         -36.8560  -16.2940  -13.2270 N.am      3 SEP2        0.0000 
      7 CA        -32.6585  -22.2580   -6.2525 C.3       2 GLC5        0.0000 
      8 CA        -33.5480  -20.6910   -7.2450 C.3       6 GLL5        0.0000 
      9 CA        -31.7690  -23.8250   -5.2600 C.3       4 GLP5        0.0000 
     10 N         -33.3540  -20.0480   -9.8560 N.am      1 SEC2        0.0000 
     11 N         -33.4310  -20.9340   -8.6530 N.am      5 SEL2        0.0000 
     12 N         -33.2770  -19.1620  -11.0590 N.am      3 SEP2        0.0000 
     13 CA        -32.3050  -16.5390   -4.7555 C.3       2 GLC5        0.0000 
     14 CA        -32.5920  -16.8470   -6.9360 C.3       6 GLL5        0.0000 
     15 CA        -32.0180  -16.2310   -2.5750 C.3       4 GLP5        0.0000 
     16 CA        -33.1790  -15.7520   -8.8080 C.3       2 GLC5        0.0000 
     17 CA        -33.7660  -14.6570  -10.6800 C.3       4 GLP5        0.0000 
     18 CA        -31.1180  -22.2810   -6.1115 C.3       2 GLC5        0.0000 
     19 CA        -30.4670  -20.7370   -6.9630 C.3       6 GLL5        0.0000 
     20 CA        -27.7425  -21.0500   -6.0100 C.3       2 GLC5        0.0000 
     21 CA        -29.0300  -20.2710   -7.2780 C.3       6 GLL5        0.0000 
     22 CA        -26.4550  -21.8290   -4.7420 C.3       4 GLP5        0.0000 
     23 CA        -31.1805  -17.2930   -3.9065 C.3       2 GLC5        0.0000 
     24 CA        -30.3430  -18.3550   -5.2380 C.3       6 GLL5        0.0000 
     25 CA        -31.8135  -18.9845   -3.8080 C.3       2 GLC5        0.0000 
     26 CA        -33.2840  -19.6140   -2.3780 C.3       4 GLP5        0.0000 
     27 CA        -34.1610  -16.7870   -3.7425 C.3       2 GLC5        0.0000 
     28 CA        -35.0550  -17.7910   -5.3720 C.3       6 GLL5        0.0000 
     29 CA        -33.2670  -15.7830   -2.1130 C.3       4 GLP5        0.0000 
     30 CA        -34.1695  -18.7025   -3.8750 C.3       2 GLC5        0.0000 
     31 CA        -36.8130  -17.2050   -4.9900 C.3       2 GLC5        0.0000 
     32 CA        -28.0625  -14.8165   -8.1615 C.3       2 GLC5        0.0000 
     33 CA        -27.8730  -16.4940   -7.2290 C.3       6 GLL5        0.0000 
     34 CA        -28.2520  -13.1390   -9.0940 C.3       4 GLP5        0.0000 
     35 CA        -23.7160  -17.6300   -5.3530 C.3       2 GLC5        0.0000 
     36 CA        -25.3730  -18.2280   -6.5360 C.3       6 GLL5        0.0000 
     37 CA        -22.0590  -17.0320   -4.1700 C.3       4 GLP5        0.0000 
     38 CA        -26.1345  -16.9760   -5.2565 C.3       2 GLC5        0.0000 
     39 CA        -26.8960  -15.7240   -3.9770 C.3       4 GLP5        0.0000 
     40 CA        -34.7885  -15.7583   -9.4943 C.3       2 GLC5        0.0000 
     41 CA        -36.7555  -15.3992   -7.7332 C.3       2 GLC5        0.0000 
     42 CA        -35.9910  -16.9500   -9.0520 C.3       6 GLL5        0.0000 
     43 CA        -37.7000  -13.9390   -7.1580 C.3       4 GLP5        0.0000 
     44 CA        -34.9940  -22.1017   -5.9850 C.3       2 GLC5        0.0000 
     45 CA        -35.0280  -20.5880   -6.8070 C.3       6 GLL5        0.0000 
     46 CA        -35.7000  -23.5640   -4.9440 C.3       4 GLP5        0.0000 
     47 CA        -30.9656  -18.8144   -9.1856 C.3       2 GLC5        0.0000 
     48 CA        -31.2970  -19.5020   -7.3480 C.3       6 GLL5        0.0000 
     49 CA        -30.8960  -19.0490  -11.1830 C.3       4 GLP5        0.0000 
     50 CA        -29.9820  -19.2730   -9.2750 C.3       2 GLC5        0.0000 
     51 CA        -29.1060  -18.7230   -7.4560 C.3       6 GLL5        0.0000 
     52 CA        -27.3805  -16.4845   -5.5220 C.3       2 GLC5        0.0000 
     53 CA        -27.8570  -17.9960   -6.9050 C.3       6 GLL5        0.0000 
     54 CA        -26.7585  -16.6080   -8.6375 C.3       2 GLC5        0.0000 
     55 CA        -25.6520  -15.9710  -10.2080 C.3       4 GLP5        0.0000 
     56 CA        -26.2095  -20.1225   -5.8640 C.3       2 GLC5        0.0000 
     57 CA        -26.5550  -18.6040   -7.4360 C.3       6 GLL5        0.0000 
     58 CA        -25.8080  -17.1935   -8.5970 C.3       2 GLC5        0.0000 
@<TRIPOS>BOND
@<TRIPOS>SUBSTRUCTURE
     1 SEC2        4 GROUP        1 X    SEC  0     ROOT SEC X 2
     2 GLC5        1 GROUP        1 X    GLC  0     **** GLC X 6
     3 SEP2        6 GROUP        1 Y    SEP  0     ROOT SEP Y 9
     4 GLP5        3 GROUP        1 Y    GLP  0     **** GLP Y 13
     5 SEL2        5 GROUP        1 Z    SEL  0     ROOT SEL Z 16
     6 GLL5        2 GROUP        1 Z    GLL  0     **** GLL Z 20
@<TRIPOS>SET

