#    Name: 3em0_CHD_6_ligand
#    Modification time : Tue Mar 25 02:08:10 2014

@<TRIPOS>MOLECULE
3em0_CHD_6_ligand
   68    71     1     0     0
SMALL
NO_CHARGES


@<TRIPOS>ATOM
      1 C1        -35.6310  -16.7690   -7.5650 C.3       1 CHD151      0.0000 
      2 C2        -35.9910  -16.9500   -9.0520 C.3       1 CHD151      0.0000 
      3 C3        -36.8450  -18.2050   -9.2860 C.3       1 CHD151      0.0000 
      4 O3        -37.1100  -18.3620  -10.6930 O.3       1 CHD151      0.0000 
      5 C4        -36.0760  -19.4290   -8.7800 C.3       1 CHD151      0.0000 
      6 C5        -35.7310  -19.2910   -7.2760 C.3       1 CHD151      0.0000 
      7 C6        -35.0280  -20.5880   -6.8070 C.3       1 CHD151      0.0000 
      8 C7        -33.5480  -20.6910   -7.2450 C.3       1 CHD151      0.0000 
      9 O7        -33.4310  -20.9340   -8.6530 O.3       1 CHD151      0.0000 
     10 C8        -32.7530  -19.4410   -6.8440 C.3       1 CHD151      0.0000 
     11 C9        -33.4300  -18.1030   -7.3170 C.3       1 CHD151      0.0000 
     12 C10       -34.9420  -17.9840   -6.8960 C.3       1 CHD151      0.0000 
     13 C11       -32.5920  -16.8470   -6.9360 C.3       1 CHD151      0.0000 
     14 C12       -31.0840  -16.9820   -7.2710 C.3       1 CHD151      0.0000 
     15 O12       -30.8750  -16.7500   -8.6790 O.3       1 CHD151      0.0000 
     16 C13       -30.4630  -18.3330   -6.7860 C.3       1 CHD151      0.0000 
     17 C14       -31.2970  -19.5020   -7.3480 C.3       1 CHD151      0.0000 
     18 C15       -30.4670  -20.7370   -6.9630 C.3       1 CHD151      0.0000 
     19 C16       -29.0300  -20.2710   -7.2780 C.3       1 CHD151      0.0000 
     20 C17       -29.1060  -18.7230   -7.4560 C.3       1 CHD151      0.0000 
     21 C18       -30.3430  -18.3550   -5.2380 C.3       1 CHD151      0.0000 
     22 C19       -35.0550  -17.7910   -5.3720 C.3       1 CHD151      0.0000 
     23 C20       -27.8570  -17.9960   -6.9050 C.3       1 CHD151      0.0000 
     24 C21       -27.8730  -16.4940   -7.2290 C.3       1 CHD151      0.0000 
     25 C22       -26.5550  -18.6040   -7.4360 C.3       1 CHD151      0.0000 
     26 C23       -25.3730  -18.2280   -6.5360 C.3       1 CHD151      0.0000 
     27 O25       -23.6720  -19.8590   -6.5060 O.co2     1 CHD151      0.0000 
     28 C24       -24.0800  -18.8200   -7.0620 C.2       1 CHD151      0.0000 
     29 O26       -23.5180  -18.2160   -8.0030 O.co2     1 CHD151      0.0000 
     30 H         -36.5525  -16.5351   -7.0016 H         1 CHD151      0.0000 
     31 H         -34.9678  -15.8908   -7.4637 H         1 CHD151      0.0000 
     32 H         -35.0708  -17.0296   -9.6327 H         1 CHD151      0.0000 
     33 H         -36.5428  -16.0726   -9.3929 H         1 CHD151      0.0000 
     34 H         -37.7466  -18.1132   -8.7203 H         1 CHD151      0.0000 
     35 H         -35.1515  -19.5347   -9.3429 H         1 CHD151      0.0000 
     36 H         -36.6819  -20.3212   -8.9197 H         1 CHD151      0.0000 
     37 H         -36.7036  -19.2539   -6.7318 H         1 CHD151      0.0000 
     38 H         -35.5762  -21.4511   -7.2063 H         1 CHD151      0.0000 
     39 H         -35.0775  -20.6403   -5.7117 H         1 CHD151      0.0000 
     40 H         -33.1121  -21.5372   -6.6834 H         1 CHD151      0.0000 
     41 H         -32.7124  -19.3992   -5.7432 H         1 CHD151      0.0000 
     42 H         -33.4292  -18.1446   -8.4437 H         1 CHD151      0.0000 
     43 H         -32.7019  -16.6655   -5.8617 H         1 CHD151      0.0000 
     44 H         -32.9976  -15.9806   -7.4690 H         1 CHD151      0.0000 
     45 H         -30.5705  -16.1787   -6.6937 H         1 CHD151      0.0000 
     46 H         -31.2692  -19.4025   -8.4279 H         1 CHD151      0.0000 
     47 H         -30.7202  -21.5460   -7.5843 H         1 CHD151      0.0000 
     48 H         -30.5601  -20.9236   -5.9329 H         1 CHD151      0.0000 
     49 H         -28.7005  -20.7104   -8.1894 H         1 CHD151      0.0000 
     50 H         -28.3905  -20.4961   -6.4579 H         1 CHD151      0.0000 
     51 H         -29.2092  -18.5394   -8.5198 H         1 CHD151      0.0000 
     52 H         -27.8539  -18.0996   -5.8174 H         1 CHD151      0.0000 
     53 H         -26.3708  -18.2342   -8.4420 H         1 CHD151      0.0000 
     54 H         -26.6514  -19.6868   -7.4667 H         1 CHD151      0.0000 
     55 H         -25.5625  -18.6001   -5.5289 H         1 CHD151      0.0000 
     56 H         -25.2888  -17.1417   -6.4976 H         1 CHD151      0.0000 
     57 H         -29.9453  -19.2113   -4.9085 H         1 CHD151      0.0000 
     58 H         -29.7636  -17.6135   -4.8998 H         1 CHD151      0.0000 
     59 H         -31.2340  -18.2560   -4.7950 H         1 CHD151      0.0000 
     60 H         -34.6302  -18.5442   -4.8698 H         1 CHD151      0.0000 
     61 H         -34.6084  -16.9487   -5.0702 H         1 CHD151      0.0000 
     62 H         -36.0081  -17.7405   -5.0737 H         1 CHD151      0.0000 
     63 H         -27.0625  -16.0287   -6.8733 H         1 CHD151      0.0000 
     64 H         -27.8980  -16.3269   -8.2146 H         1 CHD151      0.0000 
     65 H         -28.6701  -16.0373   -6.8340 H         1 CHD151      0.0000 
     66 H         -36.2942  -18.8076  -11.0617 H         1 CHD151      0.0000 
     67 H         -34.0720  -21.6781   -8.8412 H         1 CHD151      0.0000 
     68 H         -30.2976  -16.1726   -8.1016 H         1 CHD151      0.0000 
@<TRIPOS>BOND
     1    2    1 1    
     2   12    1 1    
     3   30    1 1    
     4   31    1 1    
     5    3    2 1    
     6   32    2 1    
     7   33    2 1    
     8    4    3 1    
     9    5    3 1    
    10   34    3 1    
    11   66    4 1    
    12    6    5 1    
    13   35    5 1    
    14   36    5 1    
    15    7    6 1    
    16   12    6 1    
    17   37    6 1    
    18    8    7 1    
    19   38    7 1    
    20   39    7 1    
    21    9    8 1    
    22   10    8 1    
    23   40    8 1    
    24   67    9 1    
    25   11   10 1    
    26   17   10 1    
    27   41   10 1    
    28   12   11 1    
    29   13   11 1    
    30   42   11 1    
    31   22   12 1    
    32   14   13 1    
    33   43   13 1    
    34   44   13 1    
    35   15   14 1    
    36   16   14 1    
    37   45   14 1    
    38   68   15 1    
    39   17   16 1    
    40   20   16 1    
    41   21   16 1    
    42   18   17 1    
    43   46   17 1    
    44   19   18 1    
    45   47   18 1    
    46   48   18 1    
    47   20   19 1    
    48   49   19 1    
    49   50   19 1    
    50   23   20 1    
    51   51   20 1    
    52   57   21 1    
    53   58   21 1    
    54   59   21 1    
    55   60   22 1    
    56   61   22 1    
    57   62   22 1    
    58   24   23 1    
    59   25   23 1    
    60   52   23 1    
    61   63   24 1    
    62   64   24 1    
    63   65   24 1    
    64   26   25 1    
    65   53   25 1    
    66   54   25 1    
    67   28   26 1    
    68   55   26 1    
    69   56   26 1    
    70   28   27 ar   
    71   29   28 ar   
@<TRIPOS>SUBSTRUCTURE
     1 CHD151      1 GROUP   
@<TRIPOS>SET

