#    Name: 4jji_NAD_2_INTS_M
#    Modification time : Tue Mar 25 05:56:33 2014

@<TRIPOS>MOLECULE
4jji_NAD_2_INTS_M
   70     0    12     0     0
SMALL
NO_CHARGES


@<TRIPOS>ATOM
      1 N          27.7065    4.0285   30.8685 N.am      2 SEC2        0.0000 
      2 N          27.1370    4.6590   31.8420 N.am     10 SEL2        0.0000 
      3 N          28.2760    3.3980   29.8950 N.am      6 SEP2        0.0000 
      4 CA         27.9485    8.3600   36.3290 C.3       4 GLC5        0.0000 
      5 CA         27.1670    7.7010   34.6370 C.3      12 GLL5        0.0000 
      6 CA         28.7300    9.0190   38.0210 C.3       8 GLP5        0.0000 
      7 CA         29.2365    8.4665   35.0340 C.3       4 GLC5        0.0000 
      8 CA         31.3060    9.2320   35.4310 C.3       8 GLP5        0.0000 
      9 N          23.7330    7.2770   34.8080 N.am      2 SEC2        0.0000 
     10 N          24.8480    8.1120   34.9130 N.am     10 SEL2        0.0000 
     11 N          22.6180    6.4420   34.7030 N.am      6 SEP2        0.0000 
     12 O          24.9885    9.0425   35.9650 O.2       1 ALC1        0.0000 
     13 O          24.8480    8.1120   34.9130 O.2       9 ALL1        0.0000 
     14 O          25.1290    9.9730   37.0170 O.2       5 ALP1        0.0000 
     15 O          24.7415   10.9285   34.5845 O.2       1 ALC1        0.0000 
     16 O          24.9640   10.2740   33.4900 O.2       9 ALL1        0.0000 
     17 O          24.5190   11.5830   35.6790 O.2       5 ALP1        0.0000 
     18 CA         27.9590    9.5005   36.1370 C.3       4 GLC5        0.0000 
     19 CA         27.1880    9.9820   34.2530 C.3      12 GLL5        0.0000 
     20 CA         29.2470    9.6070   34.8420 C.3       4 GLC5        0.0000 
     21 CA         28.4830   15.0170   33.9695 C.3       4 GLC5        0.0000 
     22 CA         30.0220   13.9850   33.9940 C.3      12 GLL5        0.0000 
     23 CA         26.9440   16.0490   33.9450 C.3       8 GLP5        0.0000 
     24 CA         31.9980   14.0185   34.2505 C.3       4 GLC5        0.0000 
     25 CA         33.9740   14.0520   34.5070 C.3       8 GLP5        0.0000 
     26 CA         29.0000   14.5410   38.0920 C.3       4 GLC5        0.0000 
     27 CA         29.0590   13.6020   36.0950 C.3      12 GLL5        0.0000 
     28 CA         28.9410   15.4800   40.0890 C.3       8 GLP5        0.0000 
     29 CA         27.4040   13.4170   37.0100 C.3       4 GLC5        0.0000 
     30 CA         25.7490   13.2320   37.9250 C.3       8 GLP5        0.0000 
     31 CA         28.0015   14.8255   35.0200 C.3       4 GLC5        0.0000 
     32 CA         30.2280   12.1480   35.9355 C.3       4 GLC5        0.0000 
     33 CA         31.3970   10.6940   35.7760 C.3       8 GLP5        0.0000 
     34 N          26.8960   13.4335   35.7385 N.am      2 SEC2        0.0000 
     35 N          28.3750   12.5180   35.6650 N.am     10 SEL2        0.0000 
     36 N          25.4170   14.3490   35.8120 N.am      6 SEP2        0.0000 
     37 NZ         27.3050   -0.4805   33.9495 N.4       3 LYC4        0.0000 
     38 NZ         27.9870    0.7980   33.8410 N.4      11 LYL4        0.0000 
     39 NZ         27.0990   -3.0130   34.1670 N.4       7 LYP4        0.0000 
     40 N          27.3050   -0.4805   33.9495 N.am      2 SEC2        0.0000 
     41 N          27.9870    0.7980   33.8410 N.am     10 SEL2        0.0000 
     42 N          26.6230   -1.7590   34.0580 N.am      6 SEP2        0.0000 
     43 N          28.3290    1.8770   37.1265 N.am      2 SEC2        0.0000 
     44 N          28.4100    2.5370   35.7820 N.am     10 SEL2        0.0000 
     45 N          28.2480    1.2170   38.4710 N.am      6 SEP2        0.0000 
     46 CA         32.9675    5.1080   34.5490 C.3       4 GLC5        0.0000 
     47 CA         33.4280    2.9700   34.6710 C.3      12 GLL5        0.0000 
     48 CA         32.5070    7.2460   34.4270 C.3       8 GLP5        0.0000 
     49 O          34.9260    2.4685   36.5150 O.2       1 ALC1        0.0000 
     50 O          33.8290    2.0940   35.7110 O.2       9 ALL1        0.0000 
     51 O          36.0230    2.8430   37.3190 O.2       5 ALP1        0.0000 
     52 CA         35.0940    4.8920   33.0425 C.3       4 GLC5        0.0000 
     53 CA         34.3540    2.8680   33.4750 C.3      12 GLL5        0.0000 
     54 CA         35.8340    6.9160   32.6100 C.3       8 GLP5        0.0000 
     55 O          37.4095    0.2135   30.7880 O.2       1 ALC1        0.0000 
     56 O          37.0610   -0.4970   29.5790 O.2       9 ALL1        0.0000 
     57 O          37.7580    0.9240   31.9970 O.2       5 ALP1        0.0000 
     58 CA         27.3235   13.2858   33.3590 C.3       4 GLC5        0.0000 
     59 CA         28.5180   12.0400   34.3930 C.3      12 GLL5        0.0000 
     60 CA         25.7020   14.1570   32.7990 C.3       8 GLP5        0.0000 
     61 CA         30.2522   11.7038   34.9161 C.3       4 GLC5        0.0000 
     62 CA         29.3720   12.7890   33.4450 C.3      12 GLL5        0.0000 
     63 CA         31.2407    1.4572   35.8590 C.3       4 GLC5        0.0000 
     64 CA         30.9440    2.9030   34.5250 C.3      12 GLL5        0.0000 
     65 CA         30.8910    0.3320   37.3650 C.3       8 GLP5        0.0000 
     66 CA         32.9240    0.9587   29.4960 C.3       4 GLC5        0.0000 
     67 CA         34.8750    0.9900   30.6880 C.3      12 GLL5        0.0000 
     68 CA         30.7840    0.8610   28.9820 C.3       8 GLP5        0.0000 
     69 CA         32.4095    1.8694   29.3680 C.3       4 GLC5        0.0000 
     70 CA         34.8110    2.2500   28.6030 C.3      12 GLL5        0.0000 
@<TRIPOS>BOND
@<TRIPOS>SUBSTRUCTURE
     1 ALC1       12 GROUP        1 X    ALC  0     ROOT ALC X 1
     2 SEC2        1 GROUP        1 X    SEC  0     **** SEC X 2
     3 LYC4       37 GROUP        1 X    LYC  0     **** LYC X 4
     4 GLC5        4 GROUP        1 X    GLC  0     **** GLC X 6
     5 ALP1       14 GROUP        1 Y    ALP  0     ROOT ALP Y 8
     6 SEP2        3 GROUP        1 Y    SEP  0     **** SEP Y 9
     7 LYP4       39 GROUP        1 Y    LYP  0     **** LYP Y 11
     8 GLP5        6 GROUP        1 Y    GLP  0     **** GLP Y 13
     9 ALL1       13 GROUP        1 Z    ALL  0     ROOT ALL Z 15
    10 SEL2        2 GROUP        1 Z    SEL  0     **** SEL Z 16
    11 LYL4       38 GROUP        1 Z    LYL  0     **** LYL Z 18
    12 GLL5        5 GROUP        1 Z    GLL  0     **** GLL Z 20
@<TRIPOS>SET

