#    Name: 4jji_NAD_2_ligand
#    Modification time : Tue Mar 25 05:56:33 2014

@<TRIPOS>MOLECULE
4jji_NAD_2_ligand
   70    74     1     0     0
SMALL
NO_CHARGES


@<TRIPOS>ATOM
      1 PA         26.8940    4.1580   33.1800 P.3       1 NAD403      0.0000 
      2 O1A        27.1370    4.6590   31.8420 O.co2     1 NAD403      0.0000 
      3 O2A        25.6120    3.4520   33.6070 O.co2     1 NAD403      0.0000 
      4 O5B        27.0650    5.3690   34.2090 O.3       1 NAD403      0.0000 
      5 C5B        27.8520    6.5470   33.9490 C.3       1 NAD403      0.0000 
      6 C4B        27.1670    7.7010   34.6370 C.3       1 NAD403      0.0000 
      7 O4B        28.0130    8.8730   34.5940 O.3       1 NAD403      0.0000 
      8 C3B        25.8790    8.0710   33.9430 C.3       1 NAD403      0.0000 
      9 O3B        24.8480    8.1120   34.9130 O.3       1 NAD403      0.0000 
     10 C2B        26.0910    9.4730   33.3390 C.3       1 NAD403      0.0000 
     11 O2B        24.9640   10.2740   33.4900 O.3       1 NAD403      0.0000 
     12 C1B        27.1880    9.9820   34.2530 C.3       1 NAD403      0.0000 
     13 N9A        28.0640   11.0250   33.6890 N.pl3     1 NAD403      0.0000 
     14 C8A        28.5440   11.0420   32.4390 C.2       1 NAD403      0.0000 
     15 N7A        29.3360   12.1080   32.2920 N.2       1 NAD403      0.0000 
     16 C5A        29.3720   12.7890   33.4450 C.ar      1 NAD403      0.0000 
     17 C6A        30.0220   13.9850   33.9940 C.ar      1 NAD403      0.0000 
     18 N6A        30.8190   14.7220   33.1880 N.pl3     1 NAD403      0.0000 
     19 N1A        29.8260   14.3360   35.2760 N.ar      1 NAD403      0.0000 
     20 C2A        29.0590   13.6020   36.0950 C.ar      1 NAD403      0.0000 
     21 N3A        28.3750   12.5180   35.6650 N.ar      1 NAD403      0.0000 
     22 C4A        28.5180   12.0400   34.3930 C.ar      1 NAD403      0.0000 
     23 O3         28.2400    3.2820   33.4290 O.3       1 NAD403      0.0000 
     24 PN         28.5550    2.0610   34.4020 P.3       1 NAD403      0.0000 
     25 O1N        27.9870    0.7980   33.8410 O.co2     1 NAD403      0.0000 
     26 O2N        28.4100    2.5370   35.7820 O.co2     1 NAD403      0.0000 
     27 O5D        30.0340    1.9220   34.0450 O.3       1 NAD403      0.0000 
     28 C5D        30.9440    2.9030   34.5250 C.3       1 NAD403      0.0000 
     29 C4D        32.2370    2.2620   34.1810 C.3       1 NAD403      0.0000 
     30 O4D        32.4410    2.0380   32.7770 O.3       1 NAD403      0.0000 
     31 C3D        33.4280    2.9700   34.6710 C.3       1 NAD403      0.0000 
     32 O3D        33.8290    2.0940   35.7110 O.3       1 NAD403      0.0000 
     33 C2D        34.3540    2.8680   33.4750 C.3       1 NAD403      0.0000 
     34 O2D        35.6210    2.5070   33.9970 O.3       1 NAD403      0.0000 
     35 C1D        33.7710    1.7480   32.6220 C.3       1 NAD403      0.0000 
     36 N1N        34.0850    1.9130   31.2480 N.pl3     1 NAD403      0.0000 
     37 C2N        34.8750    0.9900   30.6880 C.ar      1 NAD403      0.0000 
     38 C3N        35.2530    1.1230   29.3320 C.ar      1 NAD403      0.0000 
     39 C7N        36.1700    0.0850   28.7490 C.2       1 NAD403      0.0000 
     40 O7N        36.1040   -0.2190   27.5800 O.2       1 NAD403      0.0000 
     41 N7N        37.0610   -0.4970   29.5790 N.am      1 NAD403      0.0000 
     42 C4N        34.8110    2.2500   28.6030 C.ar      1 NAD403      0.0000 
     43 C5N        34.0070    3.2150   29.2430 C.ar      1 NAD403      0.0000 
     44 C6N        33.6610    3.0230   30.5850 C.ar      1 NAD403      0.0000 
     45 H          27.9085    6.7600   32.8855 H         1 NAD403      0.0000 
     46 H          28.8567    6.4497   34.3499 H         1 NAD403      0.0000 
     47 H          26.9474    7.4365   35.6529 H         1 NAD403      0.0000 
     48 H          25.6950    7.3885   33.1604 H         1 NAD403      0.0000 
     49 H          26.4736    9.3684   32.3818 H         1 NAD403      0.0000 
     50 H          26.7180   10.3609   35.1660 H         1 NAD403      0.0000 
     51 H          28.3467   10.3830   31.7497 H         1 NAD403      0.0000 
     52 H          31.2578   15.5156   33.6095 H         1 NAD403      0.0000 
     53 H          30.8989   14.4081   32.2419 H         1 NAD403      0.0000 
     54 H          28.9833   13.8769   37.1145 H         1 NAD403      0.0000 
     55 H          30.8786    3.0277   35.5813 H         1 NAD403      0.0000 
     56 H          30.8531    3.8254   33.9992 H         1 NAD403      0.0000 
     57 H          32.2549    1.2463   34.6788 H         1 NAD403      0.0000 
     58 H          33.2194    3.9112   34.9293 H         1 NAD403      0.0000 
     59 H          34.3406    3.7663   32.9533 H         1 NAD403      0.0000 
     60 H          34.0399    0.8381   33.0309 H         1 NAD403      0.0000 
     61 H          35.2243    0.1739   31.2128 H         1 NAD403      0.0000 
     62 H          37.6749   -1.1688   29.1644 H         1 NAD403      0.0000 
     63 H          37.0281   -0.2047   30.5348 H         1 NAD403      0.0000 
     64 H          35.0711    2.3624   27.6266 H         1 NAD403      0.0000 
     65 H          33.6869    4.0338   28.7346 H         1 NAD403      0.0000 
     66 H          33.0817    3.7355   31.0583 H         1 NAD403      0.0000 
     67 H          25.1070    8.8512   35.5347 H         1 NAD403      0.0000 
     68 H          25.0258   10.6347   34.4206 H         1 NAD403      0.0000 
     69 H          34.5931    2.5577   36.1596 H         1 NAD403      0.0000 
     70 H          35.4397    1.7336   34.6044 H         1 NAD403      0.0000 
@<TRIPOS>BOND
     1    2    1 ar   
     2    3    1 ar   
     3    4    1 1    
     4   23    1 1    
     5    5    4 1    
     6    6    5 1    
     7   45    5 1    
     8   46    5 1    
     9    7    6 1    
    10    8    6 1    
    11   47    6 1    
    12   12    7 1    
    13    9    8 1    
    14   10    8 1    
    15   48    8 1    
    16   67    9 1    
    17   11   10 1    
    18   12   10 1    
    19   49   10 1    
    20   68   11 1    
    21   13   12 1    
    22   50   12 1    
    23   14   13 1    
    24   22   13 1    
    25   15   14 2    
    26   51   14 1    
    27   16   15 1    
    28   17   16 ar   
    29   22   16 ar   
    30   18   17 1    
    31   19   17 ar   
    32   52   18 1    
    33   53   18 1    
    34   20   19 ar   
    35   21   20 ar   
    36   54   20 1    
    37   22   21 ar   
    38   24   23 1    
    39   25   24 ar   
    40   26   24 ar   
    41   27   24 1    
    42   28   27 1    
    43   29   28 1    
    44   55   28 1    
    45   56   28 1    
    46   30   29 1    
    47   31   29 1    
    48   57   29 1    
    49   35   30 1    
    50   32   31 1    
    51   33   31 1    
    52   58   31 1    
    53   69   32 1    
    54   34   33 1    
    55   35   33 1    
    56   59   33 1    
    57   70   34 1    
    58   36   35 1    
    59   60   35 1    
    60   37   36 ar   
    61   44   36 ar   
    62   38   37 ar   
    63   61   37 1    
    64   39   38 1    
    65   42   38 ar   
    66   40   39 2    
    67   41   39 am   
    68   62   41 1    
    69   63   41 1    
    70   43   42 ar   
    71   64   42 1    
    72   44   43 ar   
    73   65   43 1    
    74   66   44 1    
@<TRIPOS>SUBSTRUCTURE
     1 NAD403      1 GROUP   
@<TRIPOS>SET

