#    Name: 2ej2_PPE_1_INTS_M
#    Modification time : Tue Mar 25 11:08:37 2014

@<TRIPOS>MOLECULE
2ej2_PPE_1_INTS_M
   63     0    12     0     0
SMALL
NO_CHARGES


@<TRIPOS>ATOM
      1 CA         -0.3250   21.0930   34.1150 C.3       4 GLC5        0.0000 
      2 CA          1.5200   22.0800   34.5420 C.3      12 GLL5        0.0000 
      3 CA         -2.1700   20.1060   33.6880 C.3       8 GLP5        0.0000 
      4 O          -0.5100   21.2565   32.1630 O.2       1 ALC1        0.0000 
      5 O          -0.5470   22.5070   32.3300 O.2       9 ALL1        0.0000 
      6 O          -0.4730   20.0060   31.9960 O.2       5 ALP1        0.0000 
      7 CA         -0.7430   22.6470   29.4545 C.3       4 GLC5        0.0000 
      8 CA         -0.3910   24.5420   30.2710 C.3      12 GLL5        0.0000 
      9 CA         -1.0950   20.7520   28.6380 C.3       8 GLP5        0.0000 
     10 CA          3.8550   23.3850   31.9815 C.3       4 GLC5        0.0000 
     11 CA          2.8590   24.9800   32.5520 C.3      12 GLL5        0.0000 
     12 CA          4.8510   21.7900   31.4110 C.3       8 GLP5        0.0000 
     13 CA          4.0865   26.1970   29.5705 C.3       4 GLC5        0.0000 
     14 CA          2.2470   26.3070   30.5900 C.3      12 GLL5        0.0000 
     15 CA          5.9260   26.0870   28.5510 C.3       8 GLP5        0.0000 
     16 CA          1.4420   28.1360   30.3590 C.3       4 GLC5        0.0000 
     17 CA          0.6370   29.9650   30.1280 C.3       8 GLP5        0.0000 
     18 N           3.7085   28.6280   27.0795 N.am      2 SEC2        0.0000 
     19 N           2.8630   27.9080   27.8900 N.am     10 SEL2        0.0000 
     20 N           4.5540   29.3480   26.2690 N.am      6 SEP2        0.0000 
     21 N           2.4400   29.0880   27.4580 N.am      2 SEC2        0.0000 
     22 N           2.0170   30.2680   27.0260 N.am      6 SEP2        0.0000 
     23 N           3.7445   28.3525   28.9410 N.am      2 SEC2        0.0000 
     24 N           4.6260   28.7970   29.9920 N.am      6 SEP2        0.0000 
     25 N           0.0275   27.8980   28.0640 N.am      2 SEC2        0.0000 
     26 N           0.7070   26.5630   27.9250 N.am     10 SEL2        0.0000 
     27 N          -0.6520   29.2330   28.2030 N.am      6 SEP2        0.0000 
     28 N           0.0180   27.0630   26.8655 N.am      2 SEC2        0.0000 
     29 N          -0.6710   27.5630   25.8060 N.am      6 SEP2        0.0000 
     30 NZ          3.4570   24.4490   26.7160 N.4       3 LYC4        0.0000 
     31 NZ          2.8520   25.7210   26.9230 N.4      11 LYL4        0.0000 
     32 NZ          3.0220   22.5280   25.9970 N.4       7 LYP4        0.0000 
     33 N           3.4570   24.4490   26.7160 N.am      2 SEC2        0.0000 
     34 N           2.8520   25.7210   26.9230 N.am     10 SEL2        0.0000 
     35 N           4.0620   23.1770   26.5090 N.am      6 SEP2        0.0000 
     36 N           2.3350   24.4060   26.4640 N.am      2 SEC2        0.0000 
     37 N           1.8180   23.0910   26.0050 N.am      6 SEP2        0.0000 
     38 N           4.0980   26.2590   26.6275 N.am      2 SEC2        0.0000 
     39 N           5.3440   26.7970   26.3320 N.am      6 SEP2        0.0000 
     40 CA         -1.9775   22.5880   29.3945 C.3       4 GLC5        0.0000 
     41 CA         -2.8600   24.4240   30.1510 C.3      12 GLL5        0.0000 
     42 NZ         -2.7640   23.4765   27.9805 N.4       3 LYC4        0.0000 
     43 NZ         -3.7080   25.1190   28.0420 N.4      11 LYL4        0.0000 
     44 NZ         -1.8200   21.8340   27.9190 N.4       7 LYP4        0.0000 
     45 N          -4.8715   24.6110   27.8175 N.am      2 SEC2        0.0000 
     46 N          -3.7080   25.1190   28.0420 N.am     10 SEL2        0.0000 
     47 N          -6.0350   24.1030   27.5930 N.am      6 SEP2        0.0000 
     48 N          -3.1445   28.2835   29.0440 N.am      2 SEC2        0.0000 
     49 N          -2.9070   26.8710   29.4780 N.am     10 SEL2        0.0000 
     50 N          -3.3820   29.6960   28.6100 N.am      6 SEP2        0.0000 
     51 CA          0.2338   23.9117   34.5208 C.3       4 GLC5        0.0000 
     52 CA          1.4770   23.1050   33.4030 C.3      12 GLL5        0.0000 
     53 CA         -1.0310   25.2310   35.0690 C.3       8 GLP5        0.0000 
     54 CA          1.9835   22.6587   31.3095 C.3       4 GLC5        0.0000 
     55 CA          2.9760   22.0870   29.7630 C.3       8 GLP5        0.0000 
     56 CA         -0.2230   24.5478   33.4495 C.3       4 GLC5        0.0000 
     57 CA          0.5050   23.3560   32.3090 C.3      12 GLL5        0.0000 
     58 CA          1.5565   23.2722   30.2870 C.3       4 GLC5        0.0000 
     59 CA          0.6650   24.3730   31.3510 C.3      12 GLL5        0.0000 
     60 CA          2.5220   23.9123   30.4113 C.3       4 GLC5        0.0000 
     61 CA          1.8890   25.1680   31.5290 C.3      12 GLL5        0.0000 
     62 CA          1.9278   26.8372   32.9281 C.3       4 GLC5        0.0000 
     63 CA          1.5450   27.9840   34.5410 C.3       8 GLP5        0.0000 
@<TRIPOS>BOND
@<TRIPOS>SUBSTRUCTURE
     1 ALC1        4 GROUP        1 X    ALC  0     ROOT ALC X 1
     2 SEC2       18 GROUP        1 X    SEC  0     **** SEC X 2
     3 LYC4       30 GROUP        1 X    LYC  0     **** LYC X 4
     4 GLC5        1 GROUP        1 X    GLC  0     **** GLC X 6
     5 ALP1        6 GROUP        1 Y    ALP  0     ROOT ALP Y 8
     6 SEP2       20 GROUP        1 Y    SEP  0     **** SEP Y 9
     7 LYP4       32 GROUP        1 Y    LYP  0     **** LYP Y 11
     8 GLP5        3 GROUP        1 Y    GLP  0     **** GLP Y 13
     9 ALL1        5 GROUP        1 Z    ALL  0     ROOT ALL Z 15
    10 SEL2       19 GROUP        1 Z    SEL  0     **** SEL Z 16
    11 LYL4       31 GROUP        1 Z    LYL  0     **** LYL Z 18
    12 GLL5        2 GROUP        1 Z    GLL  0     **** GLL Z 20
@<TRIPOS>SET

