#    Name: 2ej2_PPE_1_ligand
#    Modification time : Tue Mar 25 11:08:37 2014

@<TRIPOS>MOLECULE
2ej2_PPE_1_ligand
   39    39     1     0     0
SMALL
NO_CHARGES


@<TRIPOS>ATOM
      1 N1          2.6210   23.9430   33.4690 N.ar      1 PPE3413     0.0000 
      2 C2          1.4770   23.1050   33.4030 C.ar      1 PPE3413     0.0000 
      3 C2A         1.5200   22.0800   34.5420 C.3       1 PPE3413     0.0000 
      4 C3          0.5050   23.3560   32.3090 C.ar      1 PPE3413     0.0000 
      5 O3         -0.5470   22.5070   32.3300 O.3       1 PPE3413     0.0000 
      6 C4          0.6650   24.3730   31.3510 C.ar      1 PPE3413     0.0000 
      7 C4A        -0.3910   24.5420   30.2710 C.3       1 PPE3413     0.0000 
      8 C5          1.8890   25.1680   31.5290 C.ar      1 PPE3413     0.0000 
      9 C6          2.8590   24.9800   32.5520 C.ar      1 PPE3413     0.0000 
     10 C5A         2.2470   26.3070   30.5900 C.3       1 PPE3413     0.0000 
     11 OP4         2.5880   25.8730   29.3400 O.3       1 PPE3413     0.0000 
     12 P           2.2300   26.6150   27.9690 P.3       1 PPE3413     0.0000 
     13 OP1         2.8630   27.9080   27.8900 O.co2     1 PPE3413     0.0000 
     14 OP2         0.7070   26.5630   27.9250 O.co2     1 PPE3413     0.0000 
     15 OP3         2.8520   25.7210   26.9230 O.co2     1 PPE3413     0.0000 
     16 NA         -1.6790   24.8220   31.0120 N.4       1 PPE3413     0.0000 
     17 CAA        -2.8600   24.4240   30.1510 C.3       1 PPE3413     0.0000 
     18 CBA        -4.1170   24.0180   30.9850 C.3       1 PPE3413     0.0000 
     19 CGA        -4.8360   25.1370   31.7750 C.3       1 PPE3413     0.0000 
     20 CDA        -6.3720   25.0690   31.6200 C.2       1 PPE3413     0.0000 
     21 OE1        -6.8900   25.9130   30.8990 O.co2     1 PPE3413     0.0000 
     22 OE2        -6.9030   24.1390   32.2680 O.co2     1 PPE3413     0.0000 
     23 CA         -3.1630   25.5940   29.2020 C.2       1 PPE3413     0.0000 
     24 OA         -3.7080   25.1190   28.0420 O.co2     1 PPE3413     0.0000 
     25 OXT        -2.9070   26.8710   29.4780 O.co2     1 PPE3413     0.0000 
     26 H          -0.4811   23.6361   29.7109 H         1 PPE3413     0.0000 
     27 H          -0.1393   25.3737   29.6486 H         1 PPE3413     0.0000 
     28 H           3.6682   25.5622   32.6084 H         1 PPE3413     0.0000 
     29 H           3.0664   26.8837   31.0849 H         1 PPE3413     0.0000 
     30 H           1.3715   27.0015   30.5816 H         1 PPE3413     0.0000 
     31 H          -2.5698   23.5724   29.5378 H         1 PPE3413     0.0000 
     32 H          -3.8143   23.2193   31.6968 H         1 PPE3413     0.0000 
     33 H          -4.8490   23.5439   30.2954 H         1 PPE3413     0.0000 
     34 H          -4.4852   26.1055   31.4158 H         1 PPE3413     0.0000 
     35 H          -4.5811   25.0443   32.8317 H         1 PPE3413     0.0000 
     36 H           2.3355   21.5034   34.4921 H         1 PPE3413     0.0000 
     37 H           1.5278   22.5218   35.4391 H         1 PPE3413     0.0000 
     38 H           0.7280   21.4698   34.5226 H         1 PPE3413     0.0000 
     39 H          -0.1503   21.6000   32.1882 H         1 PPE3413     0.0000 
@<TRIPOS>BOND
     1    2    1 ar   
     2    9    1 ar   
     3    3    2 1    
     4    4    2 ar   
     5   36    3 1    
     6   37    3 1    
     7   38    3 1    
     8    5    4 1    
     9    6    4 ar   
    10   39    5 1    
    11    7    6 1    
    12    8    6 ar   
    13   16    7 1    
    14   26    7 1    
    15   27    7 1    
    16    9    8 ar   
    17   10    8 1    
    18   28    9 1    
    19   11   10 1    
    20   29   10 1    
    21   30   10 1    
    22   12   11 1    
    23   13   12 ar   
    24   14   12 ar   
    25   15   12 ar   
    26   17   16 1    
    27   18   17 1    
    28   23   17 1    
    29   31   17 1    
    30   19   18 1    
    31   32   18 1    
    32   33   18 1    
    33   20   19 1    
    34   34   19 1    
    35   35   19 1    
    36   21   20 ar   
    37   22   20 ar   
    38   24   23 ar   
    39   25   23 ar   
@<TRIPOS>SUBSTRUCTURE
     1 PPE3413     1 GROUP   
@<TRIPOS>SET

