#    Name: 3mb7_14I_1_INTS_M
#    Modification time : Mon Mar 24 22:56:59 2014

@<TRIPOS>MOLECULE
3mb7_14I_1_INTS_M
   50     0     9     0     0
SMALL
NO_CHARGES


@<TRIPOS>ATOM
      1 CA         21.8805    9.7785    9.5555 C.3       3 GLC5        0.0000 
      2 CA         22.8660    9.3970   11.2570 C.3       9 GLL5        0.0000 
      3 CA         20.8950   10.1600    7.8540 C.3       6 GLP5        0.0000 
      4 CA         20.5700   10.3940   12.4765 C.3       3 GLC5        0.0000 
      5 CA         22.7010   10.5610   12.0090 C.3       9 GLL5        0.0000 
      6 CA         18.4390   10.2270   12.9440 C.3       6 GLP5        0.0000 
      7 CA         22.5330    4.6545    9.9910 C.3       3 GLC5        0.0000 
      8 CA         23.1460    5.7300   11.5360 C.3       9 GLL5        0.0000 
      9 CA         21.9200    3.5790    8.4460 C.3       6 GLP5        0.0000 
     10 CA         24.5335    4.7400   10.5900 C.3       3 GLC5        0.0000 
     11 CA         25.9210    3.7500    9.6440 C.3       6 GLP5        0.0000 
     12 CA         22.3260    5.9695    9.4460 C.3       3 GLC5        0.0000 
     13 CA         23.0810    7.0120   11.0240 C.3       9 GLL5        0.0000 
     14 CA         21.5710    4.9270    7.8680 C.3       6 GLP5        0.0000 
     15 CA         24.3430    8.4115   16.0660 C.3       3 GLC5        0.0000 
     16 CA         22.5140    9.4020   15.4950 C.3       9 GLL5        0.0000 
     17 CA         26.1720    7.4210   16.6370 C.3       6 GLP5        0.0000 
     18 CA         24.7140    6.7030   14.1800 C.3       3 GLC5        0.0000 
     19 CA         22.8010    6.1320   15.1770 C.3       9 GLL5        0.0000 
     20 CA         26.6270    7.2740   13.1830 C.3       6 GLP5        0.0000 
     21 NZ         23.2935    1.4245   16.2650 N.4       2 LYC4        0.0000 
     22 NZ         23.0130    2.5320   15.5740 N.4       8 LYL4        0.0000 
     23 NZ         23.5740    0.3170   16.9560 N.4       5 LYP4        0.0000 
     24 N          23.2935    1.4245   16.2650 N.am      1 SEC2        0.0000 
     25 N          23.0130    2.5320   15.5740 N.am      7 SEL2        0.0000 
     26 N          23.5740    0.3170   16.9560 N.am      4 SEP2        0.0000 
     27 NZ         23.1775    2.1620   17.0865 N.4       2 LYC4        0.0000 
     28 NZ         22.7810    4.0070   17.2170 N.4       8 LYL4        0.0000 
     29 CA         24.6103    9.4320   11.4470 C.3       3 GLC5        0.0000 
     30 CA         26.4370    8.8850   11.2610 C.3       6 GLP5        0.0000 
     31 CA         24.6760    7.9177   13.4475 C.3       3 GLC5        0.0000 
     32 CA         22.6480    9.1440   14.0830 C.3       9 GLL5        0.0000 
     33 CA         20.8820    9.2492   14.0200 C.3       3 GLC5        0.0000 
     34 CA         22.8020    7.9790   13.3410 C.3       9 GLL5        0.0000 
     35 CA         19.0520    9.6140   14.5020 C.3       6 GLP5        0.0000 
     36 CA         24.7183    8.2280   11.3502 C.3       3 GLC5        0.0000 
     37 CA         22.9180    8.1300   11.8550 C.3       9 GLL5        0.0000 
     38 CA         24.5040    6.9147   15.5745 C.3       3 GLC5        0.0000 
     39 CA         22.8710    6.6850   13.8470 C.3       9 GLL5        0.0000 
     40 CA         21.2146    6.1795   13.6913 C.3       3 GLC5        0.0000 
     41 CA         23.0360    5.5680   12.9070 C.3       9 GLL5        0.0000 
     42 CA         19.4930    5.9090   14.1320 C.3       6 GLP5        0.0000 
     43 CA         24.8384    6.6011   12.8198 C.3       3 GLC5        0.0000 
     44 CA         21.2672    5.6645   11.1585 C.3       3 GLC5        0.0000 
     45 CA         19.4210    4.9580   11.0370 C.3       6 GLP5        0.0000 
     46 CA         20.7518    9.8575   15.0175 C.3       3 GLC5        0.0000 
     47 CA         22.3890   10.8000   15.5710 C.3       9 GLL5        0.0000 
     48 CA         21.1780    5.6755   14.6028 C.3       3 GLC5        0.0000 
     49 CA         24.3654   10.6728   14.8770 C.3       3 GLC5        0.0000 
     50 CA         26.1940   11.4000   15.1200 C.3       6 GLP5        0.0000 
@<TRIPOS>BOND
@<TRIPOS>SUBSTRUCTURE
     1 SEC2       24 GROUP        1 X    SEC  0     ROOT SEC X 2
     2 LYC4       21 GROUP        1 X    LYC  0     **** LYC X 4
     3 GLC5        1 GROUP        1 X    GLC  0     **** GLC X 6
     4 SEP2       26 GROUP        1 Y    SEP  0     ROOT SEP Y 9
     5 LYP4       23 GROUP        1 Y    LYP  0     **** LYP Y 11
     6 GLP5        3 GROUP        1 Y    GLP  0     **** GLP Y 13
     7 SEL2       25 GROUP        1 Z    SEL  0     ROOT SEL Z 16
     8 LYL4       22 GROUP        1 Z    LYL  0     **** LYL Z 18
     9 GLL5        2 GROUP        1 Z    GLL  0     **** GLL Z 20
@<TRIPOS>SET

