#    Name: 3mb7_14I_1_ligand
#    Modification time : Mon Mar 24 22:56:59 2014

@<TRIPOS>MOLECULE
3mb7_14I_1_ligand
   28    31     1     0     0
SMALL
NO_CHARGES


@<TRIPOS>ATOM
      1 CAA        22.8660    9.3970   11.2570 C.ar      1 14I332      0.0000 
      2 CAB        22.7010   10.5610   12.0090 C.ar      1 14I332      0.0000 
      3 CAC        22.5960   10.4360   13.3870 C.ar      1 14I332      0.0000 
      4 CAD        22.6480    9.1440   14.0830 C.ar      1 14I332      0.0000 
      5 CAE        22.8020    7.9790   13.3410 C.ar      1 14I332      0.0000 
      6 CAF        22.9180    8.1300   11.8550 C.ar      1 14I332      0.0000 
      7 CAG        22.8710    6.6850   13.8470 C.ar      1 14I332      0.0000 
      8 CAH        23.0360    5.5680   12.9070 C.ar      1 14I332      0.0000 
      9 CAI        23.1460    5.7300   11.5360 C.ar      1 14I332      0.0000 
     10 CAJ        23.0810    7.0120   11.0240 C.ar      1 14I332      0.0000 
     11 CAK        22.5140    9.4020   15.4950 C.2       1 14I332      0.0000 
     12 CAL        22.3890   10.8000   15.5710 C.2       1 14I332      0.0000 
     13 OAM        22.4400   11.4470   14.3590 O.3       1 14I332      0.0000 
     14 CAN        22.8010    6.1320   15.1770 C.2       1 14I332      0.0000 
     15 CAO        22.9250    4.7520   14.9700 C.2       1 14I332      0.0000 
     16 OAP        23.0840    4.3830   13.6570 O.3       1 14I332      0.0000 
     17 CAQ        22.9000    3.7000   16.0080 C.2       1 14I332      0.0000 
     18 CAR        22.2280   11.6010   16.8080 C.2       1 14I332      0.0000 
     19 OAS        22.1760   11.0350   17.9120 O.co2     1 14I332      0.0000 
     20 OAT        23.0130    2.5320   15.5740 O.co2     1 14I332      0.0000 
     21 OAU        22.7810    4.0070   17.2170 O.co2     1 14I332      0.0000 
     22 OAV        22.1360   12.8340   16.6680 O.co2     1 14I332      0.0000 
     23 H          22.9531    9.4685   10.2242 H         1 14I332      0.0000 
     24 H          22.6596   11.4684   11.5588 H         1 14I332      0.0000 
     25 H          23.2712    4.9267   10.9239 H         1 14I332      0.0000 
     26 H          23.1539    7.1607    9.9976 H         1 14I332      0.0000 
     27 H          22.5133    8.7884   16.1624 H         1 14I332      0.0000 
     28 H          22.6999    6.5925   15.9515 H         1 14I332      0.0000 
@<TRIPOS>BOND
     1    2    1 ar   
     2    6    1 ar   
     3   23    1 1    
     4    3    2 ar   
     5   24    2 1    
     6    4    3 ar   
     7   13    3 1    
     8    5    4 ar   
     9   11    4 1    
    10    6    5 ar   
    11    7    5 ar   
    12   10    6 ar   
    13    8    7 ar   
    14   14    7 1    
    15    9    8 ar   
    16   16    8 1    
    17   10    9 ar   
    18   25    9 1    
    19   26   10 1    
    20   12   11 2    
    21   27   11 1    
    22   13   12 1    
    23   18   12 1    
    24   15   14 2    
    25   28   14 1    
    26   16   15 1    
    27   17   15 1    
    28   20   17 ar   
    29   21   17 ar   
    30   19   18 ar   
    31   22   18 ar   
@<TRIPOS>SUBSTRUCTURE
     1 14I332      1 GROUP   
@<TRIPOS>SET

