#    Name: 3UIE_2_CAVITY_N1_6.mol2
#    Modification time : Tue Mar 11 07:37:10 2014

@<TRIPOS>MOLECULE
3UIE_2_CAVITY_N1_6.mol2
   71     0     7     0     0
SMALL
NO_CHARGES


@<TRIPOS>ATOM
      1 OD1       -17.5845   33.1100  -32.8826 O.3       3 ASP3        0.0000 
      2 OD1       -18.0256   34.0546  -34.7301 O.3       3 ASP3        0.0000 
      3 OD1       -18.8088   33.2462  -33.7385 O.3       3 ASP3        0.0000 
      4 CA        -19.5919   32.4379  -32.7470 C.3       6 GLY6        0.0000 
      5 OD1       -19.2498   34.1908  -35.5860 O.3       3 ASP3        0.0000 
      6 OG        -20.0330   33.3824  -34.5945 O.2       1 SER1        0.0000 
      7 OD1       -19.6909   35.1353  -37.4335 O.3       3 ASP3        0.0000 
      8 OD1       -20.4741   34.3270  -36.4420 O.3       3 ASP3        0.0000 
      9 OG        -21.2573   33.5186  -35.4504 O.2       1 SER1        0.0000 
     10 CA        -22.0404   32.7102  -34.4589 C.3       6 GLY6        0.0000 
     11 CA        -21.6983   34.4632  -37.2979 C.3       6 GLY6        0.0000 
     12 CA        -22.4815   33.6548  -36.3064 C.3       6 GLY6        0.0000 
     13 OD1       -17.2132   31.8539  -33.6134 O.3       3 ASP3        0.0000 
     14 OD1       -16.8711   33.6068  -36.4525 O.3       3 ASP3        0.0000 
     15 OD1       -17.6543   32.7984  -35.4610 O.3       3 ASP3        0.0000 
     16 OD1       -18.4375   31.9900  -34.4694 O.3       3 ASP3        0.0000 
     17 CA        -18.0954   33.7430  -37.3085 C.3       6 GLY6        0.0000 
     18 OD1       -18.8786   32.9346  -36.3169 O.3       3 ASP3        0.0000 
     19 CA        -19.6618   32.1262  -35.3253 C.3       6 GLY6        0.0000 
     20 CA        -19.3197   33.8791  -38.1644 C.3       6 GLY6        0.0000 
     21 DU        -20.1028   33.0708  -37.1729 H         7 CUB7        0.0000 
     22 CA        -20.8860   32.2624  -36.1813 C.3       6 GLY6        0.0000 
     23 NZ        -20.5439   34.0153  -39.0204 N.2       4 LYS4        0.0000 
     24 DU        -21.3271   33.2070  -38.0288 H         7 CUB7        0.0000 
     25 CA        -22.1103   32.3986  -37.0372 C.3       6 GLY6        0.0000 
     26 OG        -14.3121   36.9668  -31.6921 O.2       1 SER1        0.0000 
     27 OG        -15.0953   36.1584  -30.7005 O.2       1 SER1        0.0000 
     28 O         -15.8785   35.3500  -29.7089 O.2       2 ALA2        0.0000 
     29 OD1       -15.5364   37.1029  -32.5480 O.3       3 ASP3        0.0000 
     30 OD1       -16.3196   36.2946  -31.5565 O.3       3 ASP3        0.0000 
     31 CA        -17.1027   35.4862  -30.5649 C.3       6 GLY6        0.0000 
     32 CA        -16.7606   37.2391  -33.4040 C.3       6 GLY6        0.0000 
     33 CA        -17.5438   36.4308  -32.4124 C.3       6 GLY6        0.0000 
     34 O         -18.3270   35.6224  -31.4208 O.2       2 ALA2        0.0000 
     35 OD1       -16.0588   31.4060  -35.3359 O.3       3 ASP3        0.0000 
     36 NZ        -16.4999   32.3506  -37.1834 N.2       4 LYS4        0.0000 
     37 OD1       -17.2831   31.5422  -36.1918 O.3       3 ASP3        0.0000 
     38 CA        -18.0663   30.7339  -35.2003 C.3       6 GLY6        0.0000 
     39 O         -18.5073   31.6784  -37.0478 O.2       2 ALA2        0.0000 
     40 CA        -19.2905   30.8700  -36.0562 C.3       6 GLY6        0.0000 
     41 CA        -18.9484   32.6230  -38.8953 C.3       6 GLY6        0.0000 
     42 DU        -19.7316   31.8146  -37.9037 H         7 CUB7        0.0000 
     43 CA        -20.5148   31.0062  -36.9122 C.3       6 GLY6        0.0000 
     44 CZ        -20.9558   31.9508  -38.7597 C.ar      5 PHE5        0.0000 
     45 CZ        -21.7390   31.1424  -37.7681 C.ar      5 PHE5        0.0000 
     46 CA        -22.5222   30.3341  -36.7766 C.3       6 GLY6        0.0000 
     47 N         -16.9118   30.2860  -36.9227 N.2       2 ALA2        0.0000 
     48 O         -17.6950   29.4777  -35.9311 O.2       2 ALA2        0.0000 
     49 CA        -18.1361   30.4222  -37.7786 C.3       6 GLY6        0.0000 
     50 O         -18.9193   29.6139  -36.7871 O.2       2 ALA2        0.0000 
     51 CA        -19.3603   30.5584  -38.6346 C.3       6 GLY6        0.0000 
     52 CA        -20.1435   29.7500  -37.6430 C.3       6 GLY6        0.0000 
     53 CA        -20.9267   28.9417  -36.6515 C.3       6 GLY6        0.0000 
     54 O         -14.7241   34.9022  -31.4314 O.2       2 ALA2        0.0000 
     55 OD1       -16.7315   34.2300  -31.2958 O.3       3 ASP3        0.0000 
     56 O         -17.9557   34.3662  -32.1517 O.2       2 ALA2        0.0000 
     57 OG        -19.1800   34.5024  -33.0077 O.2       1 SER1        0.0000 
     58 OG        -20.4043   34.6386  -33.8636 O.2       1 SER1        0.0000 
     59 OD1       -20.8453   35.5832  -35.7111 O.3       3 ASP3        0.0000 
     60 OG        -21.6285   34.7748  -34.7196 O.2       1 SER1        0.0000 
     61 O         -18.5480   28.3577  -37.5180 O.2       2 ALA2        0.0000 
     62 OG        -14.2423   37.2784  -29.1137 O.2       1 SER1        0.0000 
     63 OG        -15.4666   37.4146  -29.9696 O.2       1 SER1        0.0000 
     64 CA        -16.2497   36.6062  -28.9781 C.3       6 GLY6        0.0000 
     65 DU        -15.9076   38.3591  -31.8171 H         7 CUB7        0.0000 
     66 CA        -16.6908   37.5508  -30.8256 C.3       6 GLY6        0.0000 
     67 CA        -17.4740   36.7424  -29.8340 C.3       6 GLY6        0.0000 
     68 CA        -17.1319   38.4953  -32.6731 C.3       6 GLY6        0.0000 
     69 CA        -17.9151   37.6870  -31.6815 C.3       6 GLY6        0.0000 
     70 CA        -18.6983   36.8786  -30.6900 C.3       6 GLY6        0.0000 
     71 CA        -15.8378   38.6708  -29.2388 C.3       6 GLY6        0.0000 
@<TRIPOS>BOND
@<TRIPOS>SUBSTRUCTURE
     1 SER1        6 GROUP   
     2 ALA2       28 GROUP   
     3 ASP3        1 GROUP   
     4 LYS4       23 GROUP   
     5 PHE5       44 GROUP   
     6 GLY6        4 GROUP   
     7 CUB7       21 GROUP   
@<TRIPOS>SET

