#    Name: 3uie_ANP_2_INTS_M
#    Modification time : Mon Mar 24 22:35:00 2014

@<TRIPOS>MOLECULE
3uie_ANP_2_INTS_M
   64     0    15     0     0
SMALL
NO_CHARGES


@<TRIPOS>ATOM
      1 NZ        -18.2765   31.1765  -32.5350 N.4       3 LYC4        0.0000 
      2 NZ        -18.7960   32.0580  -33.3920 N.4      13 LYL4        0.0000 
      3 NZ        -17.7570   30.2950  -31.6780 N.4       8 LYP4        0.0000 
      4 N         -18.2765   31.1765  -32.5350 N.am      2 SEC2        0.0000 
      5 N         -18.7960   32.0580  -33.3920 N.am     12 SEL2        0.0000 
      6 N         -17.7570   30.2950  -31.6780 N.am      7 SEP2        0.0000 
      7 NZ        -19.2315   35.5560  -34.6660 N.4       3 LYC4        0.0000 
      8 NZ        -19.8560   34.3370  -33.5330 N.4      13 LYL4        0.0000 
      9 NZ        -18.6070   36.7750  -35.7990 N.4       8 LYP4        0.0000 
     10 N         -20.9620   34.2280  -32.7970 N.am      2 SEC2        0.0000 
     11 N         -19.8560   34.3370  -33.5330 N.am     12 SEL2        0.0000 
     12 N         -22.0680   34.1190  -32.0610 N.am      7 SEP2        0.0000 
     13 N         -20.6125   34.5635  -34.8710 N.am      2 SEC2        0.0000 
     14 N         -21.3690   34.7900  -36.2090 N.am      7 SEP2        0.0000 
     15 NZ        -18.0635   35.4195  -35.0790 N.4       3 LYC4        0.0000 
     16 NZ        -17.5200   34.0640  -34.3590 N.4      13 LYL4        0.0000 
     17 Zn        -16.4605   34.0240  -34.3820 Zn        4 ZIC7        0.0000 
     18 Zn        -17.5200   34.0640  -34.3590 Zn       14 ZIL7        0.0000 
     19 Zn        -15.4010   33.9840  -34.4050 Zn        9 ZIP7        0.0000 
     20 N         -18.0635   35.4195  -35.0790 N.am      2 SEC2        0.0000 
     21 N         -17.5200   34.0640  -34.3590 N.am     12 SEL2        0.0000 
     22 N         -18.6070   36.7750  -35.7990 N.am      7 SEP2        0.0000 
     23 NZ        -17.2185   31.3375  -31.0645 N.4       3 LYC4        0.0000 
     24 NZ        -16.6800   32.3800  -30.4510 N.4      13 LYL4        0.0000 
     25 N         -16.1560   32.6850  -28.9980 N.am      2 SEC2        0.0000 
     26 N         -16.6800   32.3800  -30.4510 N.am     12 SEL2        0.0000 
     27 N         -15.6320   32.9900  -27.5450 N.am      7 SEP2        0.0000 
     28 N         -15.2990   32.0865  -29.9305 N.am      2 SEC2        0.0000 
     29 N         -13.9180   31.7930  -29.4100 N.am      7 SEP2        0.0000 
     30 N         -17.2185   31.3375  -31.0645 N.am      2 SEC2        0.0000 
     31 Zn        -15.3135   33.7790  -33.3900 Zn        4 ZIC7        0.0000 
     32 Zn        -15.2260   33.5740  -32.3750 Zn       14 ZIL7        0.0000 
     33 N         -13.8810   33.1695  -32.0965 N.am      2 SEC2        0.0000 
     34 N         -15.2260   33.5740  -32.3750 N.am     12 SEL2        0.0000 
     35 N         -12.5360   32.7650  -31.8180 N.am      7 SEP2        0.0000 
     36 N         -12.2430   35.1170  -30.4795 N.am      2 SEC2        0.0000 
     37 N         -13.5880   35.5440  -30.2000 N.am     12 SEL2        0.0000 
     38 N         -10.8980   34.6900  -30.7590 N.am      7 SEP2        0.0000 
     39 N         -12.6365   36.2520  -29.7055 N.am      2 SEC2        0.0000 
     40 N         -11.6850   36.9600  -29.2110 N.am      7 SEP2        0.0000 
     41 N         -15.8655   33.8920  -28.8580 N.am      2 SEC2        0.0000 
     42 N         -16.0990   34.7940  -30.1710 N.am     12 SEL2        0.0000 
     43 CA        -17.9465   36.1195  -28.6880 C.3       5 GLC5        0.0000 
     44 CA        -16.4720   37.5070  -28.7700 C.3      15 GLL5        0.0000 
     45 CA        -19.4210   34.7320  -28.6060 C.3      10 GLP5        0.0000 
     46 CA        -17.3380   37.9140  -26.0120 C.3       5 GLC5        0.0000 
     47 CA        -16.4020   38.5740  -27.8350 C.3      15 GLL5        0.0000 
     48 CA        -18.2740   37.2540  -24.1890 C.3      10 GLP5        0.0000 
     49 CA        -17.2650   40.1115  -29.1305 C.3       5 GLC5        0.0000 
     50 CA        -15.3890   39.5180  -28.3070 C.3      15 GLL5        0.0000 
     51 CA        -19.1410   40.7050  -29.9540 C.3      10 GLP5        0.0000 
     52 CA        -16.5100   37.9670  -25.1985 C.3       5 GLC5        0.0000 
     53 CA        -14.7460   38.6800  -26.2080 C.3      15 GLL5        0.0000 
     54 CA        -10.2560   36.7345  -24.5000 C.3       5 GLC5        0.0000 
     55 CA        -12.4640   36.5880  -24.3260 C.3      15 GLL5        0.0000 
     56 CA         -8.0480   36.8810  -24.6740 C.3      10 GLP5        0.0000 
     57 CA         -9.8545   36.5745  -23.1440 C.3       5 GLC5        0.0000 
     58 CA        -11.8660   36.2860  -23.1020 C.3      15 GLL5        0.0000 
     59 CA         -7.8430   36.8630  -23.1860 C.3      10 GLP5        0.0000 
     60 O         -10.4205   34.6020  -21.7600 O.2       1 ALC1        0.0000 
     61 O         -10.9380   35.1650  -23.0000 O.2      11 ALL1        0.0000 
     62 O          -9.9030   34.0390  -20.5200 O.2       6 ALP1        0.0000 
     63 CA        -17.9415   38.6472  -29.0247 C.3       5 GLC5        0.0000 
     64 CA        -19.4460   39.2540  -29.7470 C.3      10 GLP5        0.0000 
@<TRIPOS>BOND
@<TRIPOS>SUBSTRUCTURE
     1 ALC1       60 GROUP        1 X    ALC  0     ROOT ALC X 1
     2 SEC2        4 GROUP        1 X    SEC  0     **** SEC X 2
     3 LYC4        1 GROUP        1 X    LYC  0     **** LYC X 4
     4 ZIC7       17 GROUP        1 X    ZIC  0     **** ZIC X 5
     5 GLC5       43 GROUP        1 X    GLC  0     **** GLC X 6
     6 ALP1       62 GROUP        1 Y    ALP  0     ROOT ALP Y 8
     7 SEP2        6 GROUP        1 Y    SEP  0     **** SEP Y 9
     8 LYP4        3 GROUP        1 Y    LYP  0     **** LYP Y 11
     9 ZIP7       19 GROUP        1 Y    ZIP  0     **** ZIP Y 12
    10 GLP5       45 GROUP        1 Y    GLP  0     **** GLP Y 13
    11 ALL1       61 GROUP        1 Z    ALL  0     ROOT ALL Z 15
    12 SEL2        5 GROUP        1 Z    SEL  0     **** SEL Z 16
    13 LYL4        2 GROUP        1 Z    LYL  0     **** LYL Z 18
    14 ZIL7       18 GROUP        1 Z    ZIL  0     **** ZIL Z 19
    15 GLL5       44 GROUP        1 Z    GLL  0     **** GLL Z 20
@<TRIPOS>SET

