#    Name: 3uie_ANP_2_ligand
#    Modification time : Mon Mar 24 22:35:00 2014

@<TRIPOS>MOLECULE
3uie_ANP_2_ligand
   43    45     1     0     0
SMALL
NO_CHARGES


@<TRIPOS>ATOM
      1 PG        -18.4820   33.6360  -33.2910 P.3       1 ANP302      0.0000 
      2 O1G       -18.7960   32.0580  -33.3920 O.co2     1 ANP302      0.0000 
      3 O2G       -19.8560   34.3370  -33.5330 O.co2     1 ANP302      0.0000 
      4 O3G       -17.5200   34.0640  -34.3590 O.co2     1 ANP302      0.0000 
      5 PB        -16.3630   33.6690  -31.3180 P.3       1 ANP302      0.0000 
      6 O1B       -16.6800   32.3800  -30.4510 O.co2     1 ANP302      0.0000 
      7 O2B       -15.2260   33.5740  -32.3750 O.co2     1 ANP302      0.0000 
      8 N3B       -17.9630   34.0830  -31.7420 N.4       1 ANP302      0.0000 
      9 PA        -15.0240   35.9490  -30.2590 P.3       1 ANP302      0.0000 
     10 O1A       -15.3120   36.8150  -31.4400 O.co2     1 ANP302      0.0000 
     11 O2A       -13.5880   35.5440  -30.2000 O.co2     1 ANP302      0.0000 
     12 O3A       -16.0990   34.7940  -30.1710 O.3       1 ANP302      0.0000 
     13 O5'       -15.2800   36.8170  -28.9760 O.3       1 ANP302      0.0000 
     14 C5'       -16.4720   37.5070  -28.7700 C.3       1 ANP302      0.0000 
     15 C4'       -16.4020   38.5740  -27.8350 C.3       1 ANP302      0.0000 
     16 O4'       -15.9530   38.0710  -26.5310 O.3       1 ANP302      0.0000 
     17 C3'       -15.3890   39.5180  -28.3070 C.3       1 ANP302      0.0000 
     18 O3'       -15.8920   40.8380  -28.2760 O.3       1 ANP302      0.0000 
     19 C2'       -14.2440   39.3840  -27.4140 C.3       1 ANP302      0.0000 
     20 O2'       -13.7450   40.6470  -27.0560 O.3       1 ANP302      0.0000 
     21 C1'       -14.7460   38.6800  -26.2080 C.3       1 ANP302      0.0000 
     22 N9        -13.7610   37.7090  -25.6760 N.pl3     1 ANP302      0.0000 
     23 C8        -13.1590   36.7370  -26.3790 C.2       1 ANP302      0.0000 
     24 N7        -12.3660   36.0540  -25.5570 N.2       1 ANP302      0.0000 
     25 C5        -12.4640   36.5880  -24.3260 C.ar      1 ANP302      0.0000 
     26 C6        -11.8660   36.2860  -23.1020 C.ar      1 ANP302      0.0000 
     27 N6        -10.9380   35.1650  -23.0000 N.pl3     1 ANP302      0.0000 
     28 N1        -12.1740   37.0280  -22.0300 N.ar      1 ANP302      0.0000 
     29 C2        -13.0460   38.0470  -22.1320 C.ar      1 ANP302      0.0000 
     30 N3        -13.6280   38.3620  -23.2820 N.ar      1 ANP302      0.0000 
     31 C4        -13.3560   37.6560  -24.3980 C.ar      1 ANP302      0.0000 
     32 H         -17.2884   36.7872  -28.4483 H         1 ANP302      0.0000 
     33 H         -16.8670   37.9058  -29.7564 H         1 ANP302      0.0000 
     34 H         -17.3367   39.0733  -27.7319 H         1 ANP302      0.0000 
     35 H         -15.0887   39.2333  -29.3065 H         1 ANP302      0.0000 
     36 H         -13.4980   38.7678  -27.8801 H         1 ANP302      0.0000 
     37 H         -14.9144   39.4525  -25.4315 H         1 ANP302      0.0000 
     38 H         -13.2851   36.5666  -27.3261 H         1 ANP302      0.0000 
     39 H         -10.5603   34.9877  -22.0912 H         1 ANP302      0.0000 
     40 H         -10.7559   34.6660  -23.8473 H         1 ANP302      0.0000 
     41 H         -13.2699   38.6108  -21.2627 H         1 ANP302      0.0000 
     42 H         -15.7426   41.1935  -29.1987 H         1 ANP302      0.0000 
     43 H         -14.2857   41.2989  -27.5875 H         1 ANP302      0.0000 
@<TRIPOS>BOND
     1    2    1 ar   
     2    3    1 ar   
     3    4    1 ar   
     4    8    1 1    
     5    6    5 ar   
     6    7    5 ar   
     7    8    5 1    
     8   12    5 1    
     9   10    9 ar   
    10   11    9 ar   
    11   12    9 1    
    12   13    9 1    
    13   14   13 1    
    14   15   14 1    
    15   32   14 1    
    16   33   14 1    
    17   16   15 1    
    18   17   15 1    
    19   34   15 1    
    20   21   16 1    
    21   18   17 1    
    22   19   17 1    
    23   35   17 1    
    24   42   18 1    
    25   20   19 1    
    26   21   19 1    
    27   36   19 1    
    28   43   20 1    
    29   22   21 1    
    30   37   21 1    
    31   23   22 1    
    32   31   22 1    
    33   24   23 2    
    34   38   23 1    
    35   25   24 1    
    36   26   25 ar   
    37   31   25 ar   
    38   27   26 1    
    39   28   26 ar   
    40   39   27 1    
    41   40   27 1    
    42   29   28 ar   
    43   30   29 ar   
    44   41   29 1    
    45   31   30 ar   
@<TRIPOS>SUBSTRUCTURE
     1 ANP302      1 GROUP   
@<TRIPOS>SET

