#    Name: 1mez_GDP_1_INTS_M
#    Modification time : Tue Mar 25 11:47:29 2014

@<TRIPOS>MOLECULE
1mez_GDP_1_INTS_M
   68     0    15     0     0
SMALL
NO_CHARGES


@<TRIPOS>ATOM
      1 N          65.7810   50.8555   37.0990 N.am      2 SEC2        0.0000 
      2 N          65.2310   51.9140   36.5100 N.am     12 SEL2        0.0000 
      3 N          66.3310   49.7970   37.6880 N.am      7 SEP2        0.0000 
      4 NZ         66.3195   55.0275   36.3890 N.4       3 LYC4        0.0000 
      5 NZ         64.7680   54.3620   35.9630 N.4      13 LYL4        0.0000 
      6 NZ         67.8710   55.6930   36.8150 N.4       8 LYP4        0.0000 
      7 Zn         63.8395   55.0050   35.7085 Zn        4 ZIC7        0.0000 
      8 Zn         64.7680   54.3620   35.9630 Zn       14 ZIL7        0.0000 
      9 Zn         62.9110   55.6480   35.4540 Zn        9 ZIP7        0.0000 
     10 N          66.3195   55.0275   36.3890 N.am      2 SEC2        0.0000 
     11 N          64.7680   54.3620   35.9630 N.am     12 SEL2        0.0000 
     12 N          67.8710   55.6930   36.8150 N.am      7 SEP2        0.0000 
     13 NZ         67.4035   54.4960   36.0300 N.4       3 LYC4        0.0000 
     14 NZ         66.9360   53.2990   35.2450 N.4      13 LYL4        0.0000 
     15 N          67.3500   52.5210   34.1815 N.am      2 SEC2        0.0000 
     16 N          66.9360   53.2990   35.2450 N.am     12 SEL2        0.0000 
     17 N          67.7640   51.7430   33.1180 N.am      7 SEP2        0.0000 
     18 N          67.4770   52.1510   35.4860 N.am      2 SEC2        0.0000 
     19 N          68.0180   51.0030   35.7270 N.am      7 SEP2        0.0000 
     20 N          67.4035   54.4960   36.0300 N.am      2 SEC2        0.0000 
     21 N          66.2835   52.1765   33.6295 N.am      2 SEC2        0.0000 
     22 N          64.8030   52.6100   34.1410 N.am     12 SEL2        0.0000 
     23 N          62.1075   50.7980   35.5600 N.am      2 SEC2        0.0000 
     24 N          62.6310   51.4700   34.3990 N.am     12 SEL2        0.0000 
     25 N          61.5840   50.1260   36.7210 N.am      7 SEP2        0.0000 
     26 N          61.2875   50.9430   34.4325 N.am      2 SEC2        0.0000 
     27 N          59.9440   50.4160   34.4660 N.am      7 SEP2        0.0000 
     28 Zn         62.8205   54.8370   34.8375 Zn        4 ZIC7        0.0000 
     29 Zn         62.7300   54.0260   34.2210 Zn       14 ZIL7        0.0000 
     30 CA         64.7250   53.5615   32.1355 C.3       5 GLC5        0.0000 
     31 CA         63.7930   51.6890   31.4250 C.3      15 GLL5        0.0000 
     32 CA         65.6570   55.4340   32.8460 C.3      10 GLP5        0.0000 
     33 CA         65.6355   51.0230   32.4410 C.3       5 GLC5        0.0000 
     34 CA         67.4780   50.3570   33.4570 C.3      10 GLP5        0.0000 
     35 CA         63.9715   50.5000   28.7400 C.3       5 GLC5        0.0000 
     36 CA         62.8920   50.7390   30.6640 C.3      15 GLL5        0.0000 
     37 CA         65.0510   50.2610   26.8160 C.3      10 GLP5        0.0000 
     38 N          63.8545   50.6275   28.4390 N.am      2 SEC2        0.0000 
     39 N          63.6740   49.9380   29.7460 N.am     12 SEL2        0.0000 
     40 N          64.0350   51.3170   27.1320 N.am      7 SEP2        0.0000 
     41 CA         61.2510   47.3340   30.7080 C.3       5 GLC5        0.0000 
     42 CA         62.8920   48.4630   31.3790 C.3      15 GLL5        0.0000 
     43 CA         59.6100   46.2050   30.0370 C.3      10 GLP5        0.0000 
     44 CA         64.2190   49.4160   28.3795 C.3       5 GLC5        0.0000 
     45 CA         63.3870   48.5710   29.9430 C.3      15 GLL5        0.0000 
     46 CA         62.4920   46.8625   29.4360 C.3       5 GLC5        0.0000 
     47 CA         61.5970   45.1540   28.9290 C.3      10 GLP5        0.0000 
     48 CA         66.6865   45.7660   30.6575 C.3       5 GLC5        0.0000 
     49 CA         66.2450   46.6520   28.8710 C.3      15 GLL5        0.0000 
     50 CA         67.1280   44.8800   32.4440 C.3      10 GLP5        0.0000 
     51 CA         66.8425   48.1295   28.0205 C.3       5 GLC5        0.0000 
     52 CA         67.4400   49.6070   27.1700 C.3      10 GLP5        0.0000 
     53 CA         64.7670   45.2045   29.5480 C.3       5 GLC5        0.0000 
     54 CA         63.2890   43.7570   30.2250 C.3      10 GLP5        0.0000 
     55 N          68.7490   46.5760   27.4025 N.am      2 SEC2        0.0000 
     56 N          68.0300   45.3940   27.9230 N.am     12 SEL2        0.0000 
     57 N          69.4680   47.7580   26.8820 N.am      7 SEP2        0.0000 
     58 O          66.7680   45.3040   25.5495 O.2       1 ALC1        0.0000 
     59 O          66.0630   45.6350   26.7930 O.2      11 ALL1        0.0000 
     60 O          67.4730   44.9730   24.3060 O.2       6 ALP1        0.0000 
     61 O          64.8200   45.0590   24.5560 O.2       1 ALC1        0.0000 
     62 O          64.1420   45.7650   25.5320 O.2      11 ALL1        0.0000 
     63 O          65.4980   44.3530   23.5800 O.2       6 ALP1        0.0000 
     64 CA         65.0050   48.6755   27.7250 C.3       5 GLC5        0.0000 
     65 CA         64.9590   47.0900   28.6340 C.3      15 GLL5        0.0000 
     66 CA         63.2780   46.1220   28.7815 C.3       5 GLC5        0.0000 
     67 CA         61.5480   49.1370   33.0680 C.3       5 GLC5        0.0000 
     68 CA         60.6010   49.1650   34.6900 C.3      10 GLP5        0.0000 
@<TRIPOS>BOND
@<TRIPOS>SUBSTRUCTURE
     1 ALC1       58 GROUP        1 X    ALC  0     ROOT ALC X 1
     2 SEC2        1 GROUP        1 X    SEC  0     **** SEC X 2
     3 LYC4        4 GROUP        1 X    LYC  0     **** LYC X 4
     4 ZIC7        7 GROUP        1 X    ZIC  0     **** ZIC X 5
     5 GLC5       30 GROUP        1 X    GLC  0     **** GLC X 6
     6 ALP1       60 GROUP        1 Y    ALP  0     ROOT ALP Y 8
     7 SEP2        3 GROUP        1 Y    SEP  0     **** SEP Y 9
     8 LYP4        6 GROUP        1 Y    LYP  0     **** LYP Y 11
     9 ZIP7        9 GROUP        1 Y    ZIP  0     **** ZIP Y 12
    10 GLP5       32 GROUP        1 Y    GLP  0     **** GLP Y 13
    11 ALL1       59 GROUP        1 Z    ALL  0     ROOT ALL Z 15
    12 SEL2        2 GROUP        1 Z    SEL  0     **** SEL Z 16
    13 LYL4        5 GROUP        1 Z    LYL  0     **** LYL Z 18
    14 ZIL7        8 GROUP        1 Z    ZIL  0     **** ZIL Z 19
    15 GLL5       31 GROUP        1 Z    GLL  0     **** GLL Z 20
@<TRIPOS>SET

