#    Name: 1mez_GDP_1_ligand
#    Modification time : Tue Mar 25 11:47:29 2014

@<TRIPOS>MOLECULE
1mez_GDP_1_ligand
   40    42     1     0     0
SMALL
NO_CHARGES


@<TRIPOS>ATOM
      1 PB         65.4650   53.0750   35.5540 P.3       1 GDP1452     0.0000 
      2 O1B        65.2310   51.9140   36.5100 O.co2     1 GDP1452     0.0000 
      3 O2B        64.7680   54.3620   35.9630 O.co2     1 GDP1452     0.0000 
      4 O3B        66.9360   53.2990   35.2450 O.co2     1 GDP1452     0.0000 
      5 O3A        64.8030   52.6100   34.1410 O.3       1 GDP1452     0.0000 
      6 PA         63.2180   52.6870   33.7860 P.3       1 GDP1452     0.0000 
      7 O1A        62.6310   51.4700   34.3990 O.co2     1 GDP1452     0.0000 
      8 O2A        62.7300   54.0260   34.2210 O.co2     1 GDP1452     0.0000 
      9 O5'        63.0220   52.5910   32.2080 O.3       1 GDP1452     0.0000 
     10 C5'        63.7930   51.6890   31.4250 C.3       1 GDP1452     0.0000 
     11 C4'        62.8920   50.7390   30.6640 C.3       1 GDP1452     0.0000 
     12 O4'        63.6740   49.9380   29.7460 O.3       1 GDP1452     0.0000 
     13 C3'        62.0980   49.7550   31.5130 C.3       1 GDP1452     0.0000 
     14 O3'        60.7710   49.6490   31.0110 O.3       1 GDP1452     0.0000 
     15 C2'        62.8920   48.4630   31.3790 C.3       1 GDP1452     0.0000 
     16 O2'        62.1280   47.2910   31.5690 O.3       1 GDP1452     0.0000 
     17 C1'        63.3870   48.5710   29.9430 C.3       1 GDP1452     0.0000 
     18 N9         64.6260   47.8410   29.7330 N.pl3     1 GDP1452     0.0000 
     19 C8         65.7050   47.7930   30.5820 C.2       1 GDP1452     0.0000 
     20 N7         66.7000   47.0980   30.1050 N.2       1 GDP1452     0.0000 
     21 C5         66.2450   46.6520   28.8710 C.2       1 GDP1452     0.0000 
     22 C6         66.8880   45.8640   27.8950 C.2       1 GDP1452     0.0000 
     23 O6         68.0300   45.3940   27.9230 O.2       1 GDP1452     0.0000 
     24 N1         66.0630   45.6350   26.7930 N.am      1 GDP1452     0.0000 
     25 C2         64.7800   46.1080   26.6550 C.2       1 GDP1452     0.0000 
     26 N2         64.1420   45.7650   25.5320 N.pl3     1 GDP1452     0.0000 
     27 N3         64.1710   46.8610   27.5580 N.2       1 GDP1452     0.0000 
     28 C4         64.9590   47.0900   28.6340 C.2       1 GDP1452     0.0000 
     29 H          64.4701   51.0852   32.0504 H         1 GDP1452     0.0000 
     30 H          64.4196   52.2215   30.6916 H         1 GDP1452     0.0000 
     31 H          62.1724   51.3255   30.0803 H         1 GDP1452     0.0000 
     32 H          62.1527   50.0823   32.5224 H         1 GDP1452     0.0000 
     33 H          63.7499   48.5410   32.0115 H         1 GDP1452     0.0000 
     34 H          62.6209   48.2406   29.2893 H         1 GDP1452     0.0000 
     35 H          65.6923   48.2564   31.4682 H         1 GDP1452     0.0000 
     36 H          66.4670   45.0466   26.0011 H         1 GDP1452     0.0000 
     37 H          64.6494   45.1808   24.8986 H         1 GDP1452     0.0000 
     38 H          63.2145   46.1233   25.4259 H         1 GDP1452     0.0000 
     39 H          60.5341   48.6823   31.1083 H         1 GDP1452     0.0000 
     40 H          62.5938   46.7945   32.3015 H         1 GDP1452     0.0000 
@<TRIPOS>BOND
     1    2    1 ar   
     2    3    1 ar   
     3    4    1 ar   
     4    5    1 1    
     5    6    5 1    
     6    7    6 ar   
     7    8    6 ar   
     8    9    6 1    
     9   10    9 1    
    10   11   10 1    
    11   29   10 1    
    12   30   10 1    
    13   12   11 1    
    14   13   11 1    
    15   31   11 1    
    16   17   12 1    
    17   14   13 1    
    18   15   13 1    
    19   32   13 1    
    20   39   14 1    
    21   16   15 1    
    22   17   15 1    
    23   33   15 1    
    24   40   16 1    
    25   18   17 1    
    26   34   17 1    
    27   19   18 1    
    28   28   18 1    
    29   20   19 2    
    30   35   19 1    
    31   21   20 1    
    32   22   21 1    
    33   28   21 2    
    34   23   22 2    
    35   24   22 am   
    36   25   24 1    
    37   36   24 1    
    38   26   25 1    
    39   27   25 2    
    40   37   26 1    
    41   38   26 1    
    42   28   27 1    
@<TRIPOS>SUBSTRUCTURE
     1 GDP1452     1 GROUP   
@<TRIPOS>SET

