#    Name: 2qrv_SAH_1_INTS_M
#    Modification time : Mon Mar 24 22:38:25 2014

@<TRIPOS>MOLECULE
2qrv_SAH_1_INTS_M
   66     0     9     0     0
SMALL
NO_CHARGES


@<TRIPOS>ATOM
      1 CA        110.9260   49.6725    3.0765 C.3       3 GLC5        0.0000 
      2 CA        109.6570   49.4810    1.2710 C.3       9 GLL5        0.0000 
      3 CA        112.1950   49.8640    4.8820 C.3       6 GLP5        0.0000 
      4 CA        105.3485   46.2740    1.7685 C.3       3 GLC5        0.0000 
      5 CA        107.1770   46.3220    1.1160 C.3       9 GLL5        0.0000 
      6 CA        103.5200   46.2260    2.4210 C.3       6 GLP5        0.0000 
      7 N         109.8580   53.1575    2.1925 N.am      2 SEC2        0.0000 
      8 N         109.9490   51.7130    2.2820 N.am      8 SEL2        0.0000 
      9 N         109.7670   54.6020    2.1030 N.am      5 SEP2        0.0000 
     10 N         109.6670   51.7980    3.6915 N.am      2 SEC2        0.0000 
     11 N         109.3850   51.8830    5.1010 N.am      5 SEP2        0.0000 
     12 N         107.5450   52.0580   -0.3275 N.am      2 SEC2        0.0000 
     13 N         108.2460   51.4010    0.8740 N.am      8 SEL2        0.0000 
     14 N         106.8440   52.7150   -1.5290 N.am      5 SEP2        0.0000 
     15 O         105.7845   47.8545   -2.9520 O.2       1 ALC1        0.0000 
     16 O         105.7290   47.3350   -1.9140 O.2       7 ALL1        0.0000 
     17 O         105.8400   48.3740   -3.9900 O.2       4 ALP1        0.0000 
     18 CA        103.5045   46.1395   -3.9490 C.3       3 GLC5        0.0000 
     19 CA        105.1990   45.0610   -3.0280 C.3       9 GLL5        0.0000 
     20 CA        101.8100   47.2180   -4.8700 C.3       6 GLP5        0.0000 
     21 N         103.7395   46.1885   -5.4530 N.am      2 SEC2        0.0000 
     22 N         104.4510   45.8110   -3.9790 N.am      8 SEL2        0.0000 
     23 N         103.0280   46.5660   -6.9270 N.am      5 SEP2        0.0000 
     24 O         105.0780   46.4695   -4.8745 O.2       1 ALC1        0.0000 
     25 O         104.4510   45.8110   -3.9790 O.2       7 ALL1        0.0000 
     26 O         105.7050   47.1280   -5.7700 O.2       4 ALP1        0.0000 
     27 CA        108.4650   43.7445   -3.7455 C.3       3 GLC5        0.0000 
     28 CA        106.4940   44.4550   -3.5960 C.3       9 GLL5        0.0000 
     29 CA        110.4360   43.0340   -3.8950 C.3       6 GLP5        0.0000 
     30 CA        105.2760   43.9310   -5.3815 C.3       3 GLC5        0.0000 
     31 CA        104.0580   43.4070   -7.1670 C.3       6 GLP5        0.0000 
     32 CA        107.9190   41.9035   -9.0955 C.3       3 GLC5        0.0000 
     33 CA        107.6720   41.3000   -7.0070 C.3       9 GLL5        0.0000 
     34 CA        108.1660   42.5070  -11.1840 C.3       6 GLP5        0.0000 
     35 CA        109.3100   40.8915   -7.3295 C.3       3 GLC5        0.0000 
     36 CA        110.9480   40.4830   -7.6520 C.3       6 GLP5        0.0000 
     37 O         108.2305   39.9260   -9.0220 O.2       1 ALC1        0.0000 
     38 O         107.6020   40.0680   -7.5040 O.2       7 ALL1        0.0000 
     39 O         108.8590   39.7840  -10.5400 O.2       4 ALP1        0.0000 
     40 N         109.3235   42.1090   -8.7455 N.am      2 SEC2        0.0000 
     41 N         108.4540   42.2210   -7.6520 N.am      8 SEL2        0.0000 
     42 N         110.1930   41.9970   -9.8390 N.am      5 SEP2        0.0000 
     43 CA        110.2410   44.6995   -8.1170 C.3       3 GLC5        0.0000 
     44 CA        108.6080   43.5100   -7.2180 C.3       9 GLL5        0.0000 
     45 CA        111.8740   45.8890   -9.0160 C.3       6 GLP5        0.0000 
     46 CA        108.0340   45.4755   -7.5195 C.3       3 GLC5        0.0000 
     47 CA        107.4600   47.4410   -7.8210 C.3       6 GLP5        0.0000 
     48 CA        106.5885   43.6990   -7.8505 C.3       3 GLC5        0.0000 
     49 CA        104.5690   43.8880   -8.4830 C.3       6 GLP5        0.0000 
     50 CA        108.3870   43.0085   -9.2010 C.3       3 GLC5        0.0000 
     51 CA        109.7780   41.9965   -7.4350 C.3       3 GLC5        0.0000 
     52 CA        108.1620   49.7140   -0.4132 C.3       3 GLC5        0.0000 
     53 CA        108.4810   48.5730    1.3600 C.3       9 GLL5        0.0000 
     54 CA        107.2550   50.4010   -2.1420 C.3       6 GLP5        0.0000 
     55 CA        108.1445   49.9815    2.9603 C.3       3 GLC5        0.0000 
     56 CA        107.2200   50.9360    4.6050 C.3       6 GLP5        0.0000 
     57 CA        109.0127   45.1775   -1.6920 C.3       3 GLC5        0.0000 
     58 CA        107.3780   44.9730   -0.0010 C.3       9 GLL5        0.0000 
     59 CA        110.8170   45.1640   -2.6370 C.3       6 GLP5        0.0000 
     60 CA        107.3132   43.1840   -0.6300 C.3       3 GLC5        0.0000 
     61 CA        107.0390   45.4090   -1.4930 C.3       9 GLL5        0.0000 
     62 CA        107.4180   41.1770   -0.5130 C.3       6 GLP5        0.0000 
     63 CA        108.1685   39.8795   -5.7252 C.3       3 GLC5        0.0000 
     64 CA        106.9820   41.7700   -5.8180 C.3       9 GLL5        0.0000 
     65 CA        109.0100   38.2240   -5.0380 C.3       6 GLP5        0.0000 
     66 CA        105.6583   42.8555   -6.5449 C.3       3 GLC5        0.0000 
@<TRIPOS>BOND
@<TRIPOS>SUBSTRUCTURE
     1 ALC1       15 GROUP        1 X    ALC  0     ROOT ALC X 1
     2 SEC2        7 GROUP        1 X    SEC  0     **** SEC X 2
     3 GLC5        1 GROUP        1 X    GLC  0     **** GLC X 6
     4 ALP1       17 GROUP        1 Y    ALP  0     ROOT ALP Y 8
     5 SEP2        9 GROUP        1 Y    SEP  0     **** SEP Y 9
     6 GLP5        3 GROUP        1 Y    GLP  0     **** GLP Y 13
     7 ALL1       16 GROUP        1 Z    ALL  0     ROOT ALL Z 15
     8 SEL2        8 GROUP        1 Z    SEL  0     **** SEL Z 16
     9 GLL5        2 GROUP        1 Z    GLL  0     **** GLL Z 20
@<TRIPOS>SET

