#    Name: 2qrv_SAH_1_ligand
#    Modification time : Mon Mar 24 22:38:25 2014

@<TRIPOS>MOLECULE
2qrv_SAH_1_ligand
   46    48     1     0     0
SMALL
NO_CHARGES


@<TRIPOS>ATOM
      1 N         110.8860   49.1600    2.1250 N.4       1 SAH1        0.0000 
      2 CA        109.6570   49.4810    1.2710 C.3       1 SAH1        0.0000 
      3 CB        108.4810   48.5730    1.3600 C.3       1 SAH1        0.0000 
      4 CG        108.7660   47.1110    1.1180 C.3       1 SAH1        0.0000 
      5 SD        107.1770   46.3220    1.1160 S.3       1 SAH1        0.0000 
      6 C         109.2720   50.9950    1.5190 C.2       1 SAH1        0.0000 
      7 O         109.9490   51.7130    2.2820 O.co2     1 SAH1        0.0000 
      8 OXT       108.2460   51.4010    0.8740 O.co2     1 SAH1        0.0000 
      9 C5'       107.3780   44.9730   -0.0010 C.3       1 SAH1        0.0000 
     10 C4'       107.0390   45.4090   -1.4930 C.3       1 SAH1        0.0000 
     11 O4'       107.0530   44.2210   -2.2550 O.3       1 SAH1        0.0000 
     12 C3'       105.6720   45.9180   -1.7660 C.3       1 SAH1        0.0000 
     13 O3'       105.7290   47.3350   -1.9140 O.3       1 SAH1        0.0000 
     14 C2'       105.1990   45.0610   -3.0280 C.3       1 SAH1        0.0000 
     15 O2'       104.4510   45.8110   -3.9790 O.3       1 SAH1        0.0000 
     16 C1'       106.4940   44.4550   -3.5960 C.3       1 SAH1        0.0000 
     17 N9        106.4460   43.2770   -4.2340 N.pl3     1 SAH1        0.0000 
     18 C8        105.8370   42.0610   -4.0200 C.2       1 SAH1        0.0000 
     19 N7        106.1020   41.1470   -4.9010 N.2       1 SAH1        0.0000 
     20 C5        106.9820   41.7700   -5.8180 C.ar      1 SAH1        0.0000 
     21 C6        107.6720   41.3000   -7.0070 C.ar      1 SAH1        0.0000 
     22 N6        107.6020   40.0680   -7.5040 N.pl3     1 SAH1        0.0000 
     23 N1        108.4540   42.2210   -7.6520 N.ar      1 SAH1        0.0000 
     24 C2        108.6080   43.5100   -7.2180 C.ar      1 SAH1        0.0000 
     25 N3        107.9840   43.9860   -6.0810 N.ar      1 SAH1        0.0000 
     26 C4        107.1900   43.0730   -5.4330 C.ar      1 SAH1        0.0000 
     27 H         110.0221   49.4834    0.1952 H         1 SAH1        0.0000 
     28 H         107.7015   48.9066    0.6344 H         1 SAH1        0.0000 
     29 H         108.0075   48.6798    2.3649 H         1 SAH1        0.0000 
     30 H         109.2657   46.6409    1.9085 H         1 SAH1        0.0000 
     31 H         109.1368   46.9050    0.1611 H         1 SAH1        0.0000 
     32 H         106.7031   44.2334    0.3486 H         1 SAH1        0.0000 
     33 H         108.3961   44.6930    0.0982 H         1 SAH1        0.0000 
     34 H         107.7783   46.0783   -1.8345 H         1 SAH1        0.0000 
     35 H         105.0435   45.6024   -0.9394 H         1 SAH1        0.0000 
     36 H         104.6286   44.2293   -2.6021 H         1 SAH1        0.0000 
     37 H         107.0472   45.2465   -4.0163 H         1 SAH1        0.0000 
     38 H         105.2300   41.9295   -3.2168 H         1 SAH1        0.0000 
     39 H         108.0914   39.9112   -8.3619 H         1 SAH1        0.0000 
     40 H         107.0663   39.4099   -6.9750 H         1 SAH1        0.0000 
     41 H         109.2206   44.1640   -7.7644 H         1 SAH1        0.0000 
     42 H         111.1015   49.9022    2.7595 H         1 SAH1        0.0000 
     43 H         110.7517   48.3349    2.6739 H         1 SAH1        0.0000 
     44 H         111.6994   49.0091    1.5633 H         1 SAH1        0.0000 
     45 H         105.2919   47.5209   -2.7940 H         1 SAH1        0.0000 
     46 H         105.0145   45.8165   -4.8051 H         1 SAH1        0.0000 
@<TRIPOS>BOND
     1    2    1 1    
     2   42    1 1    
     3   43    1 1    
     4   44    1 1    
     5    3    2 1    
     6    6    2 1    
     7   27    2 1    
     8    4    3 1    
     9   28    3 1    
    10   29    3 1    
    11    5    4 1    
    12   30    4 1    
    13   31    4 1    
    14    9    5 1    
    15    7    6 ar   
    16    8    6 ar   
    17   10    9 1    
    18   32    9 1    
    19   33    9 1    
    20   11   10 1    
    21   12   10 1    
    22   34   10 1    
    23   16   11 1    
    24   13   12 1    
    25   14   12 1    
    26   35   12 1    
    27   45   13 1    
    28   15   14 1    
    29   16   14 1    
    30   36   14 1    
    31   46   15 1    
    32   17   16 1    
    33   37   16 1    
    34   18   17 1    
    35   26   17 1    
    36   19   18 2    
    37   38   18 1    
    38   20   19 1    
    39   21   20 ar   
    40   26   20 ar   
    41   22   21 1    
    42   23   21 ar   
    43   39   22 1    
    44   40   22 1    
    45   24   23 ar   
    46   25   24 ar   
    47   41   24 1    
    48   26   25 ar   
@<TRIPOS>SUBSTRUCTURE
     1 SAH1        1 GROUP   
@<TRIPOS>SET

