#    Name: 2v3b_FAD_1_INTS_M
#    Modification time : Tue Mar 25 00:53:35 2014

@<TRIPOS>MOLECULE
2v3b_FAD_1_INTS_M
  124     0    12     0     0
SMALL
NO_CHARGES


@<TRIPOS>ATOM
      1 NZ         -3.0170  -16.8890   -5.0930 N.4       3 LYC4        0.0000 
      2 NZ         -1.7250  -17.1720   -5.1550 N.4      11 LYL4        0.0000 
      3 NZ         -4.3090  -16.6060   -5.0310 N.4       7 LYP4        0.0000 
      4 N          -3.0170  -16.8890   -5.0930 N.am      2 SEC2        0.0000 
      5 N          -1.7250  -17.1720   -5.1550 N.am     10 SEL2        0.0000 
      6 N          -4.3090  -16.6060   -5.0310 N.am      6 SEP2        0.0000 
      7 NZ         -3.2625  -17.2160   -3.9095 N.4       3 LYC4        0.0000 
      8 NZ         -2.2160  -17.8260   -2.7880 N.4      11 LYL4        0.0000 
      9 N          -3.2625  -17.2160   -3.9095 N.am      2 SEC2        0.0000 
     10 N          -2.2160  -17.8260   -2.7880 N.am     10 SEL2        0.0000 
     11 CA          0.9090  -18.0910   -5.9915 C.3       4 GLC5        0.0000 
     12 CA          1.1710  -16.9750   -4.4100 C.3      12 GLL5        0.0000 
     13 CA          0.6470  -19.2070   -7.5730 C.3       8 GLP5        0.0000 
     14 N           3.0140  -15.5180   -0.8735 N.am      2 SEC2        0.0000 
     15 N           2.1640  -14.6000   -1.8580 N.am     10 SEL2        0.0000 
     16 N           3.8640  -16.4360    0.1110 N.am      6 SEP2        0.0000 
     17 N           3.0650  -13.4805   -1.4155 N.am      2 SEC2        0.0000 
     18 N           3.9660  -12.3610   -0.9730 N.am      6 SEP2        0.0000 
     19 O           1.0400  -14.4875   -1.1020 O.2       1 ALC1        0.0000 
     20 O           2.1640  -14.6000   -1.8580 O.2       9 ALL1        0.0000 
     21 O          -0.0840  -14.3750   -0.3460 O.2       5 ALP1        0.0000 
     22 N           2.8825  -11.0340   -2.7945 N.am      2 SEC2        0.0000 
     23 N           2.5340  -12.6070   -3.4670 N.am     10 SEL2        0.0000 
     24 N           3.2310   -9.4610   -2.1220 N.am      6 SEP2        0.0000 
     25 O           3.2500  -12.4840   -2.2200 O.2       1 ALC1        0.0000 
     26 O           2.5340  -12.6070   -3.4670 O.2       9 ALL1        0.0000 
     27 O           3.9660  -12.3610   -0.9730 O.2       5 ALP1        0.0000 
     28 CA          4.4685  -15.8740   -3.0305 C.3       4 GLC5        0.0000 
     29 CA          3.6930  -14.5620   -4.3260 C.3      12 GLL5        0.0000 
     30 CA          5.2440  -17.1860   -1.7350 C.3       8 GLP5        0.0000 
     31 CA          3.9330  -16.3745   -5.3775 C.3       4 GLC5        0.0000 
     32 CA          4.1730  -18.1870   -6.4290 C.3       8 GLP5        0.0000 
     33 CA          7.5765  -10.7375   -8.0180 C.3       4 GLC5        0.0000 
     34 CA          7.0730  -12.7660   -7.3600 C.3      12 GLL5        0.0000 
     35 CA          8.0800   -8.7090   -8.6760 C.3       8 GLP5        0.0000 
     36 CA          9.2550  -13.0365   -7.2315 C.3       4 GLC5        0.0000 
     37 CA         11.4370  -13.3070   -7.1030 C.3       8 GLP5        0.0000 
     38 O           8.8940  -12.2500   -9.0615 O.2       1 ALC1        0.0000 
     39 O           7.4840  -12.7930   -8.6350 O.2       9 ALL1        0.0000 
     40 O          10.3040  -11.7070   -9.4880 O.2       5 ALP1        0.0000 
     41 N           9.2145  -11.6955   -6.6025 N.am      2 SEC2        0.0000 
     42 N           7.9620  -12.4030   -6.3640 N.am     10 SEL2        0.0000 
     43 N          10.4670  -10.9880   -6.8410 N.am      6 SEP2        0.0000 
     44 CA          8.1410  -14.3320   -4.9410 C.3       4 GLC5        0.0000 
     45 CA          7.6700  -12.6170   -5.0290 C.3      12 GLL5        0.0000 
     46 CA          8.6120  -16.0470   -4.8530 C.3       8 GLP5        0.0000 
     47 CA          9.2020  -12.5160   -3.5640 C.3       4 GLC5        0.0000 
     48 CA         10.7340  -12.4150   -2.0990 C.3       8 GLP5        0.0000 
     49 CA          7.0260  -12.4505   -3.1785 C.3       4 GLC5        0.0000 
     50 CA          6.3820  -12.2840   -1.3280 C.3       8 GLP5        0.0000 
     51 CA          6.2565  -11.1620   -5.0595 C.3       4 GLC5        0.0000 
     52 CA          4.8430   -9.7070   -5.0900 C.3       8 GLP5        0.0000 
     53 CA          8.4340  -10.7950   -5.6820 C.3       4 GLC5        0.0000 
     54 CA          9.1980   -8.9730   -6.3350 C.3       8 GLP5        0.0000 
     55 CA          9.6875  -13.0920   -5.3280 C.3       4 GLC5        0.0000 
     56 CA         11.7050  -13.5670   -5.6270 C.3       8 GLP5        0.0000 
     57 N           5.9745  -11.9820   -3.8270 N.am      2 SEC2        0.0000 
     58 N           6.4700  -13.2010   -4.6820 N.am     10 SEL2        0.0000 
     59 N           5.4790  -10.7630   -2.9720 N.am      6 SEP2        0.0000 
     60 N          -8.4185  -26.1840   -2.4580 N.am      2 SEC2        0.0000 
     61 N          -9.7870  -26.0050   -2.2700 N.am     10 SEL2        0.0000 
     62 N          -7.0500  -26.3630   -2.6460 N.am      6 SEP2        0.0000 
     63 N         -13.7980  -21.8030   -1.3305 N.am      2 SEC2        0.0000 
     64 N         -13.1240  -23.1310   -1.3450 N.am     10 SEL2        0.0000 
     65 N         -14.4720  -20.4750   -1.3160 N.am      6 SEP2        0.0000 
     66 CA        -13.8250  -17.6595   -3.3465 C.3       4 GLC5        0.0000 
     67 CA        -12.0600  -18.9440   -3.7960 C.3      12 GLL5        0.0000 
     68 CA        -15.5900  -16.3750   -2.8970 C.3       8 GLP5        0.0000 
     69 CA        -11.7580  -18.3940   -6.4780 C.3       4 GLC5        0.0000 
     70 CA        -11.4740  -17.9510   -4.5800 C.3      12 GLL5        0.0000 
     71 CA        -12.0420  -18.8370   -8.3760 C.3       8 GLP5        0.0000 
     72 CA        -13.9005  -16.5160   -3.8240 C.3       4 GLC5        0.0000 
     73 CA        -12.2110  -16.6570   -4.7510 C.3      12 GLL5        0.0000 
     74 CA        -12.5015  -16.5560   -6.7415 C.3       4 GLC5        0.0000 
     75 CA        -12.7920  -16.4550   -8.7320 C.3       8 GLP5        0.0000 
     76 CA        -12.6875  -14.9730   -4.8990 C.3       4 GLC5        0.0000 
     77 CA        -13.1640  -13.2890   -5.0470 C.3       8 GLP5        0.0000 
     78 CA         -8.7615  -17.4975   -3.9325 C.3       4 GLC5        0.0000 
     79 CA        -10.2640  -18.1860   -5.2450 C.3      12 GLL5        0.0000 
     80 CA         -7.2590  -16.8090   -2.6200 C.3       8 GLP5        0.0000 
     81 CA         -7.9450  -17.1045   -4.8165 C.3       4 GLC5        0.0000 
     82 CA         -9.5070  -17.0180   -5.8340 C.3      12 GLL5        0.0000 
     83 CA         -6.3830  -17.1910   -3.7990 C.3       8 GLP5        0.0000 
     84 CA         -8.0150  -18.3160   -4.4580 C.3       4 GLC5        0.0000 
     85 CA         -9.6470  -19.4410   -5.1170 C.3      12 GLL5        0.0000 
     86 CA         -7.8530  -24.0610   -4.8805 C.3       4 GLC5        0.0000 
     87 CA         -8.2750  -21.9740   -4.7060 C.3      12 GLL5        0.0000 
     88 CA         -7.4310  -26.1480   -5.0550 C.3       8 GLP5        0.0000 
     89 CA         -7.2235  -23.1320   -2.0095 C.3       4 GLC5        0.0000 
     90 CA         -7.2380  -21.7850   -3.6060 C.3      12 GLL5        0.0000 
     91 CA         -7.2090  -24.4790   -0.4130 C.3       8 GLP5        0.0000 
     92 O          -4.7105  -23.1250   -5.7975 O.2       1 ALC1        0.0000 
     93 O          -5.6510  -23.0410   -4.8360 O.2       9 ALL1        0.0000 
     94 O          -3.7700  -23.2090   -6.7590 O.2       5 ALP1        0.0000 
     95 O          -4.8670  -22.0530   -5.9650 O.2       1 ALC1        0.0000 
     96 O          -4.0830  -21.0650   -7.0940 O.2       5 ALP1        0.0000 
     97 CA         -4.9710  -21.5585   -0.9840 C.3       4 GLC5        0.0000 
     98 CA         -4.7230  -21.5780   -3.2030 C.3      12 GLL5        0.0000 
     99 CA         -5.2190  -21.5390    1.2350 C.3       8 GLP5        0.0000 
    100 CA         -2.7210  -21.6600   -5.9115 C.3       4 GLC5        0.0000 
    101 CA         -3.4030  -21.3510   -3.9250 C.3      12 GLL5        0.0000 
    102 CA         -2.0390  -21.9690   -7.8980 C.3       8 GLP5        0.0000 
    103 N           0.0785  -21.4465   -1.1400 N.am      2 SEC2        0.0000 
    104 N          -0.0600  -20.4700   -2.2990 N.am     10 SEL2        0.0000 
    105 N           0.2170  -22.4230    0.0190 N.am      6 SEP2        0.0000 
    106 N          -0.5010  -22.7935   -5.5690 N.am      2 SEC2        0.0000 
    107 N          -0.3470  -21.9020   -4.3390 N.am     10 SEL2        0.0000 
    108 N          -0.6550  -23.6850   -6.7990 N.am      6 SEP2        0.0000 
    109 CA          2.9325  -17.3865   -5.2203 C.3       4 GLC5        0.0000 
    110 CA          3.5995  -16.3513   -2.5613 C.3       4 GLC5        0.0000 
    111 CA          2.2130  -16.1970   -3.6130 C.3      12 GLL5        0.0000 
    112 CA          5.5155  -15.4730   -6.7532 C.3       4 GLC5        0.0000 
    113 CA          5.8640  -13.3610   -6.9920 C.3      12 GLL5        0.0000 
    114 CA          5.3060  -17.4790   -7.1880 C.3       8 GLP5        0.0000 
    115 CA          7.3196  -14.6826   -5.6318 C.3       4 GLC5        0.0000 
    116 CA          5.4351  -11.5126   -5.7502 C.3       4 GLC5        0.0000 
    117 CA          5.5860  -13.5730   -5.6450 C.3      12 GLL5        0.0000 
    118 CA        -10.1756  -18.6478   -7.0781 C.3       4 GLC5        0.0000 
    119 CA        -10.5850  -18.7740   -8.8280 C.3       8 GLP5        0.0000 
    120 CA        -10.9539  -19.7185   -2.1346 C.3       4 GLC5        0.0000 
    121 CA        -10.2340  -20.4510   -4.3300 C.3      12 GLL5        0.0000 
    122 CA        -10.9160  -19.4290   -0.2390 C.3       8 GLP5        0.0000 
    123 CA         -2.9965  -22.9682   -2.7585 C.3       4 GLC5        0.0000 
    124 CA         -1.9300  -24.4720   -1.9530 C.3       8 GLP5        0.0000 
@<TRIPOS>BOND
@<TRIPOS>SUBSTRUCTURE
     1 ALC1       19 GROUP        1 X    ALC  0     ROOT ALC X 1
     2 SEC2        4 GROUP        1 X    SEC  0     **** SEC X 2
     3 LYC4        1 GROUP        1 X    LYC  0     **** LYC X 4
     4 GLC5       11 GROUP        1 X    GLC  0     **** GLC X 6
     5 ALP1       21 GROUP        1 Y    ALP  0     ROOT ALP Y 8
     6 SEP2        6 GROUP        1 Y    SEP  0     **** SEP Y 9
     7 LYP4        3 GROUP        1 Y    LYP  0     **** LYP Y 11
     8 GLP5       13 GROUP        1 Y    GLP  0     **** GLP Y 13
     9 ALL1       20 GROUP        1 Z    ALL  0     ROOT ALL Z 15
    10 SEL2        5 GROUP        1 Z    SEL  0     **** SEL Z 16
    11 LYL4        2 GROUP        1 Z    LYL  0     **** LYL Z 18
    12 GLL5       12 GROUP        1 Z    GLL  0     **** GLL Z 20
@<TRIPOS>SET

