#    Name: 2v3b_FAD_1_ligand
#    Modification time : Tue Mar 25 00:53:35 2014

@<TRIPOS>MOLECULE
2v3b_FAD_1_ligand
   84    89     1     0     0
SMALL
NO_CHARGES


@<TRIPOS>ATOM
      1 PA         -1.2580  -17.9240   -3.9380 P.3       1 FAD1385     0.0000 
      2 O1A        -1.7250  -17.1720   -5.1550 O.co2     1 FAD1385     0.0000 
      3 O2A        -2.2160  -17.8260   -2.7880 O.co2     1 FAD1385     0.0000 
      4 O5B         0.1700  -17.3540   -3.4900 O.3       1 FAD1385     0.0000 
      5 C5B         1.1710  -16.9750   -4.4100 C.3       1 FAD1385     0.0000 
      6 C4B         2.2130  -16.1970   -3.6130 C.3       1 FAD1385     0.0000 
      7 O4B         3.3690  -15.9400   -4.3900 O.3       1 FAD1385     0.0000 
      8 C3B         1.6970  -14.8360   -3.1620 C.3       1 FAD1385     0.0000 
      9 O3B         2.1640  -14.6000   -1.8580 O.3       1 FAD1385     0.0000 
     10 C2B         2.3760  -13.8570   -4.0900 C.3       1 FAD1385     0.0000 
     11 O2B         2.5340  -12.6070   -3.4670 O.3       1 FAD1385     0.0000 
     12 C1B         3.6930  -14.5620   -4.3260 C.3       1 FAD1385     0.0000 
     13 N9A         4.3490  -14.1610   -5.5720 N.pl3     1 FAD1385     0.0000 
     14 C8A         3.8820  -14.3090   -6.8430 C.2       1 FAD1385     0.0000 
     15 N7A         4.8080  -13.8150   -7.7010 N.2       1 FAD1385     0.0000 
     16 C5A         5.8640  -13.3610   -6.9920 C.ar      1 FAD1385     0.0000 
     17 C6A         7.0730  -12.7660   -7.3600 C.ar      1 FAD1385     0.0000 
     18 N6A         7.4840  -12.7930   -8.6350 N.pl3     1 FAD1385     0.0000 
     19 N1A         7.9620  -12.4030   -6.3640 N.ar      1 FAD1385     0.0000 
     20 C2A         7.6700  -12.6170   -5.0290 C.ar      1 FAD1385     0.0000 
     21 N3A         6.4700  -13.2010   -4.6820 N.ar      1 FAD1385     0.0000 
     22 C4A         5.5860  -13.5730   -5.6450 C.ar      1 FAD1385     0.0000 
     23 N1         -9.6890  -23.9330   -3.2200 N.2       1 FAD1385     0.0000 
     24 C2        -10.2930  -24.8860   -2.4180 C.2       1 FAD1385     0.0000 
     25 O2         -9.7870  -26.0050   -2.2700 O.2       1 FAD1385     0.0000 
     26 N3        -11.4780  -24.5990   -1.7800 N.am      1 FAD1385     0.0000 
     27 C4        -12.0620  -23.3660   -1.9270 C.2       1 FAD1385     0.0000 
     28 O4        -13.1240  -23.1310   -1.3450 O.2       1 FAD1385     0.0000 
     29 C4X       -11.4560  -22.3980   -2.7320 C.2       1 FAD1385     0.0000 
     30 N5        -12.0340  -21.1550   -2.8810 N.2       1 FAD1385     0.0000 
     31 C5X       -11.4390  -20.1860   -3.6650 C.ar      1 FAD1385     0.0000 
     32 C6        -12.0600  -18.9440   -3.7960 C.ar      1 FAD1385     0.0000 
     33 C7        -11.4740  -17.9510   -4.5800 C.ar      1 FAD1385     0.0000 
     34 C7M       -12.2110  -16.6570   -4.7510 C.3       1 FAD1385     0.0000 
     35 C8        -10.2640  -18.1860   -5.2450 C.ar      1 FAD1385     0.0000 
     36 C8M        -9.5070  -17.0180   -5.8340 C.3       1 FAD1385     0.0000 
     37 C9         -9.6470  -19.4410   -5.1170 C.ar      1 FAD1385     0.0000 
     38 C9A       -10.2340  -20.4510   -4.3300 C.ar      1 FAD1385     0.0000 
     39 N10        -9.6510  -21.7080   -4.1720 N.pl3     1 FAD1385     0.0000 
     40 C10       -10.2570  -22.6800   -3.3800 C.2       1 FAD1385     0.0000 
     41 C1'        -8.2750  -21.9740   -4.7060 C.3       1 FAD1385     0.0000 
     42 C2'        -7.2380  -21.7850   -3.6060 C.3       1 FAD1385     0.0000 
     43 O2'        -7.5080  -20.5780   -2.9220 O.3       1 FAD1385     0.0000 
     44 C3'        -5.8420  -21.7850   -4.2230 C.3       1 FAD1385     0.0000 
     45 O3'        -5.6510  -23.0410   -4.8360 O.3       1 FAD1385     0.0000 
     46 C4'        -4.7230  -21.5780   -3.2030 C.3       1 FAD1385     0.0000 
     47 O4'        -4.9960  -20.4730   -2.3700 O.3       1 FAD1385     0.0000 
     48 C5'        -3.4030  -21.3510   -3.9250 C.3       1 FAD1385     0.0000 
     49 O5'        -2.3790  -21.0790   -3.0080 O.3       1 FAD1385     0.0000 
     50 P          -0.8930  -20.7550   -3.5200 P.3       1 FAD1385     0.0000 
     51 O1P        -0.0600  -20.4700   -2.2990 O.co2     1 FAD1385     0.0000 
     52 O2P        -0.3470  -21.9020   -4.3390 O.co2     1 FAD1385     0.0000 
     53 O3P        -1.0140  -19.4440   -4.4390 O.3       1 FAD1385     0.0000 
     54 H           0.7930  -16.3223   -5.1896 H         1 FAD1385     0.0000 
     55 H           1.6660  -17.8288   -4.8604 H         1 FAD1385     0.0000 
     56 H           2.4673  -16.7608   -2.7244 H         1 FAD1385     0.0000 
     57 H           0.6718  -14.7919   -3.2810 H         1 FAD1385     0.0000 
     58 H           1.8377  -13.8419   -4.9995 H         1 FAD1385     0.0000 
     59 H           4.3310  -14.3712   -3.4795 H         1 FAD1385     0.0000 
     60 H           3.0367  -14.6990   -7.0868 H         1 FAD1385     0.0000 
     61 H           6.8997  -13.2918   -9.2751 H         1 FAD1385     0.0000 
     62 H           8.3382  -12.3118   -8.8323 H         1 FAD1385     0.0000 
     63 H           8.3434  -12.3422   -4.3028 H         1 FAD1385     0.0000 
     64 H         -11.9296  -25.3178   -1.1867 H         1 FAD1385     0.0000 
     65 H         -12.9487  -18.7611   -3.3150 H         1 FAD1385     0.0000 
     66 H          -8.7600  -19.6259   -5.6007 H         1 FAD1385     0.0000 
     67 H          -8.0543  -21.2872   -5.5228 H         1 FAD1385     0.0000 
     68 H          -8.2127  -22.9957   -5.0800 H         1 FAD1385     0.0000 
     69 H          -7.3103  -22.6420   -2.9435 H         1 FAD1385     0.0000 
     70 H          -5.7917  -20.9928   -4.9544 H         1 FAD1385     0.0000 
     71 H          -4.6270  -22.4941   -2.6269 H         1 FAD1385     0.0000 
     72 H          -3.5556  -20.5223   -4.6381 H         1 FAD1385     0.0000 
     73 H          -3.1963  -22.2538   -4.5257 H         1 FAD1385     0.0000 
     74 H         -12.3694  -16.2012   -3.8751 H         1 FAD1385     0.0000 
     75 H         -11.7059  -16.0154   -5.3282 H         1 FAD1385     0.0000 
     76 H         -13.1056  -16.7926   -5.1768 H         1 FAD1385     0.0000 
     77 H          -9.2488  -16.3519   -5.1342 H         1 FAD1385     0.0000 
     78 H          -8.6640  -17.3112   -6.2849 H         1 FAD1385     0.0000 
     79 H         -10.0502  -16.5298   -6.5171 H         1 FAD1385     0.0000 
     80 H           1.3390  -14.4876   -1.3042 H         1 FAD1385     0.0000 
     81 H           3.3828  -12.6841   -2.9439 H         1 FAD1385     0.0000 
     82 H          -6.6230  -20.2798   -2.5643 H         1 FAD1385     0.0000 
     83 H          -4.9294  -22.8918   -5.5121 H         1 FAD1385     0.0000 
     84 H          -4.1568  -19.9293   -2.3781 H         1 FAD1385     0.0000 
@<TRIPOS>BOND
     1    2    1 ar   
     2    3    1 ar   
     3    4    1 1    
     4   53    1 1    
     5    5    4 1    
     6    6    5 1    
     7   54    5 1    
     8   55    5 1    
     9    7    6 1    
    10    8    6 1    
    11   56    6 1    
    12   12    7 1    
    13    9    8 1    
    14   10    8 1    
    15   57    8 1    
    16   80    9 1    
    17   11   10 1    
    18   12   10 1    
    19   58   10 1    
    20   81   11 1    
    21   13   12 1    
    22   59   12 1    
    23   14   13 1    
    24   22   13 1    
    25   15   14 2    
    26   60   14 1    
    27   16   15 1    
    28   17   16 ar   
    29   22   16 ar   
    30   18   17 1    
    31   19   17 ar   
    32   61   18 1    
    33   62   18 1    
    34   20   19 ar   
    35   21   20 ar   
    36   63   20 1    
    37   22   21 ar   
    38   24   23 1    
    39   40   23 2    
    40   25   24 2    
    41   26   24 am   
    42   27   26 am   
    43   64   26 1    
    44   28   27 2    
    45   29   27 1    
    46   30   29 2    
    47   40   29 1    
    48   31   30 1    
    49   32   31 ar   
    50   38   31 ar   
    51   33   32 ar   
    52   65   32 1    
    53   34   33 1    
    54   35   33 ar   
    55   74   34 1    
    56   75   34 1    
    57   76   34 1    
    58   36   35 1    
    59   37   35 ar   
    60   77   36 1    
    61   78   36 1    
    62   79   36 1    
    63   38   37 ar   
    64   66   37 1    
    65   39   38 1    
    66   40   39 1    
    67   41   39 1    
    68   42   41 1    
    69   67   41 1    
    70   68   41 1    
    71   43   42 1    
    72   44   42 1    
    73   69   42 1    
    74   82   43 1    
    75   45   44 1    
    76   46   44 1    
    77   70   44 1    
    78   83   45 1    
    79   47   46 1    
    80   48   46 1    
    81   71   46 1    
    82   84   47 1    
    83   49   48 1    
    84   72   48 1    
    85   73   48 1    
    86   50   49 1    
    87   51   50 ar   
    88   52   50 ar   
    89   53   50 1    
@<TRIPOS>SUBSTRUCTURE
     1 FAD1385     1 GROUP   
@<TRIPOS>SET

