#    Name: 3rkb_12Z_1_INTS_M
#    Modification time : Tue Mar 25 11:36:11 2014

@<TRIPOS>MOLECULE
3rkb_12Z_1_INTS_M
   55     0     9     0     0
SMALL
NO_CHARGES


@<TRIPOS>ATOM
      1 N         -91.2020  -47.0765  -51.4870 N.am      2 SEC2        0.0000 
      2 N         -92.3210  -46.4070  -50.3590 N.am      8 SEL2        0.0000 
      3 N         -90.0830  -47.7460  -52.6150 N.am      5 SEP2        0.0000 
      4 CA        -93.4215  -46.0720  -46.8800 C.3       3 GLC5        0.0000 
      5 CA        -93.0280  -45.1410  -48.2220 C.3       9 GLL5        0.0000 
      6 CA        -93.8150  -47.0030  -45.5380 C.3       6 GLP5        0.0000 
      7 CA        -94.9825  -45.9990  -47.5370 C.3       3 GLC5        0.0000 
      8 CA        -96.9370  -46.8570  -46.8520 C.3       6 GLP5        0.0000 
      9 CA        -92.1985  -44.0530  -49.7685 C.3       3 GLC5        0.0000 
     10 CA        -91.3690  -42.9650  -51.3150 C.3       6 GLP5        0.0000 
     11 O         -93.6695  -46.2830  -53.1930 O.2       1 ALC1        0.0000 
     12 O         -93.8170  -45.5820  -52.0490 O.2       7 ALL1        0.0000 
     13 O         -93.5220  -46.9840  -54.3370 O.2       4 ALP1        0.0000 
     14 O         -89.9820  -47.3150  -49.3770 O.2       1 ALC1        0.0000 
     15 O         -91.0150  -46.9460  -48.4550 O.2       7 ALL1        0.0000 
     16 O         -88.9490  -47.6840  -50.2990 O.2       4 ALP1        0.0000 
     17 CA        -97.1395  -43.1475  -46.1275 C.3       3 GLC5        0.0000 
     18 CA        -96.0460  -41.2670  -46.5090 C.3       9 GLL5        0.0000 
     19 CA        -98.2330  -45.0280  -45.7460 C.3       6 GLP5        0.0000 
     20 CA        -97.4530  -43.8835  -47.0040 C.3       3 GLC5        0.0000 
     21 CA        -96.6730  -42.7390  -48.2620 C.3       9 GLL5        0.0000 
     22 CA        -98.9065  -42.9730  -48.1575 C.3       3 GLC5        0.0000 
     23 CA       -101.1400  -43.2070  -48.0530 C.3       6 GLP5        0.0000 
     24 CA        -96.7870  -40.7145  -48.5085 C.3       3 GLC5        0.0000 
     25 CA        -96.9010  -38.6900  -48.7550 C.3       6 GLP5        0.0000 
     26 CA        -92.1915  -42.1955  -48.5975 C.3       3 GLC5        0.0000 
     27 CA        -94.2910  -42.2460  -47.9100 C.3       9 GLL5        0.0000 
     28 CA        -90.0920  -42.1450  -49.2850 C.3       6 GLP5        0.0000 
     29 CA        -89.8570  -43.8835  -48.1165 C.3       3 GLC5        0.0000 
     30 CA        -89.6220  -45.6220  -46.9480 C.3       9 GLL5        0.0000 
     31 CA        -92.1795  -46.9445  -46.3175 C.3       3 GLC5        0.0000 
     32 CA        -90.5440  -46.8860  -47.0970 C.3       9 GLL5        0.0000 
     33 CA        -90.8590  -48.7080  -48.1135 C.3       3 GLC5        0.0000 
     34 CA        -91.1740  -50.5300  -49.1300 C.3       6 GLP5        0.0000 
     35 CA        -91.6400  -48.8160  -46.3175 C.3       3 GLC5        0.0000 
     36 CA        -89.7510  -48.1660  -46.7100 C.3       9 GLL5        0.0000 
     37 CA        -93.5290  -49.4660  -45.9250 C.3       6 GLP5        0.0000 
     38 CA        -89.7970  -49.5375  -47.9265 C.3       3 GLC5        0.0000 
     39 CA        -89.8430  -50.9090  -49.1430 C.3       6 GLP5        0.0000 
     40 CA        -94.5920  -46.6670  -50.4883 C.3       3 GLC5        0.0000 
     41 CA        -93.8840  -44.8330  -49.7350 C.3       9 GLL5        0.0000 
     42 CA        -95.5550  -48.1230  -50.7370 C.3       6 GLP5        0.0000 
     43 CA        -92.4990  -44.0880  -50.7772 C.3       3 GLC5        0.0000 
     44 CA        -93.3740  -45.5890  -50.7440 C.3       9 GLL5        0.0000 
     45 CA        -94.2640  -41.4175  -49.9722 C.3       3 GLC5        0.0000 
     46 CA        -93.7280  -40.2390  -51.6600 C.3       6 GLP5        0.0000 
     47 CA        -95.8609  -40.2396  -48.0211 C.3       3 GLC5        0.0000 
     48 CA        -88.6605  -43.5547  -46.3585 C.3       3 GLC5        0.0000 
     49 CA        -87.9780  -41.5500  -46.4880 C.3       6 GLP5        0.0000 
     50 CA        -88.1275  -45.4685  -43.5913 C.3       3 GLC5        0.0000 
     51 CA        -89.0640  -45.4970  -45.5100 C.3       9 GLL5        0.0000 
     52 CA        -87.5550  -44.7870  -41.8950 C.3       6 GLP5        0.0000 
     53 CA        -87.1743  -45.7601  -46.8085 C.3       3 GLC5        0.0000 
     54 CA        -88.3360  -46.8030  -45.0650 C.3       9 GLL5        0.0000 
     55 CA        -85.5090  -45.3390  -47.9700 C.3       6 GLP5        0.0000 
@<TRIPOS>BOND
@<TRIPOS>SUBSTRUCTURE
     1 ALC1       11 GROUP        1 X    ALC  0     ROOT ALC X 1
     2 SEC2        1 GROUP        1 X    SEC  0     **** SEC X 2
     3 GLC5        4 GROUP        1 X    GLC  0     **** GLC X 6
     4 ALP1       13 GROUP        1 Y    ALP  0     ROOT ALP Y 8
     5 SEP2        3 GROUP        1 Y    SEP  0     **** SEP Y 9
     6 GLP5        6 GROUP        1 Y    GLP  0     **** GLP Y 13
     7 ALL1       12 GROUP        1 Z    ALL  0     ROOT ALL Z 15
     8 SEL2        2 GROUP        1 Z    SEL  0     **** SEL Z 16
     9 GLL5        5 GROUP        1 Z    GLL  0     **** GLL Z 20
@<TRIPOS>SET

