#    Name: 3rkb_12Z_1_ligand
#    Modification time : Tue Mar 25 11:36:11 2014

@<TRIPOS>MOLECULE
3rkb_12Z_1_ligand
   39    41     1     0     0
SMALL
NO_CHARGES


@<TRIPOS>ATOM
      1 C1        -93.8840  -44.8330  -49.7350 C.2       1 12Z457      0.0000 
      2 C2        -93.3740  -45.5890  -50.7440 C.2       1 12Z457      0.0000 
      3 N3        -92.3210  -46.4070  -50.3590 N.2       1 12Z457      0.0000 
      4 C4        -92.0240  -46.2780  -49.0780 C.2       1 12Z457      0.0000 
      5 S5        -93.0280  -45.1410  -48.2220 S.3       1 12Z457      0.0000 
      6 C6        -95.0020  -43.8540  -49.8160 C.2       1 12Z457      0.0000 
      7 N7        -93.8170  -45.5820  -52.0490 N.pl3     1 12Z457      0.0000 
      8 N8        -91.0150  -46.9460  -48.4550 N.pl3     1 12Z457      0.0000 
      9 O9        -95.6690  -43.7890  -50.8710 O.2       1 12Z457      0.0000 
     10 C10       -96.0460  -41.2670  -46.5090 C.ar      1 12Z457      0.0000 
     11 N11       -97.0290  -41.9190  -47.2130 N.ar      1 12Z457      0.0000 
     12 C12       -96.6730  -42.7390  -48.2620 C.ar      1 12Z457      0.0000 
     13 C13       -95.3090  -42.9460  -48.6590 C.ar      1 12Z457      0.0000 
     14 C14       -94.2910  -42.2460  -47.9100 C.ar      1 12Z457      0.0000 
     15 C15       -94.6550  -41.3980  -46.8200 C.ar      1 12Z457      0.0000 
     16 C16       -89.0640  -45.4970  -45.5100 C.3       1 12Z457      0.0000 
     17 C17       -89.6220  -45.6220  -46.9480 C.3       1 12Z457      0.0000 
     18 C18       -90.5440  -46.8860  -47.0970 C.3       1 12Z457      0.0000 
     19 C19       -89.7510  -48.1660  -46.7100 C.3       1 12Z457      0.0000 
     20 C20       -89.2370  -48.0590  -45.2460 C.3       1 12Z457      0.0000 
     21 C21       -88.3360  -46.8030  -45.0650 C.3       1 12Z457      0.0000 
     22 H         -93.3585  -46.2150  -52.6727 H         1 12Z457      0.0000 
     23 H         -94.5584  -44.9445  -52.2586 H         1 12Z457      0.0000 
     24 H         -90.4457  -47.6612  -49.0746 H         1 12Z457      0.0000 
     25 H         -96.2993  -40.6447  -45.7099 H         1 12Z457      0.0000 
     26 H         -97.4083  -43.2411  -48.8055 H         1 12Z457      0.0000 
     27 H         -93.3156  -42.3621  -48.1651 H         1 12Z457      0.0000 
     28 H         -93.9610  -40.9105  -46.2899 H         1 12Z457      0.0000 
     29 H         -89.8829  -45.3029  -44.8240 H         1 12Z457      0.0000 
     30 H         -88.3579  -44.6731  -45.4705 H         1 12Z457      0.0000 
     31 H         -88.7988  -45.7127  -47.6478 H         1 12Z457      0.0000 
     32 H         -90.2065  -44.7404  -47.1861 H         1 12Z457      0.0000 
     33 H         -91.3550  -46.7669  -46.4002 H         1 12Z457      0.0000 
     34 H         -88.9057  -48.2727  -47.3742 H         1 12Z457      0.0000 
     35 H         -90.4018  -49.0242  -46.7940 H         1 12Z457      0.0000 
     36 H         -88.6603  -48.9441  -45.0082 H         1 12Z457      0.0000 
     37 H         -90.0858  -47.9835  -44.5779 H         1 12Z457      0.0000 
     38 H         -88.0617  -46.7125  -44.0176 H         1 12Z457      0.0000 
     39 H         -87.4362  -46.9242  -45.6619 H         1 12Z457      0.0000 
@<TRIPOS>BOND
     1    2    1 2    
     2    5    1 1    
     3    6    1 1    
     4    3    2 1    
     5    7    2 1    
     6    4    3 2    
     7    5    4 1    
     8    8    4 1    
     9    9    6 2    
    10   13    6 1    
    11   22    7 1    
    12   23    7 1    
    13   18    8 1    
    14   24    8 1    
    15   11   10 ar   
    16   15   10 ar   
    17   25   10 1    
    18   12   11 ar   
    19   13   12 ar   
    20   26   12 1    
    21   14   13 ar   
    22   15   14 ar   
    23   27   14 1    
    24   28   15 1    
    25   17   16 1    
    26   21   16 1    
    27   29   16 1    
    28   30   16 1    
    29   18   17 1    
    30   31   17 1    
    31   32   17 1    
    32   19   18 1    
    33   33   18 1    
    34   20   19 1    
    35   34   19 1    
    36   35   19 1    
    37   21   20 1    
    38   36   20 1    
    39   37   20 1    
    40   38   21 1    
    41   39   21 1    
@<TRIPOS>SUBSTRUCTURE
     1 12Z457      1 GROUP   
@<TRIPOS>SET

