#    Name: 4DUM_1_CAVITY_N1_6.mol2
#    Modification time : Mon Mar 10 15:03:37 2014

@<TRIPOS>MOLECULE
4DUM_1_CAVITY_N1_6.mol2
   97     0     6     0     0
SMALL
NO_CHARGES


@<TRIPOS>ATOM
      1 CZ         -2.5713   -2.6508  -24.2762 C.ar      4 PHE5        0.0000 
      2 CZ         -1.9401   -2.0141  -25.4787 C.ar      4 PHE5        0.0000 
      3 NZ         -3.2879   -1.9040  -26.1279 N.2       3 LYS4        0.0000 
      4 CZ         -0.7796   -0.7705  -24.2111 C.ar      4 PHE5        0.0000 
      5 CZ         -2.1274   -0.6604  -24.8603 C.ar      4 PHE5        0.0000 
      6 CZ         -1.4962   -0.0237  -26.0628 C.ar      4 PHE5        0.0000 
      7 NZ         -3.4752   -0.5503  -25.5094 N.2       3 LYS4        0.0000 
      8 CZ         -2.8439    0.0864  -26.7120 C.ar      4 PHE5        0.0000 
      9 O           2.3598    0.9997  -23.4969 O.2       1 ALA2        0.0000 
     10 DU          2.9910    1.6365  -24.6994 H         6 CUB7        0.0000 
     11 CZ          3.6223    2.2732  -25.9020 C.ar      4 PHE5        0.0000 
     12 CZ          1.0121    1.1098  -24.1460 C.ar      4 PHE5        0.0000 
     13 CZ          1.6433    1.7466  -25.3486 C.ar      4 PHE5        0.0000 
     14 CZ          2.2745    2.3833  -26.5511 C.ar      4 PHE5        0.0000 
     15 CZ          2.9057    3.0201  -27.7537 C.ar      4 PHE5        0.0000 
     16 CZ         -0.3357    1.2199  -24.7952 C.ar      4 PHE5        0.0000 
     17 CZ         -2.3147    0.6933  -24.2418 C.ar      4 PHE5        0.0000 
     18 CZ         -1.6835    1.3300  -25.4444 C.ar      4 PHE5        0.0000 
     19 NZ         -3.6625    0.8034  -24.8910 N.2       3 LYS4        0.0000 
     20 CZ         -3.0312    1.4401  -26.0935 C.ar      4 PHE5        0.0000 
     21 O           4.2368    1.4965  -20.3776 O.2       1 ALA2        0.0000 
     22 O           2.8890    1.6066  -21.0267 O.2       1 ALA2        0.0000 
     23 O           3.5203    2.2433  -22.2293 O.2       1 ALA2        0.0000 
     24 O           4.1515    2.8801  -23.4318 O.2       1 ALA2        0.0000 
     25 DU          4.7827    3.5168  -24.6343 H         6 CUB7        0.0000 
     26 DU          5.4140    4.1535  -25.8369 H         6 CUB7        0.0000 
     27 O           2.1725    2.3534  -22.8784 O.2       1 ALA2        0.0000 
     28 DU          2.8037    2.9901  -24.0810 H         6 CUB7        0.0000 
     29 DU          3.4350    3.6269  -25.2835 H         6 CUB7        0.0000 
     30 DU          4.0662    4.2636  -26.4861 H         6 CUB7        0.0000 
     31 CA          4.6974    4.9004  -27.6886 C.3       5 GLY6        0.0000 
     32 CZ          0.8247    2.4635  -23.5276 C.ar      4 PHE5        0.0000 
     33 CZ          1.4560    3.1002  -24.7301 C.ar      4 PHE5        0.0000 
     34 CZ          2.0872    3.7370  -25.9327 C.ar      4 PHE5        0.0000 
     35 CZ          2.7184    4.3737  -27.1352 C.ar      4 PHE5        0.0000 
     36 CZ         -0.5230    2.5736  -24.1768 C.ar      4 PHE5        0.0000 
     37 CZ          0.1082    3.2103  -25.3793 C.ar      4 PHE5        0.0000 
     38 CZ         -2.5020    2.0469  -23.6234 C.ar      4 PHE5        0.0000 
     39 CZ         -1.8708    2.6837  -24.8259 C.ar      4 PHE5        0.0000 
     40 O          -3.2185    2.7938  -25.4751 O.2       1 ALA2        0.0000 
     41 O           5.9432    4.7604  -23.3667 O.2       1 ALA2        0.0000 
     42 OD1         6.5744    5.3971  -24.5693 O.3       2 ASP3        0.0000 
     43 OD1         7.2057    6.0339  -25.7718 O.3       2 ASP3        0.0000 
     44 NZ          2.0705    2.3235  -19.2057 N.2       3 LYS4        0.0000 
     45 NZ          2.7017    2.9602  -20.4083 N.2       3 LYS4        0.0000 
     46 O           3.3330    3.5970  -21.6108 O.2       1 ALA2        0.0000 
     47 N           3.9642    4.2337  -22.8134 N.2       1 ALA2        0.0000 
     48 DU          4.5954    4.8705  -24.0159 H         6 CUB7        0.0000 
     49 O           5.2267    5.5072  -25.2184 O.2       1 ALA2        0.0000 
     50 O           5.8579    6.1440  -26.4210 O.2       1 ALA2        0.0000 
     51 CZ          0.7227    2.4336  -19.8549 C.ar      4 PHE5        0.0000 
     52 CZ          1.3540    3.0703  -21.0574 C.ar      4 PHE5        0.0000 
     53 DU          1.9852    3.7071  -22.2600 H         6 CUB7        0.0000 
     54 DU          2.6164    4.3438  -23.4625 H         6 CUB7        0.0000 
     55 O           3.2477    4.9806  -24.6651 O.2       1 ALA2        0.0000 
     56 O           3.8789    5.6173  -25.8676 O.2       1 ALA2        0.0000 
     57 CZ          0.0062    3.1804  -21.7066 C.ar      4 PHE5        0.0000 
     58 CZ          0.6374    3.8172  -22.9091 C.ar      4 PHE5        0.0000 
     59 DU          1.2687    4.4539  -24.1117 H         6 CUB7        0.0000 
     60 CZ          1.8999    5.0907  -25.3142 C.ar      4 PHE5        0.0000 
     61 CZ         -1.3415    3.2905  -22.3558 C.ar      4 PHE5        0.0000 
     62 CZ         -0.7103    3.9273  -23.5583 C.ar      4 PHE5        0.0000 
     63 CZ         -0.0791    4.5640  -24.7609 C.ar      4 PHE5        0.0000 
     64 CZ          0.5521    5.2008  -25.9634 C.ar      4 PHE5        0.0000 
     65 CA         -2.6893    3.4006  -23.0049 C.3       5 GLY6        0.0000 
     66 CZ         -2.0581    4.0374  -24.2075 C.ar      4 PHE5        0.0000 
     67 O          -1.4268    4.6741  -25.4100 O.2       1 ALA2        0.0000 
     68 O           6.3871    6.7508  -23.9508 O.2       1 ALA2        0.0000 
     69 NZ          2.5144    4.3139  -19.7898 N.2       3 LYS4        0.0000 
     70 N           3.7769    5.5874  -22.1949 N.2       1 ALA2        0.0000 
     71 O           4.4081    6.2241  -23.3974 O.2       1 ALA2        0.0000 
     72 O           5.0394    6.8609  -24.6000 O.2       1 ALA2        0.0000 
     73 CA         -0.0958    3.1505  -18.0339 C.3       5 GLY6        0.0000 
     74 NZ          0.5354    3.7873  -19.2364 N.2       3 LYS4        0.0000 
     75 NZ          1.1667    4.4240  -20.4390 N.2       3 LYS4        0.0000 
     76 N           1.7979    5.0608  -21.6415 N.2       1 ALA2        0.0000 
     77 N           2.4291    5.6975  -22.8441 N.2       1 ALA2        0.0000 
     78 O           3.0604    6.3342  -24.0466 O.2       1 ALA2        0.0000 
     79 CZ         -0.8123    3.8974  -19.8856 C.ar      4 PHE5        0.0000 
     80 CZ         -0.1811    4.5341  -21.0882 C.ar      4 PHE5        0.0000 
     81 CZ          0.4501    5.1709  -22.2907 C.ar      4 PHE5        0.0000 
     82 CZ          1.0814    5.8076  -23.4932 C.ar      4 PHE5        0.0000 
     83 O           1.7126    6.4443  -24.6958 O.2       1 ALA2        0.0000 
     84 N          -1.5289    4.6442  -21.7373 N.2       1 ALA2        0.0000 
     85 CZ         -0.8976    5.2809  -22.9399 C.ar      4 PHE5        0.0000 
     86 CA          1.0647    4.3941  -16.7663 C.3       5 GLY6        0.0000 
     87 CA         -0.2831    4.5042  -17.4155 C.3       5 GLY6        0.0000 
     88 CA          0.3481    5.1409  -18.6180 C.3       5 GLY6        0.0000 
     89 CA          0.9794    5.7777  -19.8205 C.3       5 GLY6        0.0000 
     90 CA          2.2418    7.0512  -22.2256 C.3       5 GLY6        0.0000 
     91 O           2.8731    7.6879  -23.4282 O.2       1 ALA2        0.0000 
     92 CA         -1.6309    4.6143  -18.0646 C.3       5 GLY6        0.0000 
     93 N          -0.9996    5.2510  -19.2672 N.2       1 ALA2        0.0000 
     94 CA         -0.3684    5.8878  -20.4697 C.3       5 GLY6        0.0000 
     95 CA          0.2628    6.5245  -21.6722 C.3       5 GLY6        0.0000 
     96 CZ          0.8941    7.1613  -22.8748 C.ar      4 PHE5        0.0000 
     97 O           1.5253    7.7980  -24.0773 O.2       1 ALA2        0.0000 
@<TRIPOS>BOND
@<TRIPOS>SUBSTRUCTURE
     1 ALA2        9 GROUP   
     2 ASP3       42 GROUP   
     3 LYS4        3 GROUP   
     4 PHE5        1 GROUP   
     5 GLY6       31 GROUP   
     6 CUB7       10 GROUP   
@<TRIPOS>SET

