#    Name: 4dum_HLI_1_INTS_M
#    Modification time : Tue Mar 25 10:13:30 2014

@<TRIPOS>MOLECULE
4dum_HLI_1_INTS_M
   47     0    12     0     0
SMALL
NO_CHARGES


@<TRIPOS>ATOM
      1 N          -4.1330    3.7240  -25.3175 N.am      2 SEC2        0.0000 
      2 N          -3.0750    2.9530  -24.8790 N.am     10 SEL2        0.0000 
      3 N          -5.1910    4.4950  -25.7560 N.am      6 SEP2        0.0000 
      4 NZ          8.0455    5.6790  -24.1840 N.4       3 LYC4        0.0000 
      5 NZ          6.7670    4.7860  -23.9700 N.4      11 LYL4        0.0000 
      6 NZ          9.3240    6.5720  -24.3980 N.4       7 LYP4        0.0000 
      7 N           8.0455    5.6790  -24.1840 N.am      2 SEC2        0.0000 
      8 N           6.7670    4.7860  -23.9700 N.am     10 SEL2        0.0000 
      9 N           9.3240    6.5720  -24.3980 N.am      6 SEP2        0.0000 
     10 O          -4.7660    1.0040  -25.6880 O.2       1 ALC1        0.0000 
     11 O          -3.5070    0.6960  -25.1880 O.2       9 ALL1        0.0000 
     12 O          -6.0250    1.3120  -26.1880 O.2       5 ALP1        0.0000 
     13 O          -4.8100   -0.0825  -25.5300 O.2       1 ALC1        0.0000 
     14 O          -6.1130   -0.8610  -25.8720 O.2       5 ALP1        0.0000 
     15 NZ          6.8215    2.8415  -21.9000 N.4       3 LYC4        0.0000 
     16 NZ          7.2840    2.3050  -23.4910 N.4      11 LYL4        0.0000 
     17 NZ          7.5390    3.4020  -19.6860 N.4       7 LYP4        0.0000 
     18 N           6.8215    2.8415  -21.9000 N.am      2 SEC2        0.0000 
     19 N           7.2840    2.3050  -23.4910 N.am     10 SEL2        0.0000 
     20 N           6.3590    3.3780  -20.3090 N.am      6 SEP2        0.0000 
     21 CA         -0.6860    4.0695  -26.3235 C.3       4 GLC5        0.0000 
     22 CA         -0.3840    3.8590  -24.6110 C.3      12 GLL5        0.0000 
     23 CA         -0.9880    4.2800  -28.0360 C.3       8 GLP5        0.0000 
     24 CA         -2.9685    5.7550  -19.0565 C.3       4 GLC5        0.0000 
     25 CA         -0.9800    5.0900  -19.1750 C.3      12 GLL5        0.0000 
     26 CA         -4.9570    6.4200  -18.9380 C.3       8 GLP5        0.0000 
     27 CA         -0.6950    2.4162  -22.6470 C.3       4 GLC5        0.0000 
     28 CA         -0.7240    4.2280  -23.1750 C.3      12 GLL5        0.0000 
     29 CA         -0.8360    0.7890  -21.4010 C.3       8 GLP5        0.0000 
     30 CA         -1.5675    5.5827  -24.2075 C.3       4 GLC5        0.0000 
     31 CA         -2.5810    7.1220  -24.5220 C.3       8 GLP5        0.0000 
     32 CA         -1.7902    3.6812  -18.5750 C.3       4 GLC5        0.0000 
     33 CA         -2.6690    2.3770  -17.2880 C.3       8 GLP5        0.0000 
     34 CA         -0.5527    7.0142  -19.9850 C.3       4 GLC5        0.0000 
     35 CA         -0.1940    9.0430  -20.1080 C.3       8 GLP5        0.0000 
     36 CA         -0.9501    6.7821  -17.5314 C.3       4 GLC5        0.0000 
     37 CA         -1.3770    8.6190  -16.7590 C.3       8 GLP5        0.0000 
     38 CA          1.3355    6.2995  -19.0272 C.3       4 GLC5        0.0000 
     39 CA          0.0180    4.6660  -18.2900 C.3      12 GLL5        0.0000 
     40 CA          2.0840    8.2470  -19.5070 C.3       8 GLP5        0.0000 
     41 CA          1.0139    3.0616  -16.9184 C.3       4 GLC5        0.0000 
     42 CA          1.4830    1.7040  -15.7180 C.3       8 GLP5        0.0000 
     43 CA         -1.0621    3.3981  -17.7034 C.3       4 GLC5        0.0000 
     44 CA          1.1560    4.0380  -18.8050 C.3      12 GLL5        0.0000 
     45 CA          2.0404    4.7816  -17.2759 C.3       4 GLC5        0.0000 
     46 CA         -0.1510    4.9350  -16.5750 C.3      12 GLL5        0.0000 
     47 CA          3.5360    5.1440  -16.4330 C.3       8 GLP5        0.0000 
@<TRIPOS>BOND
@<TRIPOS>SUBSTRUCTURE
     1 ALC1       10 GROUP        1 X    ALC  0     ROOT ALC X 1
     2 SEC2        1 GROUP        1 X    SEC  0     **** SEC X 2
     3 LYC4        4 GROUP        1 X    LYC  0     **** LYC X 4
     4 GLC5       21 GROUP        1 X    GLC  0     **** GLC X 6
     5 ALP1       12 GROUP        1 Y    ALP  0     ROOT ALP Y 8
     6 SEP2        3 GROUP        1 Y    SEP  0     **** SEP Y 9
     7 LYP4        6 GROUP        1 Y    LYP  0     **** LYP Y 11
     8 GLP5       23 GROUP        1 Y    GLP  0     **** GLP Y 13
     9 ALL1       11 GROUP        1 Z    ALL  0     ROOT ALL Z 15
    10 SEL2        2 GROUP        1 Z    SEL  0     **** SEL Z 16
    11 LYL4        5 GROUP        1 Z    LYL  0     **** LYL Z 18
    12 GLL5       22 GROUP        1 Z    GLL  0     **** GLL Z 20
@<TRIPOS>SET

