#    Name: 4dum_HLI_1_ligand
#    Modification time : Tue Mar 25 10:13:30 2014

@<TRIPOS>MOLECULE
4dum_HLI_1_ligand
   49    52     1     0     0
SMALL
NO_CHARGES


@<TRIPOS>ATOM
      1 C1         -0.7240    4.2280  -23.1750 C.3       1 HLI1001     0.0000 
      2 N1          0.5040    0.4000  -25.0040 N.2       1 HLI1001     0.0000 
      3 O1         -3.0750    2.9530  -24.8790 O.2       1 HLI1001     0.0000 
      4 P1          6.4800    3.3990  -24.4070 P.3       1 HLI1001     0.0000 
      5 CL1        -0.1510    4.9350  -16.5750 Cl        1 HLI1001     0.0000 
      6 C2         -1.3040    1.5810  -24.9480 C.2       1 HLI1001     0.0000 
      7 N2         -0.2710    2.3890  -24.7800 N.pl3     1 HLI1001     0.0000 
      8 O2          6.7670    4.7860  -23.9700 O.co2     1 HLI1001     0.0000 
      9 C3         -0.8060    0.3030  -25.0880 C.2       1 HLI1001     0.0000 
     10 N3         -3.5070    0.6960  -25.1880 N.am      1 HLI1001     0.0000 
     11 O3          7.1170    3.2800  -25.8450 O.co2     1 HLI1001     0.0000 
     12 C4          0.8480    1.6630  -24.8150 C.2       1 HLI1001     0.0000 
     13 N4         -1.6080   -0.7520  -25.2650 N.2       1 HLI1001     0.0000 
     14 O4          7.2840    2.3050  -23.4910 O.co2     1 HLI1001     0.0000 
     15 C5         -2.9520   -0.6040  -25.3240 C.2       1 HLI1001     0.0000 
     16 N5         -3.7470   -1.6810  -25.5120 N.pl3     1 HLI1001     0.0000 
     17 O5          0.4600    4.0380  -22.3970 O.3       1 HLI1001     0.0000 
     18 C6         -2.6590    1.8010  -24.9970 C.2       1 HLI1001     0.0000 
     19 C7          2.1630    2.0770  -24.7050 C.ar      1 HLI1001     0.0000 
     20 C8         -0.3840    3.8590  -24.6110 C.3       1 HLI1001     0.0000 
     21 C9          3.0860    1.2580  -24.0500 C.ar      1 HLI1001     0.0000 
     22 C10         4.4200    1.6670  -23.9560 C.ar      1 HLI1001     0.0000 
     23 C11         4.8020    2.8770  -24.5280 C.ar      1 HLI1001     0.0000 
     24 C12         3.9000    3.7020  -25.1960 C.ar      1 HLI1001     0.0000 
     25 C13         2.5720    3.2850  -25.2950 C.ar      1 HLI1001     0.0000 
     26 C14        -3.7650   -2.3710  -26.8260 C.3       1 HLI1001     0.0000 
     27 C15         0.2940    4.2490  -21.0580 C.ar      1 HLI1001     0.0000 
     28 C16        -0.8430    4.8810  -20.5490 C.ar      1 HLI1001     0.0000 
     29 C17        -0.9800    5.0900  -19.1750 C.ar      1 HLI1001     0.0000 
     30 C18         0.0180    4.6660  -18.2900 C.ar      1 HLI1001     0.0000 
     31 C19         1.1560    4.0380  -18.8050 C.ar      1 HLI1001     0.0000 
     32 C20         1.2970    3.8340  -20.1790 C.ar      1 HLI1001     0.0000 
     33 H          -1.0570    5.2621  -23.1606 H         1 HLI1001     0.0000 
     34 H          -1.5348    3.5855  -22.8429 H         1 HLI1001     0.0000 
     35 H          -4.5178    0.8210  -25.2296 H         1 HLI1001     0.0000 
     36 H          -4.3561   -2.0649  -24.7878 H         1 HLI1001     0.0000 
     37 H           0.5611    4.3442  -24.8836 H         1 HLI1001     0.0000 
     38 H          -1.1660    4.2559  -25.2698 H         1 HLI1001     0.0000 
     39 H           2.7900    0.3690  -23.6435 H         1 HLI1001     0.0000 
     40 H           5.1039    1.0823  -23.4725 H         1 HLI1001     0.0000 
     41 H           4.1996    4.5832  -25.6004 H         1 HLI1001     0.0000 
     42 H           1.8875    3.8602  -25.8002 H         1 HLI1001     0.0000 
     43 H          -1.5841    5.1944  -21.1905 H         1 HLI1001     0.0000 
     44 H          -1.8198    5.5588  -18.8094 H         1 HLI1001     0.0000 
     45 H           1.8983    3.7226  -18.1629 H         1 HLI1001     0.0000 
     46 H           2.1417    3.3769  -20.5451 H         1 HLI1001     0.0000 
     47 H          -2.8613   -2.7195  -27.0749 H         1 HLI1001     0.0000 
     48 H          -4.3906   -3.1512  -26.8273 H         1 HLI1001     0.0000 
     49 H          -4.0566   -1.7603  -27.5622 H         1 HLI1001     0.0000 
@<TRIPOS>BOND
     1   17    1 1    
     2   20    1 1    
     3   33    1 1    
     4   34    1 1    
     5    9    2 1    
     6   12    2 2    
     7   18    3 2    
     8    8    4 ar   
     9   11    4 ar   
    10   14    4 ar   
    11   23    4 1    
    12   30    5 1    
    13    7    6 1    
    14    9    6 2    
    15   18    6 1    
    16   12    7 1    
    17   20    7 1    
    18   13    9 1    
    19   15   10 1    
    20   18   10 am   
    21   35   10 1    
    22   19   12 1    
    23   15   13 2    
    24   16   15 1    
    25   26   16 1    
    26   36   16 1    
    27   27   17 1    
    28   21   19 ar   
    29   25   19 ar   
    30   37   20 1    
    31   38   20 1    
    32   22   21 ar   
    33   39   21 1    
    34   23   22 ar   
    35   40   22 1    
    36   24   23 ar   
    37   25   24 ar   
    38   41   24 1    
    39   42   25 1    
    40   47   26 1    
    41   48   26 1    
    42   49   26 1    
    43   28   27 ar   
    44   32   27 ar   
    45   29   28 ar   
    46   43   28 1    
    47   30   29 ar   
    48   44   29 1    
    49   31   30 ar   
    50   32   31 ar   
    51   45   31 1    
    52   46   32 1    
@<TRIPOS>SUBSTRUCTURE
     1 HLI1001     1 GROUP   
@<TRIPOS>SET

