#    Name: 2qme_GCP_1_INTS_M
#    Modification time : Mon Mar 24 22:29:45 2014

@<TRIPOS>MOLECULE
2qme_GCP_1_INTS_M
   72     0    15     0     0
SMALL
NO_CHARGES


@<TRIPOS>ATOM
      1 Zn         -5.5510    7.0740   17.2575 Zn        4 ZIC7        0.0000 
      2 Zn         -4.7390    7.5750   17.5000 Zn       14 ZIL7        0.0000 
      3 Zn         -6.3630    6.5730   17.0150 Zn        9 ZIP7        0.0000 
      4 N          -3.7695    6.5895   17.4050 N.am      2 SEC2        0.0000 
      5 N          -4.7390    7.5750   17.5000 N.am     12 SEL2        0.0000 
      6 N          -2.8000    5.6040   17.3100 N.am      7 SEP2        0.0000 
      7 NZ         -5.6040   10.8320   17.3240 N.4       3 LYC4        0.0000 
      8 NZ         -4.5900   10.0220   17.7220 N.4      13 LYL4        0.0000 
      9 NZ         -6.6180   11.6420   16.9260 N.4       8 LYP4        0.0000 
     10 N          -5.6040   10.8320   17.3240 N.am      2 SEC2        0.0000 
     11 N          -4.5900   10.0220   17.7220 N.am     12 SEL2        0.0000 
     12 N          -6.6180   11.6420   16.9260 N.am      7 SEP2        0.0000 
     13 N          -3.8100   10.6935   16.7880 N.am      2 SEC2        0.0000 
     14 N          -3.0300   11.3650   15.8540 N.am      7 SEP2        0.0000 
     15 CA         -6.2075    9.8935   21.2445 C.3       5 GLC5        0.0000 
     16 CA         -5.8090    8.5760   19.6970 C.3      15 GLL5        0.0000 
     17 CA         -6.6060   11.2110   22.7920 C.3      10 GLP5        0.0000 
     18 CA         -5.2680    7.8315   21.4015 C.3       5 GLC5        0.0000 
     19 CA         -4.7270    7.0870   23.1060 C.3      10 GLP5        0.0000 
     20 NZ         -7.2570   10.8750   17.8560 N.4       3 LYC4        0.0000 
     21 NZ         -7.8960   10.1080   18.7860 N.4      13 LYL4        0.0000 
     22 N          -9.1805   10.3710   19.5975 N.am      2 SEC2        0.0000 
     23 N          -7.8960   10.1080   18.7860 N.am     12 SEL2        0.0000 
     24 N         -10.4650   10.6340   20.4090 N.am      7 SEP2        0.0000 
     25 N          -9.3345    9.8160   18.3125 N.am      2 SEC2        0.0000 
     26 N         -10.7730    9.5240   17.8390 N.am      7 SEP2        0.0000 
     27 N          -7.2570   10.8750   17.8560 N.am      2 SEC2        0.0000 
     28 Zn         -7.0540    7.0990   17.5520 Zn        4 ZIC7        0.0000 
     29 Zn         -7.7450    7.6250   18.0890 Zn       14 ZIL7        0.0000 
     30 N          -9.0055    7.2860   17.3815 N.am      2 SEC2        0.0000 
     31 N          -7.7450    7.6250   18.0890 N.am     12 SEL2        0.0000 
     32 N         -10.2660    6.9470   16.6740 N.am      7 SEP2        0.0000 
     33 N         -11.0415    5.8835   19.0940 N.am      2 SEC2        0.0000 
     34 N         -10.1180    6.5260   19.9440 N.am     12 SEL2        0.0000 
     35 N         -11.9650    5.2410   18.2440 N.am      7 SEP2        0.0000 
     36 CA         -7.6380    9.4540   23.0315 C.3       5 GLC5        0.0000 
     37 CA         -8.6700    7.6970   23.2710 C.3      15 GLL5        0.0000 
     38 CA         -6.9660    6.7770   23.3785 C.3       5 GLC5        0.0000 
     39 CA         -5.2620    5.8570   23.4860 C.3      10 GLP5        0.0000 
     40 CA         -7.4115    6.5390   24.7350 C.3       5 GLC5        0.0000 
     41 CA         -9.3020    7.5030   24.6490 C.3      15 GLL5        0.0000 
     42 CA         -5.5210    5.5750   24.8210 C.3      10 GLP5        0.0000 
     43 N         -10.6785    9.6750   25.0745 N.am      2 SEC2        0.0000 
     44 N         -10.5440    8.2040   24.7220 N.am     12 SEL2        0.0000 
     45 N         -10.8130   11.1460   25.4270 N.am      7 SEP2        0.0000 
     46 CA         -7.8425    5.1555   25.1310 C.3       5 GLC5        0.0000 
     47 CA         -9.5910    6.0710   24.9950 C.3      15 GLL5        0.0000 
     48 CA         -6.0940    4.2400   25.2670 C.3      10 GLP5        0.0000 
     49 CA        -11.6340    5.1225   23.0850 C.3       5 GLC5        0.0000 
     50 CA        -11.0670    5.8960   24.7360 C.3      15 GLL5        0.0000 
     51 CA        -12.2010    4.3490   21.4340 C.3      10 GLP5        0.0000 
     52 CA        -11.7800    9.2765   24.7735 C.3       5 GLC5        0.0000 
     53 CA        -11.5840    7.2830   25.0390 C.3      15 GLL5        0.0000 
     54 CA        -11.9760   11.2700   24.5080 C.3      10 GLP5        0.0000 
     55 CA        -14.6360    9.9195   23.9550 C.3       5 GLC5        0.0000 
     56 CA        -14.8520    8.0360   23.6890 C.3      15 GLL5        0.0000 
     57 CA        -14.4200   11.8030   24.2210 C.3      10 GLP5        0.0000 
     58 CA        -15.9595    7.3100   21.9225 C.3       5 GLC5        0.0000 
     59 CA        -17.0670    6.5840   20.1560 C.3      10 GLP5        0.0000 
     60 N         -18.0145    7.2910   22.9065 N.am      2 SEC2        0.0000 
     61 N         -17.0770    8.5920   23.1330 N.am     12 SEL2        0.0000 
     62 N         -18.9520    5.9900   22.6800 N.am      7 SEP2        0.0000 
     63 O         -17.7810    9.1360   25.5990 O.2       1 ALC1        0.0000 
     64 O         -16.5320    8.5570   25.3390 O.2      11 ALL1        0.0000 
     65 O         -19.0300    9.7150   25.8590 O.2       6 ALP1        0.0000 
     66 O         -17.4600    8.7410   27.7860 O.2       1 ALC1        0.0000 
     67 O         -16.0640    8.5040   27.6180 O.2      11 ALL1        0.0000 
     68 O         -18.8560    8.9780   27.9540 O.2       6 ALP1        0.0000 
     69 CA        -12.9545    9.5725   24.6660 C.3       5 GLC5        0.0000 
     70 CA        -13.9330    7.8750   24.8240 C.3      15 GLL5        0.0000 
     71 CA        -13.0278    5.4153   24.4552 C.3       5 GLC5        0.0000 
     72 CA        -14.7300    4.2410   24.0230 C.3      10 GLP5        0.0000 
@<TRIPOS>BOND
@<TRIPOS>SUBSTRUCTURE
     1 ALC1       63 GROUP        1 X    ALC  0     ROOT ALC X 1
     2 SEC2        4 GROUP        1 X    SEC  0     **** SEC X 2
     3 LYC4        7 GROUP        1 X    LYC  0     **** LYC X 4
     4 ZIC7        1 GROUP        1 X    ZIC  0     **** ZIC X 5
     5 GLC5       15 GROUP        1 X    GLC  0     **** GLC X 6
     6 ALP1       65 GROUP        1 Y    ALP  0     ROOT ALP Y 8
     7 SEP2        6 GROUP        1 Y    SEP  0     **** SEP Y 9
     8 LYP4        9 GROUP        1 Y    LYP  0     **** LYP Y 11
     9 ZIP7        3 GROUP        1 Y    ZIP  0     **** ZIP Y 12
    10 GLP5       17 GROUP        1 Y    GLP  0     **** GLP Y 13
    11 ALL1       64 GROUP        1 Z    ALL  0     ROOT ALL Z 15
    12 SEL2        5 GROUP        1 Z    SEL  0     **** SEL Z 16
    13 LYL4        8 GROUP        1 Z    LYL  0     **** LYL Z 18
    14 ZIL7        2 GROUP        1 Z    ZIL  0     **** ZIL Z 19
    15 GLL5       16 GROUP        1 Z    GLL  0     **** GLL Z 20
@<TRIPOS>SET

