#    Name: 2qme_GCP_1_ligand
#    Modification time : Mon Mar 24 22:29:45 2014

@<TRIPOS>MOLECULE
2qme_GCP_1_ligand
   46    48     1     0     0
SMALL
NO_CHARGES


@<TRIPOS>ATOM
      1 PG         -4.5230    8.7330   18.4370 P.3       1 GCP200      0.0000 
      2 O1G        -4.7390    7.5750   17.5000 O.co2     1 GCP200      0.0000 
      3 O2G        -4.5900   10.0220   17.7220 O.co2     1 GCP200      0.0000 
      4 O3G        -3.2010    8.5480   19.1980 O.co2     1 GCP200      0.0000 
      5 C3B        -5.8090    8.5760   19.6970 C.3       1 GCP200      0.0000 
      6 PB         -7.5310    8.6730   19.1170 P.3       1 GCP200      0.0000 
      7 O1B        -7.8960   10.1080   18.7860 O.co2     1 GCP200      0.0000 
      8 O2B        -7.7450    7.6250   18.0890 O.co2     1 GCP200      0.0000 
      9 O3A        -8.3620    8.2550   20.4690 O.3       1 GCP200      0.0000 
     10 PA         -8.9260    6.7880   20.8030 P.3       1 GCP200      0.0000 
     11 O1A       -10.1180    6.5260   19.9440 O.co2     1 GCP200      0.0000 
     12 O2A        -7.7620    5.8400   20.8140 O.co2     1 GCP200      0.0000 
     13 O5'        -9.4850    7.0700   22.2830 O.3       1 GCP200      0.0000 
     14 C5'        -8.6700    7.6970   23.2710 C.3       1 GCP200      0.0000 
     15 C4'        -9.3020    7.5030   24.6490 C.3       1 GCP200      0.0000 
     16 O4'       -10.5440    8.2040   24.7220 O.3       1 GCP200      0.0000 
     17 C3'        -9.5910    6.0710   24.9950 C.3       1 GCP200      0.0000 
     18 O3'        -9.2980    5.8600   26.3910 O.3       1 GCP200      0.0000 
     19 C2'       -11.0670    5.8960   24.7360 C.3       1 GCP200      0.0000 
     20 O2'       -11.6530    4.9220   25.5920 O.3       1 GCP200      0.0000 
     21 C1'       -11.5840    7.2830   25.0390 C.3       1 GCP200      0.0000 
     22 N9        -12.7900    7.5610   24.2530 N.pl3     1 GCP200      0.0000 
     23 C8        -12.8910    7.5400   22.8950 C.2       1 GCP200      0.0000 
     24 N7        -14.1500    7.8290   22.5290 N.2       1 GCP200      0.0000 
     25 C5        -14.8520    8.0360   23.6890 C.2       1 GCP200      0.0000 
     26 C6        -16.2230    8.4260   24.0370 C.2       1 GCP200      0.0000 
     27 O6        -17.0770    8.5920   23.1330 O.2       1 GCP200      0.0000 
     28 N1        -16.5320    8.5570   25.3390 N.am      1 GCP200      0.0000 
     29 C2        -15.6500    8.3600   26.3530 C.2       1 GCP200      0.0000 
     30 N2        -16.0640    8.5040   27.6180 N.pl3     1 GCP200      0.0000 
     31 N3        -14.3610    8.0070   26.1380 N.2       1 GCP200      0.0000 
     32 C4        -13.9330    7.8750   24.8240 C.2       1 GCP200      0.0000 
     33 H          -5.6762    9.3772   20.3723 H         1 GCP200      0.0000 
     34 H          -5.6950    7.6214   20.1343 H         1 GCP200      0.0000 
     35 H          -8.5734    8.7738   23.0968 H         1 GCP200      0.0000 
     36 H          -7.6633    7.2673   23.3021 H         1 GCP200      0.0000 
     37 H          -8.6161    7.9028   25.3980 H         1 GCP200      0.0000 
     38 H          -9.0427    5.4384   24.3579 H         1 GCP200      0.0000 
     39 H         -11.2054    5.7110   23.7019 H         1 GCP200      0.0000 
     40 H         -11.8150    7.3220   26.0957 H         1 GCP200      0.0000 
     41 H         -12.1544    7.3437   22.2900 H         1 GCP200      0.0000 
     42 H         -17.5318    8.8330   25.5978 H         1 GCP200      0.0000 
     43 H         -17.0349    8.7087   27.7426 H         1 GCP200      0.0000 
     44 H         -15.3653    8.3940   28.3249 H         1 GCP200      0.0000 
     45 H         -10.1010    5.3884   26.7555 H         1 GCP200      0.0000 
     46 H         -11.4167    4.0412   25.1816 H         1 GCP200      0.0000 
@<TRIPOS>BOND
     1    2    1 ar   
     2    3    1 ar   
     3    4    1 ar   
     4    5    1 1    
     5    6    5 1    
     6   33    5 1    
     7   34    5 1    
     8    7    6 ar   
     9    8    6 ar   
    10    9    6 1    
    11   10    9 1    
    12   11   10 ar   
    13   12   10 ar   
    14   13   10 1    
    15   14   13 1    
    16   15   14 1    
    17   35   14 1    
    18   36   14 1    
    19   16   15 1    
    20   17   15 1    
    21   37   15 1    
    22   21   16 1    
    23   18   17 1    
    24   19   17 1    
    25   38   17 1    
    26   45   18 1    
    27   20   19 1    
    28   21   19 1    
    29   39   19 1    
    30   46   20 1    
    31   22   21 1    
    32   40   21 1    
    33   23   22 1    
    34   32   22 1    
    35   24   23 2    
    36   41   23 1    
    37   25   24 1    
    38   26   25 1    
    39   32   25 2    
    40   27   26 2    
    41   28   26 am   
    42   29   28 1    
    43   42   28 1    
    44   30   29 1    
    45   31   29 2    
    46   43   30 1    
    47   44   30 1    
    48   32   31 1    
@<TRIPOS>SUBSTRUCTURE
     1 GCP200      1 GROUP   
@<TRIPOS>SET

