#    Name: 1dnp_FAD_3_INTS_M
#    Modification time : Mon Mar 24 22:10:09 2014

@<TRIPOS>MOLECULE
1dnp_FAD_3_INTS_M
   91     0     9     0     0
SMALL
NO_CHARGES


@<TRIPOS>ATOM
      1 N          21.8910   30.8170   50.3455 N.am      2 SEC2        0.0000 
      2 N          22.7130   30.0780   49.4270 N.am      8 SEL2        0.0000 
      3 N          21.0690   31.5560   51.2640 N.am      5 SEP2        0.0000 
      4 N          23.3155   30.4825   50.5650 N.am      2 SEC2        0.0000 
      5 N          23.9180   30.8870   51.7030 N.am      5 SEP2        0.0000 
      6 N          22.7270   28.7140   49.9765 N.am      2 SEC2        0.0000 
      7 N          22.7410   27.3500   50.5260 N.am      5 SEP2        0.0000 
      8 N          21.3940   28.6920   46.6375 N.am      2 SEC2        0.0000 
      9 N          22.1410   29.7250   47.0730 N.am      8 SEL2        0.0000 
     10 N          20.6470   27.6590   46.2020 N.am      5 SEP2        0.0000 
     11 CA         24.5080   27.8685   49.9925 C.3       3 GLC5        0.0000 
     12 CA         25.3530   28.9880   48.6440 C.3       9 GLL5        0.0000 
     13 CA         23.6630   26.7490   51.3410 C.3       6 GLP5        0.0000 
     14 CA         27.8400   27.5455   48.8310 C.3       3 GLC5        0.0000 
     15 CA         26.8100   29.1810   48.2110 C.3       9 GLL5        0.0000 
     16 CA         28.8700   25.9100   49.4510 C.3       6 GLP5        0.0000 
     17 CA         29.4830   28.0435   45.4720 C.3       3 GLC5        0.0000 
     18 CA         27.7830   29.1510   46.1520 C.3       9 GLL5        0.0000 
     19 CA         31.1830   26.9360   44.7920 C.3       6 GLP5        0.0000 
     20 CA         27.4130   27.0255   41.2920 C.3       3 GLC5        0.0000 
     21 CA         26.9910   28.9880   41.4420 C.3       9 GLL5        0.0000 
     22 CA         27.8350   25.0630   41.1420 C.3       6 GLP5        0.0000 
     23 CA         28.5270   26.9845   41.6210 C.3       3 GLC5        0.0000 
     24 CA         29.2190   28.9060   42.1000 C.3       9 GLL5        0.0000 
     25 CA         30.3085   27.7280   42.7120 C.3       3 GLC5        0.0000 
     26 CA         31.3980   26.5500   43.3240 C.3       6 GLP5        0.0000 
     27 CA         30.2965   30.6330   41.7190 C.3       3 GLC5        0.0000 
     28 CA         31.3740   32.3600   41.3380 C.3       6 GLP5        0.0000 
     29 CA         29.3980   28.0220   44.2205 C.3       3 GLC5        0.0000 
     30 CA         27.6130   29.1080   43.6490 C.3       9 GLL5        0.0000 
     31 O          30.8360   36.3170   43.8870 O.2       1 ALC1        0.0000 
     32 O          30.1800   35.4100   43.0310 O.2       7 ALL1        0.0000 
     33 O          31.4920   37.2240   44.7430 O.2       4 ALP1        0.0000 
     34 N          32.1470   37.1080   42.0165 N.am      2 SEC2        0.0000 
     35 N          30.6370   36.8880   41.5390 N.am      8 SEL2        0.0000 
     36 N          33.6570   37.3280   42.4940 N.am      5 SEP2        0.0000 
     37 N          27.4395   36.4630   41.1465 N.am      2 SEC2        0.0000 
     38 N          28.3880   35.9230   39.8270 N.am      8 SEL2        0.0000 
     39 N          26.4910   37.0030   42.4660 N.am      5 SEP2        0.0000 
     40 N          29.1815   37.0155   38.8535 N.am      2 SEC2        0.0000 
     41 N          29.9750   38.1080   37.8800 N.am      5 SEP2        0.0000 
     42 CA         24.8095   36.4935   34.1645 C.3       3 GLC5        0.0000 
     43 CA         25.8380   35.8280   35.5570 C.3       9 GLL5        0.0000 
     44 CA         23.7810   37.1590   32.7720 C.3       6 GLP5        0.0000 
     45 CA         25.5240   37.6690   36.4155 C.3       3 GLC5        0.0000 
     46 CA         25.2100   39.5100   37.2740 C.3       6 GLP5        0.0000 
     47 CA         26.9240   34.1120   35.4965 C.3       3 GLC5        0.0000 
     48 CA         28.0100   32.3960   35.4360 C.3       6 GLP5        0.0000 
     49 CA         27.4330   36.6765   35.0070 C.3       3 GLC5        0.0000 
     50 CA         29.0280   37.5250   34.4570 C.3       6 GLP5        0.0000 
     51 CA         22.4565   32.7275   36.4900 C.3       3 GLC5        0.0000 
     52 CA         24.2290   33.3500   36.7630 C.3       9 GLL5        0.0000 
     53 CA         20.6840   32.1050   36.2170 C.3       6 GLP5        0.0000 
     54 CA         24.9040   35.1940   41.4060 C.3       3 GLC5        0.0000 
     55 CA         25.4370   33.5290   42.2820 C.3       9 GLL5        0.0000 
     56 CA         24.3710   36.8590   40.5300 C.3       6 GLP5        0.0000 
     57 N          23.3125   32.6810   41.0565 N.am      2 SEC2        0.0000 
     58 N          24.1320   33.5050   41.9290 N.am      8 SEL2        0.0000 
     59 N          22.4930   31.8570   40.1840 N.am      5 SEP2        0.0000 
     60 N          23.7245   35.6740   47.0555 N.am      2 SEC2        0.0000 
     61 N          23.6770   34.0070   46.8860 N.am      8 SEL2        0.0000 
     62 N          23.7720   37.3410   47.2250 N.am      5 SEP2        0.0000 
     63 N          25.1505   33.5690   50.4945 N.am      2 SEC2        0.0000 
     64 N          24.8390   33.1560   48.9850 N.am      8 SEL2        0.0000 
     65 N          25.4620   33.9820   52.0040 N.am      5 SEP2        0.0000 
     66 N          26.1295   33.6810   49.6390 N.am      2 SEC2        0.0000 
     67 N          27.4200   34.2060   50.2930 N.am      5 SEP2        0.0000 
     68 N          20.9570   33.5095   48.7755 N.am      2 SEC2        0.0000 
     69 N          22.3230   33.4150   48.9120 N.am      8 SEL2        0.0000 
     70 N          19.5910   33.6040   48.6390 N.am      5 SEP2        0.0000 
     71 N          22.5795   33.6575   50.2000 N.am      2 SEC2        0.0000 
     72 N          22.8360   33.9000   51.4880 N.am      5 SEP2        0.0000 
     73 CA         27.5425   32.6035   47.5280 C.3       3 GLC5        0.0000 
     74 CA         27.0120   30.6020   47.6580 C.3       9 GLL5        0.0000 
     75 CA         27.5480   34.6160   47.8790 C.3       6 GLP5        0.0000 
     76 CA         25.8157   36.1900   39.4735 C.3       3 GLC5        0.0000 
     77 CA         27.4320   35.2470   39.0300 C.3       9 GLL5        0.0000 
     78 CA         29.2787   35.4340   38.1695 C.3       3 GLC5        0.0000 
     79 CA         31.2970   35.3470   37.9220 C.3       6 GLP5        0.0000 
     80 CA         27.3010   33.9462   36.4203 C.3       3 GLC5        0.0000 
     81 CA         27.0890   35.7950   37.8040 C.3       9 GLL5        0.0000 
     82 CA         24.3953   35.9510   37.4140 C.3       3 GLC5        0.0000 
     83 CA         26.0950   35.1980   37.0050 C.3       9 GLL5        0.0000 
     84 CA         22.8240   36.3890   38.5470 C.3       6 GLP5        0.0000 
     85 CA         23.8145   35.0443   37.8385 C.3       3 GLC5        0.0000 
     86 CA         25.3810   34.0490   37.4970 C.3       9 GLL5        0.0000 
     87 CA         25.2985   35.3215   39.8200 C.3       3 GLC5        0.0000 
     88 CA         25.7110   33.5070   38.7220 C.3       9 GLL5        0.0000 
     89 CA         26.6340   32.9996   36.6810 C.3       3 GLC5        0.0000 
     90 CA         26.0760   34.2018   46.6185 C.3       3 GLC5        0.0000 
     91 CA         24.5940   34.1010   44.7160 C.3       9 GLL5        0.0000 
@<TRIPOS>BOND
@<TRIPOS>SUBSTRUCTURE
     1 ALC1       31 GROUP        1 X    ALC  0     ROOT ALC X 1
     2 SEC2        1 GROUP        1 X    SEC  0     **** SEC X 2
     3 GLC5       11 GROUP        1 X    GLC  0     **** GLC X 6
     4 ALP1       33 GROUP        1 Y    ALP  0     ROOT ALP Y 8
     5 SEP2        3 GROUP        1 Y    SEP  0     **** SEP Y 9
     6 GLP5       13 GROUP        1 Y    GLP  0     **** GLP Y 13
     7 ALL1       32 GROUP        1 Z    ALL  0     ROOT ALL Z 15
     8 SEL2        2 GROUP        1 Z    SEL  0     **** SEL Z 16
     9 GLL5       12 GROUP        1 Z    GLL  0     **** GLL Z 20
@<TRIPOS>SET

