#    Name: 1dnp_FAD_3_ligand
#    Modification time : Mon Mar 24 22:10:09 2014

@<TRIPOS>MOLECULE
1dnp_FAD_3_ligand
   84    89     1     0     0
SMALL
NO_CHARGES


@<TRIPOS>ATOM
      1 PA         23.1370   30.0550   48.0090 P.3       1 FAD472      0.0000 
      2 O1A        22.7130   30.0780   49.4270 O.co2     1 FAD472      0.0000 
      3 O2A        22.1410   29.7250   47.0730 O.co2     1 FAD472      0.0000 
      4 O5B        24.3630   29.2010   47.5800 O.3       1 FAD472      0.0000 
      5 C5B        25.3530   28.9880   48.6440 C.3       1 FAD472      0.0000 
      6 C4B        26.8100   29.1810   48.2110 C.3       1 FAD472      0.0000 
      7 O4B        27.0560   28.3750   47.0970 O.3       1 FAD472      0.0000 
      8 C3B        27.0120   30.6020   47.6580 C.3       1 FAD472      0.0000 
      9 O3B        27.2790   31.4740   48.7120 O.3       1 FAD472      0.0000 
     10 C2B        28.0620   30.5800   46.6960 C.3       1 FAD472      0.0000 
     11 O2B        29.4050   30.5960   47.2450 O.3       1 FAD472      0.0000 
     12 C1B        27.7830   29.1510   46.1520 C.3       1 FAD472      0.0000 
     13 N9A        27.0170   29.2030   44.8810 N.pl3     1 FAD472      0.0000 
     14 C8A        25.6560   29.2870   44.6740 C.2       1 FAD472      0.0000 
     15 N7A        25.3780   29.2420   43.3950 N.2       1 FAD472      0.0000 
     16 C5A        26.6070   29.1190   42.7620 C.ar      1 FAD472      0.0000 
     17 C6A        26.9910   28.9880   41.4420 C.ar      1 FAD472      0.0000 
     18 N6A        26.0510   28.8500   40.5060 N.pl3     1 FAD472      0.0000 
     19 N1A        28.3340   28.8840   41.0980 N.ar      1 FAD472      0.0000 
     20 C2A        29.2190   28.9060   42.1000 C.ar      1 FAD472      0.0000 
     21 N3A        28.9270   29.0080   43.3810 N.ar      1 FAD472      0.0000 
     22 C4A        27.6130   29.1080   43.6490 C.ar      1 FAD472      0.0000 
     23 N1         28.5080   33.7370   42.8170 N.2       1 FAD472      0.0000 
     24 C2         29.5360   34.2960   43.6110 C.2       1 FAD472      0.0000 
     25 O2         29.7550   33.8940   44.7580 O.2       1 FAD472      0.0000 
     26 N3         30.1800   35.4100   43.0310 N.am      1 FAD472      0.0000 
     27 C4         29.8820   35.9720   41.8110 C.2       1 FAD472      0.0000 
     28 O4         30.6370   36.8880   41.5390 O.2       1 FAD472      0.0000 
     29 C4X        28.7560   35.3250   41.0410 C.2       1 FAD472      0.0000 
     30 N5         28.3880   35.9230   39.8270 N.2       1 FAD472      0.0000 
     31 C5X        27.4320   35.2470   39.0300 C.ar      1 FAD472      0.0000 
     32 C6         27.0890   35.7950   37.8040 C.ar      1 FAD472      0.0000 
     33 C7         26.0950   35.1980   37.0050 C.ar      1 FAD472      0.0000 
     34 C7M        25.8380   35.8280   35.5570 C.3       1 FAD472      0.0000 
     35 C8         25.3810   34.0490   37.4970 C.ar      1 FAD472      0.0000 
     36 C8M        24.2290   33.3500   36.7630 C.3       1 FAD472      0.0000 
     37 C9         25.7110   33.5070   38.7220 C.ar      1 FAD472      0.0000 
     38 C9A        26.7410   34.0610   39.4980 C.ar      1 FAD472      0.0000 
     39 N10        27.0410   33.4790   40.7880 N.pl3     1 FAD472      0.0000 
     40 C10        28.0470   34.1720   41.5380 C.2       1 FAD472      0.0000 
     41 C1'        26.2070   32.5660   41.4250 C.3       1 FAD472      0.0000 
     42 C2'        25.4370   33.5290   42.2820 C.3       1 FAD472      0.0000 
     43 O2'        24.1320   33.5050   41.9290 O.3       1 FAD472      0.0000 
     44 C3'        25.5650   33.6260   43.7780 C.3       1 FAD472      0.0000 
     45 O3'        26.1360   32.4860   44.1870 O.3       1 FAD472      0.0000 
     46 C4'        24.5940   34.1010   44.7160 C.3       1 FAD472      0.0000 
     47 O4'        23.3180   34.1170   44.1280 O.3       1 FAD472      0.0000 
     48 C5'        24.6140   33.4740   46.0000 C.3       1 FAD472      0.0000 
     49 O5'        23.6770   34.0070   46.8860 O.3       1 FAD472      0.0000 
     50 P          23.5260   33.0170   48.2160 P.3       1 FAD472      0.0000 
     51 O1P        24.8390   33.1560   48.9850 O.co2     1 FAD472      0.0000 
     52 O2P        22.3230   33.4150   48.9120 O.co2     1 FAD472      0.0000 
     53 O3P        23.6050   31.5520   47.5550 O.3       1 FAD472      0.0000 
     54 H          25.2560   27.9616   49.0603 H         1 FAD472      0.0000 
     55 H          25.1579   29.6767   49.4949 H         1 FAD472      0.0000 
     56 H          27.4616   29.0209   49.0000 H         1 FAD472      0.0000 
     57 H          26.0649   30.8631   47.1663 H         1 FAD472      0.0000 
     58 H          27.8970   31.2337   45.9078 H         1 FAD472      0.0000 
     59 H          28.7542   28.6934   45.9509 H         1 FAD472      0.0000 
     60 H          25.0129   29.3687   45.4129 H         1 FAD472      0.0000 
     61 H          26.3763   28.7752   39.5634 H         1 FAD472      0.0000 
     62 H          25.1054   28.8337   40.8310 H         1 FAD472      0.0000 
     63 H          30.2692   28.8329   41.8262 H         1 FAD472      0.0000 
     64 H          30.9710   35.8481   43.6035 H         1 FAD472      0.0000 
     65 H          27.5599   36.6467   37.4655 H         1 FAD472      0.0000 
     66 H          25.2003   32.6838   39.0816 H         1 FAD472      0.0000 
     67 H          26.7283   31.8915   42.0566 H         1 FAD472      0.0000 
     68 H          25.5309   32.0838   40.7647 H         1 FAD472      0.0000 
     69 H          25.8134   34.5953   41.9036 H         1 FAD472      0.0000 
     70 H          26.4888   34.4137   43.8836 H         1 FAD472      0.0000 
     71 H          24.8637   35.2140   44.8985 H         1 FAD472      0.0000 
     72 H          25.6501   33.5485   46.4308 H         1 FAD472      0.0000 
     73 H          24.4516   32.3684   45.8732 H         1 FAD472      0.0000 
     74 H          26.6593   35.7968   34.9873 H         1 FAD472      0.0000 
     75 H          25.1192   35.3400   35.0619 H         1 FAD472      0.0000 
     76 H          25.5566   36.7859   35.6134 H         1 FAD472      0.0000 
     77 H          24.5149   33.0005   35.8707 H         1 FAD472      0.0000 
     78 H          23.8750   32.5724   37.2827 H         1 FAD472      0.0000 
     79 H          23.4606   33.9695   36.6026 H         1 FAD472      0.0000 
     80 H          26.4600   32.0422   48.7915 H         1 FAD472      0.0000 
     81 H          29.2894   30.8552   48.2039 H         1 FAD472      0.0000 
     82 H          23.6437   33.2424   42.7612 H         1 FAD472      0.0000 
     83 H          27.0825   32.5422   43.8690 H         1 FAD472      0.0000 
     84 H          22.6878   33.8931   44.8714 H         1 FAD472      0.0000 
@<TRIPOS>BOND
     1    2    1 ar   
     2    3    1 ar   
     3    4    1 1    
     4   53    1 1    
     5    5    4 1    
     6    6    5 1    
     7   54    5 1    
     8   55    5 1    
     9    7    6 1    
    10    8    6 1    
    11   56    6 1    
    12   12    7 1    
    13    9    8 1    
    14   10    8 1    
    15   57    8 1    
    16   80    9 1    
    17   11   10 1    
    18   12   10 1    
    19   58   10 1    
    20   81   11 1    
    21   13   12 1    
    22   59   12 1    
    23   14   13 1    
    24   22   13 1    
    25   15   14 2    
    26   60   14 1    
    27   16   15 1    
    28   17   16 ar   
    29   22   16 ar   
    30   18   17 1    
    31   19   17 ar   
    32   61   18 1    
    33   62   18 1    
    34   20   19 ar   
    35   21   20 ar   
    36   63   20 1    
    37   22   21 ar   
    38   24   23 1    
    39   40   23 2    
    40   25   24 2    
    41   26   24 am   
    42   27   26 am   
    43   64   26 1    
    44   28   27 2    
    45   29   27 1    
    46   30   29 2    
    47   40   29 1    
    48   31   30 1    
    49   32   31 ar   
    50   38   31 ar   
    51   33   32 ar   
    52   65   32 1    
    53   34   33 1    
    54   35   33 ar   
    55   74   34 1    
    56   75   34 1    
    57   76   34 1    
    58   36   35 1    
    59   37   35 ar   
    60   77   36 1    
    61   78   36 1    
    62   79   36 1    
    63   38   37 ar   
    64   66   37 1    
    65   39   38 1    
    66   40   39 1    
    67   41   39 1    
    68   42   41 1    
    69   67   41 1    
    70   68   41 1    
    71   43   42 1    
    72   44   42 1    
    73   69   42 1    
    74   82   43 1    
    75   45   44 1    
    76   46   44 1    
    77   70   44 1    
    78   83   45 1    
    79   47   46 1    
    80   48   46 1    
    81   71   46 1    
    82   84   47 1    
    83   49   48 1    
    84   72   48 1    
    85   73   48 1    
    86   50   49 1    
    87   51   50 ar   
    88   52   50 ar   
    89   53   50 1    
@<TRIPOS>SUBSTRUCTURE
     1 FAD472      1 GROUP   
@<TRIPOS>SET

