#    Name: 3KPC_2_CAVITY_N1_ALL.mol2
#    Modification time : Tue Mar 11 08:53:26 2014

@<TRIPOS>MOLECULE
3KPC_2_CAVITY_N1_ALL.mol2
   67     0     5     0     0
SMALL
NO_CHARGES


@<TRIPOS>ATOM
      1 O           7.1286  -11.2729  -19.0432 O.2       2 ALA2        0.0000 
      2 O           4.2851  -11.5213  -17.2819 O.2       2 ALA2        0.0000 
      3 N           5.3503  -10.8077  -21.8487 N.2       2 ALA2        0.0000 
      4 DU          4.5685  -11.0001  -20.5831 H         5 CUB7        0.0000 
      5 N           4.0702  -10.6712  -22.6186 N.2       2 ALA2        0.0000 
      6 DU          3.2884  -10.8636  -21.3530 H         5 CUB7        0.0000 
      7 N           2.7901  -10.5348  -23.3886 N.2       2 ALA2        0.0000 
      8 NZ          7.1123  -12.7543  -19.2785 N.2       3 LYS4        0.0000 
      9 O           6.3305  -12.9467  -18.0128 O.2       2 ALA2        0.0000 
     10 N           7.3957  -12.2331  -22.5797 N.2       2 ALA2        0.0000 
     11 NZ          6.6140  -12.4255  -21.3141 N.2       3 LYS4        0.0000 
     12 DU          5.8322  -12.6178  -20.0484 H         5 CUB7        0.0000 
     13 NZ          5.0504  -12.8102  -18.7828 N.2       3 LYS4        0.0000 
     14 N           5.3339  -12.2890  -22.0840 N.2       2 ALA2        0.0000 
     15 DU          4.5521  -12.4814  -20.8184 H         5 CUB7        0.0000 
     16 OG          3.7704  -12.6738  -19.5527 O.2       1 SER1        0.0000 
     17 CA          4.0538  -12.1526  -22.8539 C.3       4 GLY6        0.0000 
     18 CA          3.2721  -12.3450  -21.5883 C.3       4 GLY6        0.0000 
     19 OG          2.4903  -12.5373  -20.3226 O.2       1 SER1        0.0000 
     20 CA          1.9920  -12.2085  -22.3582 C.3       4 GLY6        0.0000 
     21 OG          1.2102  -12.4009  -21.0926 O.2       1 SER1        0.0000 
     22 CA          0.7119  -12.0721  -23.1282 C.3       4 GLY6        0.0000 
     23 DU         -0.0699  -12.2645  -21.8625 H         5 CUB7        0.0000 
     24 CA         -0.5682  -11.9356  -23.8981 C.3       4 GLY6        0.0000 
     25 N          -1.3499  -12.1280  -22.6324 N.2       2 ALA2        0.0000 
     26 NZ          7.8777  -14.0432  -20.7794 N.2       3 LYS4        0.0000 
     27 OG          7.0959  -14.2356  -19.5138 O.2       1 SER1        0.0000 
     28 NZ          7.3793  -13.7144  -22.8150 N.2       3 LYS4        0.0000 
     29 NZ          6.5976  -13.9068  -21.5493 N.2       3 LYS4        0.0000 
     30 OG          5.8158  -14.0992  -20.2837 O.2       1 SER1        0.0000 
     31 NZ          5.0341  -14.2916  -19.0181 N.2       3 LYS4        0.0000 
     32 CA          5.3175  -13.7704  -22.3193 C.3       4 GLY6        0.0000 
     33 DU          4.5357  -13.9627  -21.0536 H         5 CUB7        0.0000 
     34 OG          3.7540  -14.1551  -19.7880 O.2       1 SER1        0.0000 
     35 CA          3.2557  -13.8263  -21.8236 C.3       4 GLY6        0.0000 
     36 OG          2.4739  -14.0187  -20.5579 O.2       1 SER1        0.0000 
     37 CA          1.9756  -13.6899  -22.5935 C.3       4 GLY6        0.0000 
     38 CA          1.1938  -13.8822  -21.3279 C.3       4 GLY6        0.0000 
     39 CA          0.6955  -13.5534  -23.3634 C.3       4 GLY6        0.0000 
     40 CA         -0.0862  -13.7458  -22.0978 C.3       4 GLY6        0.0000 
     41 CA         -0.8680  -13.9382  -20.8322 C.3       4 GLY6        0.0000 
     42 CA         -0.5845  -13.4170  -24.1334 C.3       4 GLY6        0.0000 
     43 N          -1.3663  -13.6094  -22.8677 N.2       2 ALA2        0.0000 
     44 OG          7.8613  -15.5246  -21.0147 O.2       1 SER1        0.0000 
     45 O           7.3630  -15.1958  -23.0503 O.2       2 ALA2        0.0000 
     46 CA          6.5812  -15.3882  -21.7846 C.3       4 GLY6        0.0000 
     47 OG          5.7994  -15.5805  -20.5190 O.2       1 SER1        0.0000 
     48 CA          5.3011  -15.2517  -22.5546 C.3       4 GLY6        0.0000 
     49 CA          4.5194  -15.4441  -21.2889 C.3       4 GLY6        0.0000 
     50 CA          3.7376  -15.6365  -20.0233 C.3       4 GLY6        0.0000 
     51 CA          3.2393  -15.3077  -22.0588 C.3       4 GLY6        0.0000 
     52 CA          2.4575  -15.5000  -20.7932 C.3       4 GLY6        0.0000 
     53 CA          1.9592  -15.1712  -22.8288 C.3       4 GLY6        0.0000 
     54 CA          1.1775  -15.3636  -21.5631 C.3       4 GLY6        0.0000 
     55 CA          0.6792  -15.0348  -23.5987 C.3       4 GLY6        0.0000 
     56 CA         -0.1026  -15.2271  -22.3331 C.3       4 GLY6        0.0000 
     57 CA         -0.8844  -15.4195  -21.0674 C.3       4 GLY6        0.0000 
     58 N          -1.3827  -15.0907  -23.1030 N.2       2 ALA2        0.0000 
     59 NZ          9.9067  -16.9500  -21.7457 N.2       3 LYS4        0.0000 
     60 O           5.2848  -16.7331  -22.7898 O.2       2 ALA2        0.0000 
     61 CA          4.0047  -16.5966  -23.5598 C.3       4 GLY6        0.0000 
     62 CA          3.2229  -16.7890  -22.2941 C.3       4 GLY6        0.0000 
     63 N           2.7246  -16.4602  -24.3297 N.2       2 ALA2        0.0000 
     64 CA          1.9429  -16.6526  -23.0641 C.3       4 GLY6        0.0000 
     65 CA          0.6628  -16.5161  -23.8340 C.3       4 GLY6        0.0000 
     66 CA         -0.1190  -16.7085  -22.5684 C.3       4 GLY6        0.0000 
     67 OG         11.1704  -18.5678  -21.2110 O.2       1 SER1        0.0000 
@<TRIPOS>BOND
@<TRIPOS>SUBSTRUCTURE
     1 SER1       16 GROUP   
     2 ALA2        1 GROUP   
     3 LYS4        8 GROUP   
     4 GLY6       17 GROUP   
     5 CUB7        4 GROUP   
@<TRIPOS>SET

