#    Name: 3kpc_MTA_2_INTS_M
#    Modification time : Mon Mar 24 20:02:42 2014

@<TRIPOS>MOLECULE
3kpc_MTA_2_INTS_M
   55     0     9     0     0
SMALL
NO_CHARGES


@<TRIPOS>ATOM
      1 CA          6.1035  -14.9055  -24.6655 C.3       3 GLC5        0.0000 
      2 CA          6.5680  -16.1740  -23.2990 C.3       9 GLL5        0.0000 
      3 CA          5.6390  -13.6370  -26.0320 C.3       6 GLP5        0.0000 
      4 CA          7.1760  -16.4435  -25.0030 C.3       3 GLC5        0.0000 
      5 CA          7.7840  -16.7130  -26.7070 C.3       6 GLP5        0.0000 
      6 CA          6.4055  -18.0980  -23.6450 C.3       3 GLC5        0.0000 
      7 CA          6.2430  -20.0220  -23.9910 C.3       6 GLP5        0.0000 
      8 CA          5.9655  -13.6515  -24.1245 C.3       3 GLC5        0.0000 
      9 CA          6.2920  -13.6660  -22.2170 C.3       9 GLL5        0.0000 
     10 CA          4.3920  -13.4110  -22.9340 C.3       3 GLC5        0.0000 
     11 CA          5.4160  -13.3970  -20.9450 C.3       9 GLL5        0.0000 
     12 CA          3.3680  -13.4250  -24.9230 C.3       6 GLP5        0.0000 
     13 N           2.3725  -14.6275  -18.2960 N.am      2 SEC2        0.0000 
     14 N           3.3960  -15.2870  -18.6890 N.am      8 SEL2        0.0000 
     15 N           1.3490  -13.9680  -17.9030 N.am      5 SEP2        0.0000 
     16 O           4.1410  -14.8150  -17.4270 O.2       1 ALC1        0.0000 
     17 O           3.3960  -15.2870  -18.6890 O.2       7 ALL1        0.0000 
     18 O           4.8860  -14.3430  -16.1650 O.2       4 ALP1        0.0000 
     19 O           6.4380  -15.4915  -18.6140 O.2       1 ALC1        0.0000 
     20 O           5.7610  -14.1500  -18.6100 O.2       7 ALL1        0.0000 
     21 O           7.1150  -16.8330  -18.6180 O.2       4 ALP1        0.0000 
     22 CA          3.2860  -13.8630  -22.9495 C.3       3 GLC5        0.0000 
     23 CA          3.2040  -14.3010  -20.9760 C.3       9 GLL5        0.0000 
     24 CA         -0.6540  -16.2080  -25.5065 C.3       3 GLC5        0.0000 
     25 CA          0.5710  -16.8200  -24.2060 C.3       9 GLL5        0.0000 
     26 CA         -1.8790  -15.5960  -26.8070 C.3       6 GLP5        0.0000 
     27 CA          1.4075  -16.0170  -25.7140 C.3       3 GLC5        0.0000 
     28 CA          2.2440  -15.2140  -27.2220 C.3       6 GLP5        0.0000 
     29 O          -0.5310  -18.1810  -25.9170 O.2       1 ALC1        0.0000 
     30 O           0.6060  -17.7700  -25.1410 O.2       7 ALL1        0.0000 
     31 O          -1.6680  -18.5920  -26.6930 O.2       4 ALP1        0.0000 
     32 O           1.8030  -18.0700  -25.8580 O.2       1 ALC1        0.0000 
     33 O           3.0000  -18.3700  -26.5750 O.2       4 ALP1        0.0000 
     34 N          -1.8335  -16.5090  -24.4390 N.am      2 SEC2        0.0000 
     35 N          -0.5860  -16.2140  -23.8900 N.am      8 SEL2        0.0000 
     36 N          -3.0810  -16.8040  -24.9880 N.am      5 SEP2        0.0000 
     37 CA         -2.3945  -16.3440  -22.9385 C.3       3 GLC5        0.0000 
     38 CA         -0.6340  -15.2620  -22.9690 C.3       9 GLL5        0.0000 
     39 CA         -4.1550  -17.4260  -22.9080 C.3       6 GLP5        0.0000 
     40 CA         -1.3665  -14.7510  -24.5410 C.3       3 GLC5        0.0000 
     41 CA         -2.0990  -14.2400  -26.1130 C.3       6 GLP5        0.0000 
     42 CA          0.3300  -16.7965  -21.8830 C.3       3 GLC5        0.0000 
     43 CA          1.2940  -18.3310  -20.7970 C.3       6 GLP5        0.0000 
     44 CA          0.9285  -15.0430  -20.5205 C.3       3 GLC5        0.0000 
     45 CA          1.6340  -15.4580  -22.5640 C.3       9 GLL5        0.0000 
     46 CA          0.2230  -14.6280  -18.4770 C.3       6 GLP5        0.0000 
     47 CA          6.4603  -16.9447  -21.4600 C.3       3 GLC5        0.0000 
     48 CA          5.9340  -18.2310  -20.2090 C.3       6 GLP5        0.0000 
     49 CA          1.9170  -14.6858  -19.4923 C.3       3 GLC5        0.0000 
     50 CA          4.0180  -15.1860  -20.0390 C.3       9 GLL5        0.0000 
     51 CA          2.4525  -16.5373  -20.6522 C.3       3 GLC5        0.0000 
     52 CA          5.3283  -16.5602  -20.1100 C.3       3 GLC5        0.0000 
     53 CA          2.5235  -14.6893  -23.9852 C.3       3 GLC5        0.0000 
     54 CA          1.3424  -17.1886  -22.0066 C.3       3 GLC5        0.0000 
     55 CA          1.7240  -16.4490  -23.5310 C.3       9 GLL5        0.0000 
@<TRIPOS>BOND
@<TRIPOS>SUBSTRUCTURE
     1 ALC1       16 GROUP        1 X    ALC  0     ROOT ALC X 1
     2 SEC2       13 GROUP        1 X    SEC  0     **** SEC X 2
     3 GLC5        1 GROUP        1 X    GLC  0     **** GLC X 6
     4 ALP1       18 GROUP        1 Y    ALP  0     ROOT ALP Y 8
     5 SEP2       15 GROUP        1 Y    SEP  0     **** SEP Y 9
     6 GLP5        3 GROUP        1 Y    GLP  0     **** GLP Y 13
     7 ALL1       17 GROUP        1 Z    ALL  0     ROOT ALL Z 15
     8 SEL2       14 GROUP        1 Z    SEL  0     **** SEL Z 16
     9 GLL5        2 GROUP        1 Z    GLL  0     **** GLL Z 20
@<TRIPOS>SET

