#    Name: 3kpc_MTA_2_ligand
#    Modification time : Mon Mar 24 20:02:42 2014

@<TRIPOS>MOLECULE
3kpc_MTA_2_ligand
   35    37     1     0     0
SMALL
NO_CHARGES


@<TRIPOS>ATOM
      1 CS          6.5680  -16.1740  -23.2990 C.3       1 MTA3615     0.0000 
      2 S5'         7.4050  -15.1430  -22.1230 S.3       1 MTA3615     0.0000 
      3 C5'         6.2920  -13.6660  -22.2170 C.3       1 MTA3615     0.0000 
      4 C4'         5.4160  -13.3970  -20.9450 C.3       1 MTA3615     0.0000 
      5 O4'         4.0330  -13.1600  -21.3510 O.3       1 MTA3615     0.0000 
      6 C2'         4.0180  -15.1860  -20.0390 C.3       1 MTA3615     0.0000 
      7 O2'         3.3960  -15.2870  -18.6890 O.3       1 MTA3615     0.0000 
      8 C3'         5.4270  -14.5930  -19.9830 C.3       1 MTA3615     0.0000 
      9 O3'         5.7610  -14.1500  -18.6100 O.3       1 MTA3615     0.0000 
     10 C1'         3.2040  -14.3010  -20.9760 C.3       1 MTA3615     0.0000 
     11 N9          2.8480  -15.2700  -22.0660 N.pl3     1 MTA3615     0.0000 
     12 C8          3.6660  -16.1250  -22.6890 C.2       1 MTA3615     0.0000 
     13 N7          2.9900  -16.8410  -23.5860 N.2       1 MTA3615     0.0000 
     14 C5          1.7240  -16.4490  -23.5310 C.ar      1 MTA3615     0.0000 
     15 C6          0.5710  -16.8200  -24.2060 C.ar      1 MTA3615     0.0000 
     16 N6          0.6060  -17.7700  -25.1410 N.pl3     1 MTA3615     0.0000 
     17 N1         -0.5860  -16.2140  -23.8900 N.ar      1 MTA3615     0.0000 
     18 C2         -0.6340  -15.2620  -22.9690 C.ar      1 MTA3615     0.0000 
     19 N3          0.4470  -14.8870  -22.3030 N.ar      1 MTA3615     0.0000 
     20 C4          1.6340  -15.4580  -22.5640 C.ar      1 MTA3615     0.0000 
     21 H           5.7036  -13.8855  -23.0930 H         1 MTA3615     0.0000 
     22 H           6.9919  -12.8719  -22.4201 H         1 MTA3615     0.0000 
     23 H           5.8123  -12.5410  -20.4393 H         1 MTA3615     0.0000 
     24 H           4.0926  -16.1677  -20.4939 H         1 MTA3615     0.0000 
     25 H           6.1175  -15.3127  -20.3457 H         1 MTA3615     0.0000 
     26 H           2.3249  -14.0217  -20.4441 H         1 MTA3615     0.0000 
     27 H           4.6289  -16.2107  -22.5085 H         1 MTA3615     0.0000 
     28 H           1.4625  -17.8550  -25.6501 H         1 MTA3615     0.0000 
     29 H          -0.2275  -18.3120  -25.2490 H         1 MTA3615     0.0000 
     30 H          -1.5608  -14.7898  -22.7611 H         1 MTA3615     0.0000 
     31 H           7.1075  -16.9824  -23.5345 H         1 MTA3615     0.0000 
     32 H           5.6898  -16.4996  -22.9487 H         1 MTA3615     0.0000 
     33 H           6.3810  -15.6876  -24.1525 H         1 MTA3615     0.0000 
     34 H           4.0240  -14.8048  -18.0782 H         1 MTA3615     0.0000 
     35 H           6.2990  -14.8977  -18.2207 H         1 MTA3615     0.0000 
@<TRIPOS>BOND
     1    2    1 1    
     2   31    1 1    
     3   32    1 1    
     4   33    1 1    
     5    3    2 1    
     6    4    3 1    
     7   21    3 1    
     8   22    3 1    
     9    5    4 1    
    10    8    4 1    
    11   23    4 1    
    12   10    5 1    
    13    7    6 1    
    14    8    6 1    
    15   10    6 1    
    16   24    6 1    
    17   34    7 1    
    18    9    8 1    
    19   25    8 1    
    20   35    9 1    
    21   11   10 1    
    22   26   10 1    
    23   12   11 1    
    24   20   11 1    
    25   13   12 2    
    26   27   12 1    
    27   14   13 1    
    28   15   14 ar   
    29   20   14 ar   
    30   16   15 1    
    31   17   15 ar   
    32   28   16 1    
    33   29   16 1    
    34   18   17 ar   
    35   19   18 ar   
    36   30   18 1    
    37   20   19 ar   
@<TRIPOS>SUBSTRUCTURE
     1 MTA3615     1 GROUP   
@<TRIPOS>SET

