#    Name: 3sgl_SAM_1_INTS_M
#    Modification time : Tue Mar 25 12:35:01 2014

@<TRIPOS>MOLECULE
3sgl_SAM_1_INTS_M
   76     0    12     0     0
SMALL
NO_CHARGES


@<TRIPOS>ATOM
      1 OD1        27.9255  -10.3405   34.2985 O.co2     3 ASC3        0.0000 
      2 OD1        29.3080  -10.9060   34.7560 O.co2    11 ASL3        0.0000 
      3 OD1        26.5430   -9.7750   33.8410 O.co2     7 ASP3        0.0000 
      4 OD1        29.5820  -10.7780   35.9470 O.co2     3 ASC3        0.0000 
      5 OD1        29.8560  -10.6500   37.1380 O.co2     7 ASP3        0.0000 
      6 O          27.9255  -10.3405   34.2985 O.2       1 ALC1        0.0000 
      7 O          29.3080  -10.9060   34.7560 O.2       9 ALL1        0.0000 
      8 O          26.5430   -9.7750   33.8410 O.2       5 ALP1        0.0000 
      9 O          29.5820  -10.7780   35.9470 O.2       1 ALC1        0.0000 
     10 O          29.8560  -10.6500   37.1380 O.2       5 ALP1        0.0000 
     11 CA         31.1540  -10.5080   31.7540 C.3       4 GLC5        0.0000 
     12 CA         30.2980  -11.1980   33.6920 C.3      12 GLL5        0.0000 
     13 CA         32.0100   -9.8180   29.8160 C.3       8 GLP5        0.0000 
     14 N          31.3050  -12.6025   30.7045 N.am      2 SEC2        0.0000 
     15 N          30.7590  -13.0470   32.1970 N.am     10 SEL2        0.0000 
     16 N          31.8510  -12.1580   29.2120 N.am      6 SEP2        0.0000 
     17 N          31.3640  -13.8865   31.2250 N.am      2 SEC2        0.0000 
     18 N          31.9690  -14.7260   30.2530 N.am      6 SEP2        0.0000 
     19 N          29.4995  -13.9555   31.5490 N.am      2 SEC2        0.0000 
     20 N          28.2400  -14.8640   30.9010 N.am      6 SEP2        0.0000 
     21 N          27.5750  -13.6790   33.0725 N.am      2 SEC2        0.0000 
     22 N          28.7730  -12.8440   32.9700 N.am     10 SEL2        0.0000 
     23 N          26.3770  -14.5140   33.1750 N.am      6 SEP2        0.0000 
     24 CA         32.2705  -10.0045   31.6825 C.3       4 GLC5        0.0000 
     25 CA         32.5310  -10.1910   33.5490 C.3      12 GLL5        0.0000 
     26 CA         31.6930   -6.3435   33.2585 C.3       4 GLC5        0.0000 
     27 CA         33.4780   -7.0150   33.5310 C.3      12 GLL5        0.0000 
     28 CA         29.9080   -5.6720   32.9860 C.3       8 GLP5        0.0000 
     29 CA         36.3980   -6.7175   33.6745 C.3       4 GLC5        0.0000 
     30 CA         34.6570   -6.9850   32.5620 C.3      12 GLL5        0.0000 
     31 CA         38.1390   -6.4500   34.7870 C.3       8 GLP5        0.0000 
     32 O          33.2590   -6.9145   30.6435 O.2       1 ALC1        0.0000 
     33 O          34.2680   -7.5600   31.3440 O.2       9 ALL1        0.0000 
     34 O          32.2500   -6.2690   29.9430 O.2       5 ALP1        0.0000 
     35 CA         36.3155   -4.2170   31.1575 C.3       4 GLC5        0.0000 
     36 CA         34.9410   -5.5150   32.3510 C.3      12 GLL5        0.0000 
     37 CA         37.6900   -2.9190   29.9640 C.3       8 GLP5        0.0000 
     38 CA         36.6005   -5.3905   33.1940 C.3       4 GLC5        0.0000 
     39 CA         38.2600   -5.2660   34.0370 C.3       8 GLP5        0.0000 
     40 O          33.7370   -5.7510   30.4795 O.2       1 ALC1        0.0000 
     41 O          35.2240   -5.2330   31.0160 O.2       9 ALL1        0.0000 
     42 O          34.4960   -5.0535   30.0730 O.2       1 ALC1        0.0000 
     43 O          33.7680   -4.8740   29.1300 O.2       5 ALP1        0.0000 
     44 CA         31.7735   -5.2765   32.8720 C.3       4 GLC5        0.0000 
     45 CA         33.6390   -4.8810   32.7580 C.3      12 GLL5        0.0000 
     46 CA         32.3745   -1.4715   35.2600 C.3       4 GLC5        0.0000 
     47 CA         33.5590   -1.3160   33.4770 C.3      12 GLL5        0.0000 
     48 CA         31.1900   -1.6270   37.0430 C.3       8 GLP5        0.0000 
     49 CA         32.6340    1.4130   31.6955 C.3       4 GLC5        0.0000 
     50 CA         32.9930   -0.0700   33.2370 C.3      12 GLL5        0.0000 
     51 CA         32.2750    2.8960   30.1540 C.3       8 GLP5        0.0000 
     52 CA         31.4335    0.6025   33.7460 C.3       4 GLC5        0.0000 
     53 CA         29.8740    1.2750   34.2550 C.3       8 GLP5        0.0000 
     54 CA         32.2820    0.1115   35.3175 C.3       4 GLC5        0.0000 
     55 CA         31.5710    0.2930   37.3980 C.3       8 GLP5        0.0000 
     56 O          33.1805    2.2445   33.3530 O.2       1 ALC1        0.0000 
     57 O          33.4000    1.0180   33.8870 O.2       9 ALL1        0.0000 
     58 O          32.9610    3.4710   32.8190 O.2       5 ALP1        0.0000 
     59 N          31.2360    1.2955   32.0095 N.am      2 SEC2        0.0000 
     60 N          31.9830    0.0270   32.3030 N.am     10 SEL2        0.0000 
     61 N          30.4890    2.5640   31.7160 N.am      6 SEP2        0.0000 
     62 CA         29.3520   -1.1710   31.2900 C.3       4 GLC5        0.0000 
     63 CA         31.5520   -1.0870   31.6240 C.3      12 GLL5        0.0000 
     64 CA         27.1520   -1.2550   30.9560 C.3       8 GLP5        0.0000 
     65 CA         31.0645   -2.2445   30.2000 C.3       4 GLC5        0.0000 
     66 CA         30.5770   -3.4020   28.7760 C.3       8 GLP5        0.0000 
     67 CA         32.9865   -0.8360   30.6695 C.3       4 GLC5        0.0000 
     68 CA         34.4210   -0.5850   29.7150 C.3       8 GLP5        0.0000 
     69 CA         31.9135    0.9045   30.8890 C.3       4 GLC5        0.0000 
     70 CA         30.7130    0.0940   32.9395 C.3       4 GLC5        0.0000 
     71 N          32.3550   -2.1740   30.4215 N.am      2 SEC2        0.0000 
     72 N          32.1250   -2.3020   31.8720 N.am     10 SEL2        0.0000 
     73 N          32.5850   -2.0460   28.9710 N.am      6 SEP2        0.0000 
     74 CA         32.9982   -6.6830   35.8663 C.3       4 GLC5        0.0000 
     75 CA         32.4150   -5.9320   37.5700 C.3       8 GLP5        0.0000 
     76 CA         33.8047   -1.0715   31.3933 C.3       4 GLC5        0.0000 
@<TRIPOS>BOND
@<TRIPOS>SUBSTRUCTURE
     1 ALC1        6 GROUP        1 X    ALC  0     ROOT ALC X 1
     2 SEC2       14 GROUP        1 X    SEC  0     **** SEC X 2
     3 ASC3        1 GROUP        1 X    ASC  0     **** ASC X 3
     4 GLC5       11 GROUP        1 X    GLC  0     **** GLC X 6
     5 ALP1        8 GROUP        1 Y    ALP  0     ROOT ALP Y 8
     6 SEP2       16 GROUP        1 Y    SEP  0     **** SEP Y 9
     7 ASP3        3 GROUP        1 Y    ASP  0     **** ASP Y 10
     8 GLP5       13 GROUP        1 Y    GLP  0     **** GLP Y 13
     9 ALL1        7 GROUP        1 Z    ALL  0     ROOT ALL Z 15
    10 SEL2       15 GROUP        1 Z    SEL  0     **** SEL Z 16
    11 ASL3        2 GROUP        1 Z    ASL  0     **** ASL Z 17
    12 GLL5       12 GROUP        1 Z    GLL  0     **** GLL Z 20
@<TRIPOS>SET

