#    Name: 3sgl_SAM_1_ligand
#    Modification time : Tue Mar 25 12:35:01 2014

@<TRIPOS>MOLECULE
3sgl_SAM_1_ligand
   50    52     1     0     0
SMALL
NO_CHARGES


@<TRIPOS>ATOM
      1 N          29.3080  -10.9060   34.7560 N.4       1 SAM692      0.0000 
      2 CA         30.2980  -11.1980   33.6920 C.3       1 SAM692      0.0000 
      3 C          29.9380  -12.4550   32.9160 C.2       1 SAM692      0.0000 
      4 O          30.7590  -13.0470   32.1970 O.co2     1 SAM692      0.0000 
      5 OXT        28.7730  -12.8440   32.9700 O.co2     1 SAM692      0.0000 
      6 CB         31.7010  -11.2460   34.2650 C.3       1 SAM692      0.0000 
      7 CG         32.5310  -10.1910   33.5490 C.3       1 SAM692      0.0000 
      8 SD         33.9680   -9.6320   34.4820 S.3       1 SAM692      0.0000 
      9 CE         33.7000  -10.4390   36.0960 C.3       1 SAM692      0.0000 
     10 C5'        33.6850   -7.8530   34.7940 C.3       1 SAM692      0.0000 
     11 C4'        33.4780   -7.0150   33.5310 C.3       1 SAM692      0.0000 
     12 O4'        33.2360   -5.6660   33.8570 O.3       1 SAM692      0.0000 
     13 C3'        34.6570   -6.9850   32.5620 C.3       1 SAM692      0.0000 
     14 O3'        34.2680   -7.5600   31.3440 O.3       1 SAM692      0.0000 
     15 C2'        34.9410   -5.5150   32.3510 C.3       1 SAM692      0.0000 
     16 O2'        35.2240   -5.2330   31.0160 O.3       1 SAM692      0.0000 
     17 C1'        33.6390   -4.8810   32.7580 C.3       1 SAM692      0.0000 
     18 N9         33.8190   -3.5040   33.2120 N.pl3     1 SAM692      0.0000 
     19 C8         34.6850   -3.0680   34.1800 C.2       1 SAM692      0.0000 
     20 N7         34.5110   -1.7390   34.3310 N.2       1 SAM692      0.0000 
     21 C5         33.5590   -1.3160   33.4770 C.ar      1 SAM692      0.0000 
     22 C6         32.9930   -0.0700   33.2370 C.ar      1 SAM692      0.0000 
     23 N6         33.4000    1.0180   33.8870 N.pl3     1 SAM692      0.0000 
     24 N1         31.9830    0.0270   32.3030 N.ar      1 SAM692      0.0000 
     25 C2         31.5520   -1.0870   31.6240 C.ar      1 SAM692      0.0000 
     26 N3         32.1250   -2.3020   31.8720 N.ar      1 SAM692      0.0000 
     27 C4         33.1010   -2.4230   32.7860 C.ar      1 SAM692      0.0000 
     28 H          30.2740  -10.3512   32.9689 H         1 SAM692      0.0000 
     29 H          32.1308  -12.2196   34.0938 H         1 SAM692      0.0000 
     30 H          31.6709  -11.0258   35.3198 H         1 SAM692      0.0000 
     31 H          31.9946   -9.2699   33.3740 H         1 SAM692      0.0000 
     32 H          32.9740  -10.5454   32.6298 H         1 SAM692      0.0000 
     33 H          34.5680   -7.5808   35.3518 H         1 SAM692      0.0000 
     34 H          32.8229   -7.8744   35.4430 H         1 SAM692      0.0000 
     35 H          32.6201   -7.4177   32.9830 H         1 SAM692      0.0000 
     36 H          35.4841   -7.4387   33.0172 H         1 SAM692      0.0000 
     37 H          35.6866   -5.2166   33.0397 H         1 SAM692      0.0000 
     38 H          32.9533   -4.9526   31.9603 H         1 SAM692      0.0000 
     39 H          35.3039   -3.6225   34.6606 H         1 SAM692      0.0000 
     40 H          32.9518    1.8753   33.6338 H         1 SAM692      0.0000 
     41 H          34.1174    0.8800   34.5699 H         1 SAM692      0.0000 
     42 H          30.7930   -1.0019   30.9254 H         1 SAM692      0.0000 
     43 H          28.8866  -11.7407   35.1104 H         1 SAM692      0.0000 
     44 H          29.7260  -10.4359   35.5333 H         1 SAM692      0.0000 
     45 H          28.5673  -10.3220   34.4240 H         1 SAM692      0.0000 
     46 H          33.7736  -11.4341   36.0304 H         1 SAM692      0.0000 
     47 H          34.3689  -10.1398   36.7764 H         1 SAM692      0.0000 
     48 H          32.7938  -10.2359   36.4668 H         1 SAM692      0.0000 
     49 H          33.5415   -6.9663   30.9980 H         1 SAM692      0.0000 
     50 H          34.3308   -5.1518   30.5738 H         1 SAM692      0.0000 
@<TRIPOS>BOND
     1    2    1 1    
     2   43    1 1    
     3   44    1 1    
     4   45    1 1    
     5    3    2 1    
     6    6    2 1    
     7   28    2 1    
     8    4    3 ar   
     9    5    3 ar   
    10    7    6 1    
    11   29    6 1    
    12   30    6 1    
    13    8    7 1    
    14   31    7 1    
    15   32    7 1    
    16    9    8 1    
    17   10    8 1    
    18   46    9 1    
    19   47    9 1    
    20   48    9 1    
    21   11   10 1    
    22   33   10 1    
    23   34   10 1    
    24   12   11 1    
    25   13   11 1    
    26   35   11 1    
    27   17   12 1    
    28   14   13 1    
    29   15   13 1    
    30   36   13 1    
    31   49   14 1    
    32   16   15 1    
    33   17   15 1    
    34   37   15 1    
    35   50   16 1    
    36   18   17 1    
    37   38   17 1    
    38   19   18 1    
    39   27   18 1    
    40   20   19 2    
    41   39   19 1    
    42   21   20 1    
    43   22   21 ar   
    44   27   21 ar   
    45   23   22 1    
    46   24   22 ar   
    47   40   23 1    
    48   41   23 1    
    49   25   24 ar   
    50   26   25 ar   
    51   42   25 1    
    52   27   26 ar   
@<TRIPOS>SUBSTRUCTURE
     1 SAM692      1 GROUP   
@<TRIPOS>SET

