#    Name: 3qcy_3Q3_1_INTS_M
#    Modification time : Tue Mar 25 09:38:59 2014

@<TRIPOS>MOLECULE
3qcy_3Q3_1_INTS_M
   82     0     9     0     0
SMALL
NO_CHARGES


@<TRIPOS>ATOM
      1 CA        -43.2890   15.1835   13.9270 C.3       3 GLC5        0.0000 
      2 CA        -42.8600   15.1180   11.8700 C.3       9 GLL5        0.0000 
      3 CA        -43.7180   15.2490   15.9840 C.3       6 GLP5        0.0000 
      4 CA        -44.7305   14.2725   12.0290 C.3       3 GLC5        0.0000 
      5 CA        -46.6010   13.4270   12.1880 C.3       6 GLP5        0.0000 
      6 CA        -47.3295   18.7160   12.4935 C.3       3 GLC5        0.0000 
      7 CA        -45.4340   19.1380   11.5730 C.3       9 GLL5        0.0000 
      8 CA        -49.2250   18.2940   13.4140 C.3       6 GLP5        0.0000 
      9 CA        -45.6745   19.4650    9.4845 C.3       3 GLC5        0.0000 
     10 CA        -45.9150   19.7920    7.3960 C.3       6 GLP5        0.0000 
     11 CA        -39.7635   13.7190   14.9710 C.3       3 GLC5        0.0000 
     12 CA        -39.6330   14.0450   12.9310 C.3       9 GLL5        0.0000 
     13 CA        -39.8940   13.3930   17.0110 C.3       6 GLP5        0.0000 
     14 CA        -38.8445   12.3810   13.9495 C.3       3 GLC5        0.0000 
     15 CA        -38.0560   10.7170   14.9680 C.3       6 GLP5        0.0000 
     16 CA        -38.6390   13.0250   11.2940 C.3       3 GLC5        0.0000 
     17 CA        -37.6450   12.0050    9.6570 C.3       6 GLP5        0.0000 
     18 CA        -47.4525   17.0145   12.2615 C.3       3 GLC5        0.0000 
     19 CA        -46.1520   17.1230   10.7690 C.3       9 GLL5        0.0000 
     20 CA        -48.7530   16.9060   13.7540 C.3       6 GLP5        0.0000 
     21 CA        -46.3765   15.2750   11.4785 C.3       3 GLC5        0.0000 
     22 CA        -44.6215   17.0750    9.4075 C.3       3 GLC5        0.0000 
     23 CA        -43.0910   17.0270    8.0460 C.3       6 GLP5        0.0000 
     24 CA        -46.5220   17.8695    9.0440 C.3       3 GLC5        0.0000 
     25 CA        -46.8920   18.6160    7.3190 C.3       6 GLP5        0.0000 
     26 CA        -48.1035   19.6610   12.5400 C.3       3 GLC5        0.0000 
     27 CA        -46.9820   21.0280   11.6660 C.3       9 GLL5        0.0000 
     28 N         -44.9100   15.9030    9.8090 N.am      2 SEC2        0.0000 
     29 N         -45.0390   16.4830   11.1520 N.am      8 SEL2        0.0000 
     30 N         -44.7810   15.3230    8.4660 N.am      5 SEP2        0.0000 
     31 N         -47.7970   18.4665   11.4445 N.am      2 SEC2        0.0000 
     32 N         -46.3800   18.4270   10.9520 N.am      8 SEL2        0.0000 
     33 N         -49.2140   18.5060   11.9370 N.am      5 SEP2        0.0000 
     34 O         -37.2175   13.4620   12.6750 O.2       1 ALC1        0.0000 
     35 O         -38.3940   14.2510   13.4610 O.2       7 ALL1        0.0000 
     36 O         -36.0410   12.6730   11.8890 O.2       4 ALP1        0.0000 
     37 O         -48.4155   16.8090    9.5935 O.2       1 ALC1        0.0000 
     38 O         -47.1560   16.3900   10.1260 O.2       7 ALL1        0.0000 
     39 O         -49.6750   17.2280    9.0610 O.2       4 ALP1        0.0000 
     40 O         -48.1860   22.1335    8.9575 O.2       1 ALC1        0.0000 
     41 O         -48.5900   23.1390    9.8060 O.2       7 ALL1        0.0000 
     42 O         -47.7820   21.1280    8.1090 O.2       4 ALP1        0.0000 
     43 N         -48.4105   24.6110   13.3430 N.am      2 SEC2        0.0000 
     44 N         -48.5120   23.7790   12.0280 N.am      8 SEL2        0.0000 
     45 N         -48.3090   25.4430   14.6580 N.am      5 SEP2        0.0000 
     46 CA        -53.9913   23.3775    9.0328 C.3       3 GLC5        0.0000 
     47 CA        -52.3130   24.8140    9.0860 C.3       9 GLL5        0.0000 
     48 CA        -55.8570   22.5190    9.3030 C.3       6 GLP5        0.0000 
     49 CA        -51.9603   21.8117    7.7810 C.3       3 GLC5        0.0000 
     50 CA        -51.9380   23.6580    8.4390 C.3       9 GLL5        0.0000 
     51 CA        -52.6000   20.2430    7.0030 C.3       6 GLP5        0.0000 
     52 CA        -50.4288   26.0585   11.9443 C.3       3 GLC5        0.0000 
     53 CA        -51.4510   25.4180    9.9730 C.3       9 GLL5        0.0000 
     54 CA        -50.0240   26.9760   13.7960 C.3       6 GLP5        0.0000 
     55 CA        -40.1377   15.8262   14.9853 C.3       3 GLC5        0.0000 
     56 CA        -40.6460   16.4430   13.0320 C.3       9 GLL5        0.0000 
     57 CA        -39.6550   15.8900   17.0700 C.3       6 GLP5        0.0000 
     58 CA        -42.1693   15.5058   14.4422 C.3       3 GLC5        0.0000 
     59 CA        -40.5850   16.0455   11.1740 C.3       3 GLC5        0.0000 
     60 CA        -39.9390   15.3200    9.4790 C.3       6 GLP5        0.0000 
     61 CA        -43.6453   17.0830   13.9352 C.3       3 GLC5        0.0000 
     62 CA        -41.8160   17.0990   12.7060 C.3       9 GLL5        0.0000 
     63 CA        -44.9310   17.3810   15.4500 C.3       6 GLP5        0.0000 
     64 CA        -51.2786   24.1137    7.0154 C.3       3 GLC5        0.0000 
     65 CA        -50.7030   23.1030    8.6790 C.3       9 GLL5        0.0000 
     66 CA        -51.1430   24.5580    5.3100 C.3       6 GLP5        0.0000 
     67 CA        -41.4103   15.5572   10.7407 C.3       3 GLC5        0.0000 
     68 CA        -42.9030   16.4710   12.1350 C.3       9 GLL5        0.0000 
     69 CA        -42.9862   16.4108   10.0242 C.3       3 GLC5        0.0000 
     70 CA        -43.6337   17.4548    9.9608 C.3       3 GLC5        0.0000 
     71 CA        -44.2550   18.5570   11.9890 C.3       9 GLL5        0.0000 
     72 CA        -41.3285   13.1818   13.8750 C.3       3 GLC5        0.0000 
     73 CA        -40.5950   15.0820   12.7690 C.3       9 GLL5        0.0000 
     74 CA        -42.5430   11.8000   14.9000 C.3       6 GLP5        0.0000 
     75 CA        -40.0265   14.9418   11.1645 C.3       3 GLC5        0.0000 
     76 CA        -44.8681   17.9456   13.5871 C.3       3 GLC5        0.0000 
     77 CA        -44.0980   17.2080   11.7620 C.3       9 GLL5        0.0000 
     78 CA        -45.7028   22.7915   13.7765 C.3       3 GLC5        0.0000 
     79 CA        -44.8460   21.1600   12.7850 C.3       9 GLL5        0.0000 
     80 CA        -46.6550   23.7260   15.0520 C.3       6 GLP5        0.0000 
     81 CA        -46.7600   22.7275   13.2230 C.3       3 GLC5        0.0000 
     82 CA        -46.7480   22.4300   11.1220 C.3       9 GLL5        0.0000 
@<TRIPOS>BOND
@<TRIPOS>SUBSTRUCTURE
     1 ALC1       34 GROUP        1 X    ALC  0     ROOT ALC X 1
     2 SEC2       28 GROUP        1 X    SEC  0     **** SEC X 2
     3 GLC5        1 GROUP        1 X    GLC  0     **** GLC X 6
     4 ALP1       36 GROUP        1 Y    ALP  0     ROOT ALP Y 8
     5 SEP2       30 GROUP        1 Y    SEP  0     **** SEP Y 9
     6 GLP5        3 GROUP        1 Y    GLP  0     **** GLP Y 13
     7 ALL1       35 GROUP        1 Z    ALL  0     ROOT ALL Z 15
     8 SEL2       29 GROUP        1 Z    SEL  0     **** SEL Z 16
     9 GLL5        2 GROUP        1 Z    GLL  0     **** GLL Z 20
@<TRIPOS>SET

