#    Name: 3qcy_3Q3_1_ligand
#    Modification time : Tue Mar 25 09:38:59 2014

@<TRIPOS>MOLECULE
3qcy_3Q3_1_ligand
   54    58     1     0     0
SMALL
NO_CHARGES


@<TRIPOS>ATOM
      1 C1        -52.3130   24.8140    9.0860 C.ar      1 3Q3371      0.0000 
      2 C2        -51.9380   23.6580    8.4390 C.ar      1 3Q3371      0.0000 
      3 C3        -51.4510   25.4180    9.9730 C.ar      1 3Q3371      0.0000 
      4 C4        -40.6460   16.4430   13.0320 C.ar      1 3Q3371      0.0000 
      5 C5        -41.8160   17.0990   12.7060 C.ar      1 3Q3371      0.0000 
      6 C6        -50.7030   23.1030    8.6790 C.ar      1 3Q3371      0.0000 
      7 C7        -50.2160   24.8640   10.2120 C.ar      1 3Q3371      0.0000 
      8 C8        -42.8600   15.1180   11.8700 C.ar      1 3Q3371      0.0000 
      9 C9        -44.2550   18.5570   11.9890 C.ar      1 3Q3371      0.0000 
     10 C10       -40.5950   15.0820   12.7690 C.ar      1 3Q3371      0.0000 
     11 C11       -42.9030   16.4710   12.1350 C.ar      1 3Q3371      0.0000 
     12 C12       -41.6950   14.4700   12.2100 C.ar      1 3Q3371      0.0000 
     13 C13       -49.8460   23.7080    9.5660 C.ar      1 3Q3371      0.0000 
     14 C14       -44.0980   17.2080   11.7620 C.ar      1 3Q3371      0.0000 
     15 C15       -45.4340   19.1380   11.5730 C.ar      1 3Q3371      0.0000 
     16 C16       -39.6330   14.0450   12.9310 C.2       1 3Q3371      0.0000 
     17 C17       -46.1520   17.1230   10.7690 C.ar      1 3Q3371      0.0000 
     18 C18       -48.0390   23.1910   11.0650 C.2       1 3Q3371      0.0000 
     19 C19       -44.8460   21.1600   12.7850 C.3       1 3Q3371      0.0000 
     20 C20       -46.9820   21.0280   11.6660 C.3       1 3Q3371      0.0000 
     21 C21       -44.6550   22.5540   12.2170 C.3       1 3Q3371      0.0000 
     22 C22       -46.7480   22.4300   11.1220 C.3       1 3Q3371      0.0000 
     23 N23       -45.0390   16.4830   11.1520 N.ar      1 3Q3371      0.0000 
     24 N24       -46.3800   18.4270   10.9520 N.ar      1 3Q3371      0.0000 
     25 N25       -40.1020   12.8730   12.4900 N.pl3     1 3Q3371      0.0000 
     26 N26       -41.3440   13.1560   12.0670 N.2       1 3Q3371      0.0000 
     27 N27       -45.6220   20.5300   11.7460 N.3       1 3Q3371      0.0000 
     28 N28       -38.3940   14.2510   13.4610 N.pl3     1 3Q3371      0.0000 
     29 N29       -47.1560   16.3900   10.1260 N.pl3     1 3Q3371      0.0000 
     30 N30       -48.5900   23.1390    9.8060 N.am      1 3Q3371      0.0000 
     31 O31       -48.5120   23.7790   12.0280 O.2       1 3Q3371      0.0000 
     32 O32       -45.9310   23.1790   12.0300 O.3       1 3Q3371      0.0000 
     33 H         -53.2422   25.2283    8.9055 H         1 3Q3371      0.0000 
     34 H         -52.5864   23.2071    7.7719 H         1 3Q3371      0.0000 
     35 H         -51.7323   26.2852   10.4573 H         1 3Q3371      0.0000 
     36 H         -39.8622   16.9282   13.4428 H         1 3Q3371      0.0000 
     37 H         -41.8815   18.1334   12.9039 H         1 3Q3371      0.0000 
     38 H         -50.4219   22.2365    8.1951 H         1 3Q3371      0.0000 
     39 H         -49.5663   25.3155   10.8763 H         1 3Q3371      0.0000 
     40 H         -43.6371   14.6343   11.4520 H         1 3Q3371      0.0000 
     41 H         -43.5313   19.1032   12.4448 H         1 3Q3371      0.0000 
     42 H         -45.3862   21.2315   13.6980 H         1 3Q3371      0.0000 
     43 H         -43.8932   20.7032   12.9033 H         1 3Q3371      0.0000 
     44 H         -47.5625   20.4809   10.9679 H         1 3Q3371      0.0000 
     45 H         -47.4327   21.1013   12.6226 H         1 3Q3371      0.0000 
     46 H         -44.1091   22.4642   11.2704 H         1 3Q3371      0.0000 
     47 H         -44.0275   23.1225   12.9135 H         1 3Q3371      0.0000 
     48 H         -46.3210   22.3842   10.1585 H         1 3Q3371      0.0000 
     49 H         -39.6639   12.0385   12.4776 H         1 3Q3371      0.0000 
     50 H         -37.6196   14.0021   12.8793 H         1 3Q3371      0.0000 
     51 H         -38.3686   14.6328   14.3849 H         1 3Q3371      0.0000 
     52 H         -47.9584   16.9083    9.8303 H         1 3Q3371      0.0000 
     53 H         -46.9849   15.4108   10.0174 H         1 3Q3371      0.0000 
     54 H         -48.0865   22.6833    9.0317 H         1 3Q3371      0.0000 
@<TRIPOS>BOND
     1    2    1 ar   
     2    3    1 ar   
     3   33    1 1    
     4    6    2 ar   
     5   34    2 1    
     6    7    3 ar   
     7   35    3 1    
     8    5    4 ar   
     9   10    4 ar   
    10   36    4 1    
    11   11    5 ar   
    12   37    5 1    
    13   13    6 ar   
    14   38    6 1    
    15   13    7 ar   
    16   39    7 1    
    17   11    8 ar   
    18   12    8 ar   
    19   40    8 1    
    20   14    9 ar   
    21   15    9 ar   
    22   41    9 1    
    23   12   10 ar   
    24   16   10 2    
    25   14   11 1    
    26   26   12 2    
    27   30   13 1    
    28   23   14 ar   
    29   24   15 ar   
    30   27   15 1    
    31   25   16 1    
    32   28   16 1    
    33   23   17 ar   
    34   24   17 ar   
    35   29   17 1    
    36   22   18 1    
    37   30   18 am   
    38   31   18 2    
    39   21   19 1    
    40   27   19 1    
    41   42   19 1    
    42   43   19 1    
    43   22   20 1    
    44   27   20 1    
    45   44   20 1    
    46   45   20 1    
    47   32   21 1    
    48   46   21 1    
    49   47   21 1    
    50   32   22 1    
    51   48   22 1    
    52   26   25 1    
    53   49   25 1    
    54   50   28 1    
    55   51   28 1    
    56   52   29 1    
    57   53   29 1    
    58   54   30 1    
@<TRIPOS>SUBSTRUCTURE
     1 3Q3371      1 GROUP   
@<TRIPOS>SET

