#    Name: 2ivd_ACJ_1_INTS_M
#    Modification time : Tue Mar 25 18:42:18 2014

@<TRIPOS>MOLECULE
2ivd_ACJ_1_INTS_M
   62     0     3     0     0
SMALL
NO_CHARGES


@<TRIPOS>ATOM
      1 CA         76.8295   34.4445   34.6350 C.3       1 GLC5        0.0000 
      2 CA         78.1210   35.7400   34.4570 C.3       3 GLL5        0.0000 
      3 CA         75.5380   33.1490   34.8130 C.3       2 GLP5        0.0000 
      4 CA         76.8175   38.1575   35.7865 C.3       1 GLC5        0.0000 
      5 CA         77.0430   36.5970   34.2010 C.3       3 GLL5        0.0000 
      6 CA         76.5920   39.7180   37.3720 C.3       2 GLP5        0.0000 
      7 CA         75.5165   36.7750   35.7600 C.3       1 GLC5        0.0000 
      8 CA         73.9900   36.9530   37.3190 C.3       2 GLP5        0.0000 
      9 CA         75.3215   38.5345   32.8765 C.3       1 GLC5        0.0000 
     10 CA         76.7170   36.9630   32.8930 C.3       3 GLL5        0.0000 
     11 CA         73.9260   40.1060   32.8600 C.3       2 GLP5        0.0000 
     12 CA         79.1350   38.2540   29.9885 C.3       1 GLC5        0.0000 
     13 CA         78.8870   36.4920   28.8810 C.3       3 GLL5        0.0000 
     14 CA         79.3830   40.0160   31.0960 C.3       2 GLP5        0.0000 
     15 CA         74.3520   32.9020   29.8510 C.3       1 GLC5        0.0000 
     16 CA         75.2430   34.7320   29.5900 C.3       3 GLL5        0.0000 
     17 CA         73.4610   31.0720   30.1120 C.3       2 GLP5        0.0000 
     18 CA         76.6385   33.3945   30.3010 C.3       1 GLC5        0.0000 
     19 CA         78.0340   32.0570   31.0120 C.3       2 GLP5        0.0000 
     20 CA         75.3900   33.9985   31.4490 C.3       1 GLC5        0.0000 
     21 CA         75.5370   33.2650   33.3080 C.3       2 GLP5        0.0000 
     22 CA         73.4195   34.3995   29.1825 C.3       1 GLC5        0.0000 
     23 CA         71.5960   34.0670   28.7750 C.3       2 GLP5        0.0000 
     24 CA         74.5940   36.1155   28.6015 C.3       1 GLC5        0.0000 
     25 CA         73.9450   37.4990   27.6130 C.3       2 GLP5        0.0000 
     26 CA         79.9060   35.5865   25.3095 C.3       1 GLC5        0.0000 
     27 CA         79.0760   33.9840   26.0170 C.3       3 GLL5        0.0000 
     28 CA         80.7360   37.1890   24.6020 C.3       2 GLP5        0.0000 
     29 CA         79.6145   31.6230   27.3635 C.3       1 GLC5        0.0000 
     30 CA         78.5540   32.7720   25.9980 C.3       3 GLL5        0.0000 
     31 CA         80.6750   30.4740   28.7290 C.3       2 GLP5        0.0000 
     32 CA         78.7415   30.8180   25.8565 C.3       1 GLC5        0.0000 
     33 CA         78.9290   28.8640   25.7150 C.3       2 GLP5        0.0000 
     34 CA         76.8840   32.0625   25.4315 C.3       1 GLC5        0.0000 
     35 CA         75.2140   31.3530   24.8650 C.3       2 GLP5        0.0000 
     36 CA         78.6795   32.6100   23.9185 C.3       1 GLC5        0.0000 
     37 CA         78.8050   32.4480   21.8390 C.3       2 GLP5        0.0000 
     38 CA         80.5360   32.1855   27.4075 C.3       1 GLC5        0.0000 
     39 CA         80.3970   33.8970   26.0860 C.3       3 GLL5        0.0000 
     40 CA         81.1930   35.2410   25.4270 C.3       1 GLC5        0.0000 
     41 CA         81.9890   36.5850   24.7680 C.3       2 GLP5        0.0000 
     42 CA         79.4015   35.8520   24.1410 C.3       1 GLC5        0.0000 
     43 CA         78.7330   34.5960   24.9040 C.3       3 GLL5        0.0000 
     44 CA         80.0700   37.1080   23.3780 C.3       2 GLP5        0.0000 
     45 CA         78.3870   33.7460   31.8350 C.3       1 GLC5        0.0000 
     46 CA         78.5560   35.6380   32.0200 C.3       3 GLL5        0.0000 
     47 CA         76.2085   35.0225   33.4275 C.3       1 GLC5        0.0000 
     48 CA         77.8913   38.4469   32.8690 C.3       1 GLC5        0.0000 
     49 CA         78.7150   40.2330   32.4600 C.3       2 GLP5        0.0000 
     50 CA         78.2470   37.9627   27.9415 C.3       1 GLC5        0.0000 
     51 CA         77.3870   39.7970   27.5570 C.3       2 GLP5        0.0000 
     52 CA         77.0024   34.4560   32.9576 C.3       1 GLC5        0.0000 
     53 CA         76.8435   35.0180   25.8347 C.3       1 GLC5        0.0000 
     54 CA         77.3010   34.4030   27.7400 C.3       3 GLL5        0.0000 
     55 CA         75.7610   35.4640   24.1970 C.3       2 GLP5        0.0000 
     56 CA         77.6518   33.5395   29.7284 C.3       1 GLC5        0.0000 
     57 CA         76.2403   36.6020   28.2479 C.3       1 GLC5        0.0000 
     58 CA         76.8280   35.0970   28.8500 C.3       3 GLL5        0.0000 
     59 CA         75.2110   38.1820   28.0510 C.3       2 GLP5        0.0000 
     60 CA         77.2675   34.7255   24.8264 C.3       1 GLC5        0.0000 
     61 CA         79.5354   33.9056   23.5744 C.3       1 GLC5        0.0000 
     62 CA         79.8360   33.5430   21.6710 C.3       2 GLP5        0.0000 
@<TRIPOS>BOND
@<TRIPOS>SUBSTRUCTURE
     1 GLC5        1 GROUP        1 X    GLC  0     ROOT GLC X 6
     2 GLP5        3 GROUP        1 Y    GLP  0     ROOT GLP Y 13
     3 GLL5        2 GROUP        1 Z    GLL  0     ROOT GLL Z 20
@<TRIPOS>SET

