#    Name: 2ivd_ACJ_1_ligand
#    Modification time : Tue Mar 25 18:42:18 2014

@<TRIPOS>MOLECULE
2ivd_ACJ_1_ligand
   30    31     1     0     0
SMALL
NO_CHARGES


@<TRIPOS>ATOM
      1 O3         79.9220   33.1230   33.7710 O.co2     1 ACJ1465     0.0000 
      2 C11        80.1060   34.3090   33.4150 C.2       1 ACJ1465     0.0000 
      3 O2         81.2490   34.7460   33.1320 O.co2     1 ACJ1465     0.0000 
      4 C9         78.5560   35.6380   32.0200 C.ar      1 ACJ1465     0.0000 
      5 C14        78.1210   35.7400   34.4570 C.ar      1 ACJ1465     0.0000 
      6 C8         77.4670   36.4860   31.8170 C.ar      1 ACJ1465     0.0000 
      7 N1         78.4030   35.4010   35.7420 N.pl3     1 ACJ1465     0.0000 
      8 C13        77.0430   36.5970   34.2010 C.ar      1 ACJ1465     0.0000 
      9 O5         79.4620   34.5510   36.0610 O.2       1 ACJ1465     0.0000 
     10 C12        76.7170   36.9630   32.8930 C.ar      1 ACJ1465     0.0000 
     11 O1         77.1480   36.8620   30.5400 O.3       1 ACJ1465     0.0000 
     12 C7         77.6480   36.1850   29.4490 C.ar      1 ACJ1465     0.0000 
     13 O4         77.6140   35.9090   36.7690 O.2       1 ACJ1465     0.0000 
     14 C6         78.8870   36.4920   28.8810 C.ar      1 ACJ1465     0.0000 
     15 C10        78.9240   35.2320   33.2960 C.ar      1 ACJ1465     0.0000 
     16 C4         76.8280   35.0970   28.8500 C.ar      1 ACJ1465     0.0000 
     17 C5         79.3270   35.7650   27.7710 C.ar      1 ACJ1465     0.0000 
     18 C2         78.5510   34.7410   27.2050 C.ar      1 ACJ1465     0.0000 
     19 CL1        75.2430   34.7320   29.5900 Cl        1 ACJ1465     0.0000 
     20 C3         77.3010   34.4030   27.7400 C.ar      1 ACJ1465     0.0000 
     21 C1         79.0760   33.9840   26.0170 C.3       1 ACJ1465     0.0000 
     22 F1         78.5540   32.7720   25.9980 F         1 ACJ1465     0.0000 
     23 F2         80.3970   33.8970   26.0860 F         1 ACJ1465     0.0000 
     24 F3         78.7330   34.5960   24.9040 F         1 ACJ1465     0.0000 
     25 H          79.0986   35.3064   31.2016 H         1 ACJ1465     0.0000 
     26 H          76.4851   36.9607   34.9877 H         1 ACJ1465     0.0000 
     27 H          75.9177   37.5891   32.7220 H         1 ACJ1465     0.0000 
     28 H          79.4639   37.2375   29.2713 H         1 ACJ1465     0.0000 
     29 H          80.2499   35.9857   27.3530 H         1 ACJ1465     0.0000 
     30 H          76.7474   33.6567   27.3181 H         1 ACJ1465     0.0000 
@<TRIPOS>BOND
     1    2    1 ar   
     2    3    2 ar   
     3   15    2 1    
     4    6    4 ar   
     5   15    4 ar   
     6   25    4 1    
     7    7    5 1    
     8    8    5 ar   
     9   15    5 ar   
    10   10    6 ar   
    11   11    6 1    
    12    9    7 2    
    13   13    7 2    
    14   10    8 ar   
    15   26    8 1    
    16   27   10 1    
    17   12   11 1    
    18   14   12 ar   
    19   16   12 ar   
    20   17   14 ar   
    21   28   14 1    
    22   19   16 1    
    23   20   16 ar   
    24   18   17 ar   
    25   29   17 1    
    26   20   18 ar   
    27   21   18 1    
    28   30   20 1    
    29   22   21 1    
    30   23   21 1    
    31   24   21 1    
@<TRIPOS>SUBSTRUCTURE
     1 ACJ1465     1 GROUP   
@<TRIPOS>SET

