#    Name: 3fkt_SII_1_INTS_M
#    Modification time : Tue Mar 25 05:39:30 2014

@<TRIPOS>MOLECULE
3fkt_SII_1_INTS_M
   66     0     9     0     0
SMALL
NO_CHARGES


@<TRIPOS>ATOM
      1 CA         34.4910   38.6350    3.1250 C.3       3 GLC5        0.0000 
      2 CA         32.8660   40.0550    2.7710 C.3       9 GLL5        0.0000 
      3 CA         36.1160   37.2150    3.4790 C.3       6 GLP5        0.0000 
      4 CA         32.1280   40.4000    4.6840 C.3       3 GLC5        0.0000 
      5 CA         31.3900   40.7450    6.5970 C.3       6 GLP5        0.0000 
      6 CA         35.6870   46.1520   -1.3775 C.3       3 GLC5        0.0000 
      7 CA         34.8910   45.4960   -2.7380 C.3       9 GLL5        0.0000 
      8 CA         36.4830   46.8080   -0.0170 C.3       6 GLP5        0.0000 
      9 CA         32.6210   37.1700   -0.1465 C.3       3 GLC5        0.0000 
     10 CA         31.9090   38.4130    1.1060 C.3       9 GLL5        0.0000 
     11 CA         33.3330   35.9270   -1.3990 C.3       6 GLP5        0.0000 
     12 CA         29.3305   41.3000    3.6030 C.3       3 GLC5        0.0000 
     13 CA         30.4720   40.2690    2.0240 C.3       9 GLL5        0.0000 
     14 CA         28.1890   42.3310    5.1820 C.3       6 GLP5        0.0000 
     15 CA         29.4435   36.5455   -0.9375 C.3       3 GLC5        0.0000 
     16 CA         28.2140   37.9180   -0.0620 C.3       9 GLL5        0.0000 
     17 CA         30.6730   35.1730   -1.8130 C.3       6 GLP5        0.0000 
     18 CA         33.0365   38.4285   -2.8970 C.3       3 GLC5        0.0000 
     19 CA         33.4980   40.3460   -3.3670 C.3       9 GLL5        0.0000 
     20 CA         32.5750   36.5110   -2.4270 C.3       6 GLP5        0.0000 
     21 CA         35.1045   39.7725   -2.7180 C.3       3 GLC5        0.0000 
     22 CA         36.7110   39.1990   -2.0690 C.3       6 GLP5        0.0000 
     23 O          36.0925   43.4200   -1.3585 O.2       1 ALC1        0.0000 
     24 O          34.9680   43.7710   -0.8350 O.2       7 ALL1        0.0000 
     25 O          37.2170   43.0690   -1.8820 O.2       4 ALP1        0.0000 
     26 O          31.0410   38.6890    3.2935 O.2       1 ALC1        0.0000 
     27 O          31.6400   39.3290    2.2380 O.2       7 ALL1        0.0000 
     28 O          30.4420   38.0490    4.3490 O.2       4 ALP1        0.0000 
     29 N          28.7245   39.5770   -4.4930 N.am      2 SEC2        0.0000 
     30 N          28.4450   39.2480   -3.0630 N.am      8 SEL2        0.0000 
     31 N          29.0040   39.9060   -5.9230 N.am      5 SEP2        0.0000 
     32 CA         30.3485   37.4460   -1.2045 C.3       3 GLC5        0.0000 
     33 CA         29.4570   38.7550    0.2450 C.3       9 GLL5        0.0000 
     34 CA         31.2400   36.1370   -2.6540 C.3       6 GLP5        0.0000 
     35 CA         30.6365   36.4745   -0.5965 C.3       3 GLC5        0.0000 
     36 CA         30.6000   37.7760    0.6200 C.3       9 GLL5        0.0000 
     37 CA         34.8478   44.9690    0.9517 C.3       3 GLC5        0.0000 
     38 CA         33.5250   43.4020    1.0740 C.3       9 GLL5        0.0000 
     39 CA         35.7200   46.7580    1.3210 C.3       6 GLP5        0.0000 
     40 CA         30.7263   38.4382   -2.8102 C.3       3 GLC5        0.0000 
     41 CA         30.4730   40.3190   -1.5080 C.3       9 GLL5        0.0000 
     42 CA         30.4270   36.7930   -3.7540 C.3       6 GLP5        0.0000 
     43 CA         30.2562   41.0237   -3.3213 C.3       3 GLC5        0.0000 
     44 CA         31.5780   39.8480   -2.2250 C.3       9 GLL5        0.0000 
     45 CA         29.4870   41.9640   -4.7760 C.3       6 GLP5        0.0000 
     46 CA         30.1062   42.0655   -3.1665 C.3       3 GLC5        0.0000 
     47 CA         31.1740   42.6420   -1.8010 C.3       9 GLL5        0.0000 
     48 CA         30.9295   41.7325   -3.6895 C.3       3 GLC5        0.0000 
     49 CA         32.2830   42.1860   -2.5060 C.3       9 GLL5        0.0000 
     50 CA         23.0227   33.4705    2.1152 C.3       3 GLC5        0.0000 
     51 CA         24.0650   35.6830    1.8750 C.3       9 GLL5        0.0000 
     52 CA         21.9880   31.9040    2.7670 C.3       6 GLP5        0.0000 
     53 CA         24.6917   35.6590    3.6930 C.3       3 GLC5        0.0000 
     54 CA         24.7380   35.1500    5.6610 C.3       6 GLP5        0.0000 
     55 CA         22.4707   34.9480    0.1643 C.3       3 GLC5        0.0000 
     56 CA         20.8840   34.8590   -1.1350 C.3       6 GLP5        0.0000 
     57 CA         23.5832   37.2170    2.8760 C.3       3 GLC5        0.0000 
     58 CA         22.5210   38.2660    4.0270 C.3       6 GLP5        0.0000 
     59 CA         33.0004   40.1015   -4.6429 C.3       3 GLC5        0.0000 
     60 CA         33.2420   39.8640   -6.3710 C.3       6 GLP5        0.0000 
     61 CA         34.8240   41.0899    3.1560 C.3       3 GLC5        0.0000 
     62 CA         33.4280   41.1120    1.8430 C.3       9 GLL5        0.0000 
     63 CA         35.9470   41.0800    4.8100 C.3       6 GLP5        0.0000 
     64 CA         25.4935   32.6553    1.8068 C.3       3 GLC5        0.0000 
     65 CA         25.3780   33.8980    0.4630 C.3       9 GLL5        0.0000 
     66 CA         26.2730   31.1660    2.8560 C.3       6 GLP5        0.0000 
@<TRIPOS>BOND
@<TRIPOS>SUBSTRUCTURE
     1 ALC1       23 GROUP        1 X    ALC  0     ROOT ALC X 1
     2 SEC2       29 GROUP        1 X    SEC  0     **** SEC X 2
     3 GLC5        1 GROUP        1 X    GLC  0     **** GLC X 6
     4 ALP1       25 GROUP        1 Y    ALP  0     ROOT ALP Y 8
     5 SEP2       31 GROUP        1 Y    SEP  0     **** SEP Y 9
     6 GLP5        3 GROUP        1 Y    GLP  0     **** GLP Y 13
     7 ALL1       24 GROUP        1 Z    ALL  0     ROOT ALL Z 15
     8 SEL2       30 GROUP        1 Z    SEL  0     **** SEL Z 16
     9 GLL5        2 GROUP        1 Z    GLL  0     **** GLL Z 20
@<TRIPOS>SET

