#    Name: 3fkt_SII_1_ligand
#    Modification time : Tue Mar 25 05:39:31 2014

@<TRIPOS>MOLECULE
3fkt_SII_1_ligand
   72    76     1     0     0
SMALL
NO_CHARGES


@<TRIPOS>ATOM
      1 C1         34.8350   41.6210   -0.0400 C.ar      1 SII406      0.0000 
      2 C2         34.4260   42.9580    0.0910 C.ar      1 SII406      0.0000 
      3 C3         33.5250   43.4020    1.0740 C.ar      1 SII406      0.0000 
      4 C7         32.8660   40.0550    2.7710 C.3       1 SII406      0.0000 
      5 C8         34.2920   44.9160   -1.4700 C.2       1 SII406      0.0000 
      6 C9         34.8910   45.4960   -2.7380 C.3       1 SII406      0.0000 
      7 C10        31.5780   39.8480   -2.2250 C.ar      1 SII406      0.0000 
      8 C11        30.4730   40.3190   -1.5080 C.ar      1 SII406      0.0000 
      9 C12        30.2770   41.6920   -1.3130 C.ar      1 SII406      0.0000 
     10 C13        31.1740   42.6420   -1.8010 C.ar      1 SII406      0.0000 
     11 C14        32.2830   42.1860   -2.5060 C.ar      1 SII406      0.0000 
     12 C15        32.4610   40.8160   -2.7000 C.ar      1 SII406      0.0000 
     13 C16        29.1670   39.7340    1.3990 C.3       1 SII406      0.0000 
     14 C19        31.9090   38.4130    1.1060 C.3       1 SII406      0.0000 
     15 C20        30.4720   40.2690    2.0240 C.3       1 SII406      0.0000 
     16 C21        28.2140   37.9180   -0.0620 C.2       1 SII406      0.0000 
     17 C22        28.5770   38.9670   -1.8740 C.2       1 SII406      0.0000 
     18 C24        26.2760   35.0260   -0.0550 C.3       1 SII406      0.0000 
     19 C27        24.0650   35.6830    1.8750 C.3       1 SII406      0.0000 
     20 F1         33.4980   40.3460   -3.3670 F         1 SII406      0.0000 
     21 N1         34.9680   43.7710   -0.8350 N.am      1 SII406      0.0000 
     22 O1         33.2840   45.4210   -1.0090 O.2       1 SII406      0.0000 
     23 N2         31.6400   39.3290    2.2380 N.4       1 SII406      0.0000 
     24 O2         28.4450   39.2480   -3.0630 O.2       1 SII406      0.0000 
     25 N3         29.5930   39.4000   -1.0620 N.am      1 SII406      0.0000 
     26 C4         33.0130   42.4520    1.9730 C.ar      1 SII406      0.0000 
     27 N4         27.6930   38.1970   -1.2160 N.pl3     1 SII406      0.0000 
     28 C5         33.4280   41.1120    1.8430 C.ar      1 SII406      0.0000 
     29 N5         27.4540   37.1750    0.9480 N.pl3     1 SII406      0.0000 
     30 C6         34.3220   40.6820    0.8640 C.ar      1 SII406      0.0000 
     31 C17        29.4570   38.7550    0.2450 C.3       1 SII406      0.0000 
     32 C18        30.6000   37.7760    0.6200 C.3       1 SII406      0.0000 
     33 C23        25.3780   33.8980    0.4630 C.3       1 SII406      0.0000 
     34 C25        26.5270   36.0520    1.0440 C.3       1 SII406      0.0000 
     35 C26        25.2260   36.6530    1.5750 C.3       1 SII406      0.0000 
     36 C28        24.0500   34.3910    1.0520 C.3       1 SII406      0.0000 
     37 H          35.4816   41.3455   -0.7669 H         1 SII406      0.0000 
     38 H          33.2549   44.3720    1.1317 H         1 SII406      0.0000 
     39 H          33.6553   39.3091    2.9888 H         1 SII406      0.0000 
     40 H          32.6084   40.5254    3.7402 H         1 SII406      0.0000 
     41 H          31.7237   38.8721   -2.3861 H         1 SII406      0.0000 
     42 H          29.4374   42.0099   -0.7887 H         1 SII406      0.0000 
     43 H          31.0214   43.6307   -1.6463 H         1 SII406      0.0000 
     44 H          32.9663   42.8510   -2.8814 H         1 SII406      0.0000 
     45 H          28.5858   40.5715    1.0186 H         1 SII406      0.0000 
     46 H          28.5902   39.2208    2.1656 H         1 SII406      0.0000 
     47 H          32.5875   37.6157    1.4110 H         1 SII406      0.0000 
     48 H          32.3584   38.9547    0.2732 H         1 SII406      0.0000 
     49 H          30.2067   40.7463    3.0114 H         1 SII406      0.0000 
     50 H          30.8192   41.1396    1.3958 H         1 SII406      0.0000 
     51 H          25.7900   35.5100   -0.8980 H         1 SII406      0.0000 
     52 H          27.2237   34.6059   -0.3813 H         1 SII406      0.0000 
     53 H          23.1092   36.2203    1.7152 H         1 SII406      0.0000 
     54 H          24.0960   35.4214    2.9513 H         1 SII406      0.0000 
     55 H          35.9650   43.6149   -1.1691 H         1 SII406      0.0000 
     56 H          31.3061   38.6538    3.1187 H         1 SII406      0.0000 
     57 H          32.3607   42.7220    2.6983 H         1 SII406      0.0000 
     58 H          26.8328   37.9179   -1.5649 H         1 SII406      0.0000 
     59 H          27.6527   37.6199    1.9976 H         1 SII406      0.0000 
     60 H          34.5989   39.7047    0.8044 H         1 SII406      0.0000 
     61 H          30.2234   37.0876    1.4047 H         1 SII406      0.0000 
     62 H          30.8169   37.1413   -0.2641 H         1 SII406      0.0000 
     63 H          25.9219   33.3340    1.2346 H         1 SII406      0.0000 
     64 H          25.1651   33.2031   -0.3623 H         1 SII406      0.0000 
     65 H          26.8802   35.4336    1.9751 H         1 SII406      0.0000 
     66 H          25.4506   37.2254    2.5071 H         1 SII406      0.0000 
     67 H          24.8615   37.4171    0.8469 H         1 SII406      0.0000 
     68 H          23.3177   34.5141    0.2143 H         1 SII406      0.0000 
     69 H          23.6210   33.5736    1.6852 H         1 SII406      0.0000 
     70 H          35.8231   45.8270   -2.5908 H         1 SII406      0.0000 
     71 H          34.9331   44.8186   -3.4724 H         1 SII406      0.0000 
     72 H          34.3566   46.2682   -3.0817 H         1 SII406      0.0000 
@<TRIPOS>BOND
     1    2    1 ar   
     2   30    1 ar   
     3   37    1 1    
     4    3    2 ar   
     5   21    2 1    
     6   26    3 ar   
     7   38    3 1    
     8   23    4 1    
     9   28    4 1    
    10   39    4 1    
    11   40    4 1    
    12    6    5 1    
    13   21    5 am   
    14   22    5 2    
    15   70    6 1    
    16   71    6 1    
    17   72    6 1    
    18    8    7 ar   
    19   12    7 ar   
    20   41    7 1    
    21    9    8 ar   
    22   25    8 1    
    23   10    9 ar   
    24   42    9 1    
    25   11   10 ar   
    26   43   10 1    
    27   12   11 ar   
    28   44   11 1    
    29   20   12 1    
    30   15   13 1    
    31   31   13 1    
    32   45   13 1    
    33   46   13 1    
    34   23   14 1    
    35   32   14 1    
    36   47   14 1    
    37   48   14 1    
    38   23   15 1    
    39   49   15 1    
    40   50   15 1    
    41   27   16 2    
    42   29   16 1    
    43   31   16 1    
    44   24   17 2    
    45   25   17 am   
    46   27   17 1    
    47   33   18 1    
    48   34   18 1    
    49   51   18 1    
    50   52   18 1    
    51   35   19 1    
    52   36   19 1    
    53   53   19 1    
    54   54   19 1    
    55   55   21 1    
    56   56   23 1    
    57   31   25 1    
    58   28   26 ar   
    59   57   26 1    
    60   58   27 1    
    61   30   28 ar   
    62   34   29 1    
    63   59   29 1    
    64   60   30 1    
    65   32   31 1    
    66   61   32 1    
    67   62   32 1    
    68   36   33 1    
    69   63   33 1    
    70   64   33 1    
    71   35   34 1    
    72   65   34 1    
    73   66   35 1    
    74   67   35 1    
    75   68   36 1    
    76   69   36 1    
@<TRIPOS>SUBSTRUCTURE
     1 SII406      1 GROUP   
@<TRIPOS>SET

