#    Name: 2znn_S44_1_INTS_M
#    Modification time : Tue Mar 25 10:52:22 2014

@<TRIPOS>MOLECULE
2znn_S44_1_INTS_M
  105     0     6     0     0
SMALL
NO_CHARGES


@<TRIPOS>ATOM
      1 N          13.4180    3.8820   -0.7150 N.am      1 SEC2        0.0000 
      2 N          14.4920    3.1990   -0.7210 N.am      5 SEL2        0.0000 
      3 N          12.3440    4.5650   -0.7090 N.am      3 SEP2        0.0000 
      4 N          14.7170    2.9890    0.6115 N.am      1 SEC2        0.0000 
      5 N          14.9420    2.7790    1.9440 N.am      3 SEP2        0.0000 
      6 N          15.1150    1.9500    0.5020 N.am      1 SEC2        0.0000 
      7 N          15.2880    1.1210   -0.9400 N.am      5 SEL2        0.0000 
      8 N          14.8960   -0.1985   -1.2140 N.am      1 SEC2        0.0000 
      9 N          14.5040   -1.5180   -1.4880 N.am      3 SEP2        0.0000 
     10 N          15.5325    0.3390    0.1405 N.am      1 SEC2        0.0000 
     11 N          15.7770   -0.4430    1.2210 N.am      3 SEP2        0.0000 
     12 CA         16.9065    3.8335   -3.4970 C.3       2 GLC5        0.0000 
     13 CA         16.0350    2.3260   -3.9330 C.3       6 GLL5        0.0000 
     14 CA         17.7780    5.3410   -3.0610 C.3       4 GLP5        0.0000 
     15 CA         11.1675   -0.0235   -1.8810 C.3       2 GLC5        0.0000 
     16 CA         12.6280    1.2700   -2.3900 C.3       6 GLL5        0.0000 
     17 CA          9.7070   -1.3170   -1.3720 C.3       4 GLP5        0.0000 
     18 CA         13.4810   -0.5665   -1.4210 C.3       2 GLC5        0.0000 
     19 CA         14.3340   -2.4030   -0.4520 C.3       4 GLP5        0.0000 
     20 CA         11.4245   -0.4810   -7.6720 C.3       2 GLC5        0.0000 
     21 CA         10.8470    0.1360   -5.6360 C.3       6 GLL5        0.0000 
     22 CA         12.0020   -1.0980   -9.7080 C.3       4 GLP5        0.0000 
     23 CA          7.4400    0.2970   -5.6610 C.3       2 GLC5        0.0000 
     24 CA          8.3930    0.1290   -7.1720 C.3       6 GLL5        0.0000 
     25 CA          6.4870    0.4650   -4.1500 C.3       4 GLP5        0.0000 
     26 CA         10.3730   -0.8720   -9.0610 C.3       2 GLC5        0.0000 
     27 CA          8.7440   -0.6460   -8.4140 C.3       6 GLL5        0.0000 
     28 CA          9.3595   -2.9115   -8.7815 C.3       2 GLC5        0.0000 
     29 CA          7.9250   -1.9090   -8.4430 C.3       6 GLL5        0.0000 
     30 CA         10.7940   -3.9140   -9.1200 C.3       4 GLP5        0.0000 
     31 CA          7.6420   -2.9090   -6.8520 C.3       2 GLC5        0.0000 
     32 CA          7.3590   -3.9090   -5.2610 C.3       4 GLP5        0.0000 
     33 CA         11.1195    3.5610   -6.5020 C.3       2 GLC5        0.0000 
     34 CA          9.2800    3.6520   -5.3640 C.3       6 GLL5        0.0000 
     35 CA         12.9590    3.4700   -7.6400 C.3       4 GLP5        0.0000 
     36 CA          7.4105    3.2095   -4.5465 C.3       2 GLC5        0.0000 
     37 CA          5.5410    2.7670   -3.7290 C.3       4 GLP5        0.0000 
     38 CA         11.3505    5.8945   -6.9060 C.3       2 GLC5        0.0000 
     39 CA          9.4310    6.1920   -7.9920 C.3       6 GLL5        0.0000 
     40 CA         13.2700    5.5970   -5.8200 C.3       4 GLP5        0.0000 
     41 CA         11.3260    4.4725   -8.4325 C.3       2 GLC5        0.0000 
     42 CA          9.6930    5.4750   -9.2250 C.3       6 GLL5        0.0000 
     43 CA          8.3310    8.7145  -15.4005 C.3       2 GLC5        0.0000 
     44 CA          9.7520    9.0340  -14.0130 C.3       6 GLL5        0.0000 
     45 CA          6.9100    8.3950  -16.7880 C.3       4 GLP5        0.0000 
     46 CA          9.6005    8.1895  -16.0750 C.3       2 GLC5        0.0000 
     47 CA         11.1050    8.5530  -14.5840 C.3       6 GLL5        0.0000 
     48 CA          8.0960    7.8260  -17.5660 C.3       4 GLP5        0.0000 
     49 CA          8.7495   10.9335  -10.9175 C.3       2 GLC5        0.0000 
     50 CA         10.6070    9.9910  -11.3620 C.3       6 GLL5        0.0000 
     51 CA          6.8920   11.8760  -10.4730 C.3       4 GLP5        0.0000 
     52 CA          8.4975   11.9300  -14.0050 C.3       2 GLC5        0.0000 
     53 CA          9.8310   10.5410  -13.6800 C.3       6 GLL5        0.0000 
     54 CA          7.1640   13.3190  -14.3300 C.3       4 GLP5        0.0000 
     55 CA         13.1623    1.5077   -0.4205 C.3       2 GLC5        0.0000 
     56 CA         13.9170    2.0790   -2.5780 C.3       6 GLL5        0.0000 
     57 CA         13.0520    1.3410    1.6430 C.3       4 GLP5        0.0000 
     58 CA         17.1125    1.4100   -4.6723 C.3       2 GLC5        0.0000 
     59 CA         14.7770    1.5120   -3.7240 C.3       6 GLL5        0.0000 
     60 CA         18.8190    0.9010   -5.5160 C.3       4 GLP5        0.0000 
     61 CA         14.4050    3.0979   -4.8235 C.3       2 GLC5        0.0000 
     62 CA         13.6190    4.1350   -6.1050 C.3       4 GLP5        0.0000 
     63 CA         12.4782    3.0038   -4.9350 C.3       2 GLC5        0.0000 
     64 CA         11.7380    1.2930   -3.6090 C.3       6 GLL5        0.0000 
     65 CA          8.2720    1.1752   -4.8375 C.3       2 GLC5        0.0000 
     66 CA         10.0830    2.4680   -5.0880 C.3       6 GLL5        0.0000 
     67 CA         11.7055    2.2404   -6.6102 C.3       2 GLC5        0.0000 
     68 CA         12.4877   -0.9688   -5.7710 C.3       2 GLC5        0.0000 
     69 CA         13.7090   -2.0730   -6.4880 C.3       4 GLP5        0.0000 
     70 CA          8.4452   -0.7543  -10.4812 C.3       2 GLC5        0.0000 
     71 CA          8.5560   -0.2310  -12.5340 C.3       4 GLP5        0.0000 
     72 CA          7.1347   -1.9367   -9.7437 C.3       2 GLC5        0.0000 
     73 CA          5.9350   -2.5960  -11.0590 C.3       4 GLP5        0.0000 
     74 CA          7.1769    0.2581   -8.6780 C.3       2 GLC5        0.0000 
     75 CA          6.1070    1.6000   -9.2380 C.3       4 GLP5        0.0000 
     76 CA         11.9812    8.3438   -9.4142 C.3       2 GLC5        0.0000 
     77 CA          9.9170    8.3600   -9.1490 C.3       6 GLL5        0.0000 
     78 CA         13.9160    8.6730   -9.0550 C.3       4 GLP5        0.0000 
     79 CA          9.6859    8.2480   -6.7391 C.3       2 GLC5        0.0000 
     80 CA          9.6680    8.8610   -4.9130 C.3       4 GLP5        0.0000 
     81 CA          8.0584    7.6122   -9.9965 C.3       2 GLC5        0.0000 
     82 CA          9.5500    7.6280   -7.9710 C.3       6 GLL5        0.0000 
     83 CA          6.1620    7.3930  -10.5140 C.3       4 GLP5        0.0000 
     84 CA          8.0280    5.9526   -9.9334 C.3       2 GLC5        0.0000 
     85 CA         10.0640    6.2070  -10.4230 C.3       6 GLL5        0.0000 
     86 CA          6.2430    5.8850  -10.3510 C.3       4 GLP5        0.0000 
     87 CA         12.5658    8.4460  -10.5053 C.3       2 GLC5        0.0000 
     88 CA         10.5400    8.4590  -11.6600 C.3       6 GLL5        0.0000 
     89 CA          7.8313    8.2033  -12.6750 C.3       2 GLC5        0.0000 
     90 CA          9.4270    8.2430  -12.7210 C.3       6 GLL5        0.0000 
     91 CA          6.0730    7.7680  -11.9830 C.3       4 GLP5        0.0000 
     92 CA         12.4552    7.8302  -15.4605 C.3       2 GLC5        0.0000 
     93 CA         13.2470    6.9940  -16.8600 C.3       4 GLP5        0.0000 
     94 CA         13.4383    9.7267  -11.7752 C.3       2 GLC5        0.0000 
     95 CA         12.2220    8.7800  -13.5380 C.3       6 GLL5        0.0000 
     96 CA         14.6120    9.9170  -10.1770 C.3       4 GLP5        0.0000 
     97 CA         12.6950   10.1510  -11.0900 C.3       2 GLC5        0.0000 
     98 CA         10.9490   10.7790  -12.6440 C.3       6 GLL5        0.0000 
     99 CA         12.7155   12.0980  -12.8407 C.3       2 GLC5        0.0000 
    100 CA         12.3070   10.2930  -13.2090 C.3       6 GLL5        0.0000 
    101 CA         13.8030   13.6600  -12.7550 C.3       4 GLP5        0.0000 
    102 CA         13.1991   10.2619  -14.9460 C.3       2 GLC5        0.0000 
    103 CA         14.4130   11.0440  -16.2570 C.3       4 GLP5        0.0000 
    104 CA          9.8019   10.3841  -15.7896 C.3       2 GLC5        0.0000 
    105 CA          9.4740   11.1010  -17.5900 C.3       4 GLP5        0.0000 
@<TRIPOS>BOND
@<TRIPOS>SUBSTRUCTURE
     1 SEC2        1 GROUP        1 X    SEC  0     ROOT SEC X 2
     2 GLC5       12 GROUP        1 X    GLC  0     **** GLC X 6
     3 SEP2        3 GROUP        1 Y    SEP  0     ROOT SEP Y 9
     4 GLP5       14 GROUP        1 Y    GLP  0     **** GLP Y 13
     5 SEL2        2 GROUP        1 Z    SEL  0     ROOT SEL Z 16
     6 GLL5       13 GROUP        1 Z    GLL  0     **** GLL Z 20
@<TRIPOS>SET

