#    Name: 2znn_S44_1_ligand
#    Modification time : Tue Mar 25 10:52:22 2014

@<TRIPOS>MOLECULE
2znn_S44_1_ligand
   77    81     1     0     0
SMALL
NO_CHARGES


@<TRIPOS>ATOM
      1 O33        14.4920    3.1990   -0.7210 O.co2     1 S44901      0.0000 
      2 O34        15.2880    1.1210   -0.9400 O.co2     1 S44901      0.0000 
      3 C1         14.6200    2.0500   -1.3840 C.2       1 S44901      0.0000 
      4 C2         13.9170    2.0790   -2.5780 C.3       1 S44901      0.0000 
      5 C3         14.7770    1.5120   -3.7240 C.3       1 S44901      0.0000 
      6 C4         16.0350    2.3260   -3.9330 C.3       1 S44901      0.0000 
      7 C5         12.6280    1.2700   -2.3900 C.3       1 S44901      0.0000 
      8 C6         11.7380    1.2930   -3.6090 C.ar      1 S44901      0.0000 
      9 C7         10.9370    2.4520   -3.9210 C.ar      1 S44901      0.0000 
     10 C8         10.0830    2.4680   -5.0880 C.ar      1 S44901      0.0000 
     11 C9         10.0310    1.3030   -5.9620 C.ar      1 S44901      0.0000 
     12 C10        10.8470    0.1360   -5.6360 C.ar      1 S44901      0.0000 
     13 C11        11.6860    0.1350   -4.4720 C.ar      1 S44901      0.0000 
     14 O37         9.2060    1.3080   -7.0960 O.3       1 S44901      0.0000 
     15 C30         8.3930    0.1290   -7.1720 C.3       1 S44901      0.0000 
     16 C31         8.7440   -0.6460   -8.4140 C.3       1 S44901      0.0000 
     17 C32         7.9250   -1.9090   -8.4430 C.3       1 S44901      0.0000 
     18 C12         9.2800    3.6520   -5.3640 C.3       1 S44901      0.0000 
     19 N35         9.6870    4.3510   -6.5650 N.am      1 S44901      0.0000 
     20 C13         9.0420    5.5400   -6.8320 C.2       1 S44901      0.0000 
     21 O36         8.1550    6.0060   -6.0980 O.2       1 S44901      0.0000 
     22 C14         9.4310    6.1920   -7.9920 C.ar      1 S44901      0.0000 
     23 C15         9.5500    7.6280   -7.9710 C.ar      1 S44901      0.0000 
     24 C16         9.9170    8.3600   -9.1490 C.ar      1 S44901      0.0000 
     25 C17        10.1760    7.6690  -10.3980 C.ar      1 S44901      0.0000 
     26 C18        10.0640    6.2070  -10.4230 C.ar      1 S44901      0.0000 
     27 C19         9.6930    5.4750   -9.2250 C.ar      1 S44901      0.0000 
     28 C20        10.5400    8.4590  -11.6600 C.3       1 S44901      0.0000 
     29 C21         9.4270    8.2430  -12.7210 C.3       1 S44901      0.0000 
     30 C22         9.7520    9.0340  -14.0130 C.3       1 S44901      0.0000 
     31 C23        11.1050    8.5530  -14.5840 C.3       1 S44901      0.0000 
     32 C24        12.2220    8.7800  -13.5380 C.3       1 S44901      0.0000 
     33 C25        11.8910    7.9790  -12.2510 C.3       1 S44901      0.0000 
     34 C26        10.6070    9.9910  -11.3620 C.3       1 S44901      0.0000 
     35 C27        10.9490   10.7790  -12.6440 C.3       1 S44901      0.0000 
     36 C28        12.3070   10.2930  -13.2090 C.3       1 S44901      0.0000 
     37 C29         9.8310   10.5410  -13.6800 C.3       1 S44901      0.0000 
     38 H          13.6280    3.0895   -2.8504 H         1 S44901      0.0000 
     39 H          14.1814    1.5114   -4.6399 H         1 S44901      0.0000 
     40 H          15.0412    0.4794   -3.4841 H         1 S44901      0.0000 
     41 H          12.0814    1.6763   -1.5275 H         1 S44901      0.0000 
     42 H          12.8971    0.2318   -2.1504 H         1 S44901      0.0000 
     43 H          10.9724    3.2664   -3.3151 H         1 S44901      0.0000 
     44 H          10.8124   -0.6738   -6.2439 H         1 S44901      0.0000 
     45 H          12.2470   -0.6802   -4.2500 H         1 S44901      0.0000 
     46 H           7.3266    0.3823   -7.2115 H         1 S44901      0.0000 
     47 H           8.5507   -0.5204   -6.3023 H         1 S44901      0.0000 
     48 H           9.7996   -0.8960   -8.4020 H         1 S44901      0.0000 
     49 H           8.5233   -0.0479   -9.2918 H         1 S44901      0.0000 
     50 H           9.3295    4.3443   -4.4905 H         1 S44901      0.0000 
     51 H           8.2061    3.3601   -5.4440 H         1 S44901      0.0000 
     52 H          10.3986    3.9656   -7.1458 H         1 S44901      0.0000 
     53 H           9.3694    8.1309   -7.1010 H         1 S44901      0.0000 
     54 H           9.9981    9.3718   -9.1154 H         1 S44901      0.0000 
     55 H          10.2475    5.7113  -11.2828 H         1 S44901      0.0000 
     56 H           9.6180    4.4708   -9.2513 H         1 S44901      0.0000 
     57 H           8.4843    8.5899  -12.3195 H         1 S44901      0.0000 
     58 H           9.3630    7.1890  -12.9561 H         1 S44901      0.0000 
     59 H           8.9862    8.8687  -14.7267 H         1 S44901      0.0000 
     60 H          11.3350    9.1155  -15.4766 H         1 S44901      0.0000 
     61 H          11.0410    7.4994  -14.8119 H         1 S44901      0.0000 
     62 H          13.1468    8.4514  -13.9322 H         1 S44901      0.0000 
     63 H          11.8180    6.9296  -12.4961 H         1 S44901      0.0000 
     64 H          12.6732    8.1390  -11.5235 H         1 S44901      0.0000 
     65 H          11.3714   10.1665  -10.6161 H         1 S44901      0.0000 
     66 H           9.6448   10.3139  -10.9861 H         1 S44901      0.0000 
     67 H          11.0071   11.8121  -12.4172 H         1 S44901      0.0000 
     68 H          12.5324   10.8395  -14.1113 H         1 S44901      0.0000 
     69 H          13.0766   10.4520  -12.4700 H         1 S44901      0.0000 
     70 H           8.8874   10.8634  -13.2673 H         1 S44901      0.0000 
     71 H          10.0553   11.0923  -14.5802 H         1 S44901      0.0000 
     72 H          16.6090    2.3394   -3.1142 H         1 S44901      0.0000 
     73 H          16.5943    1.9608   -4.6771 H         1 S44901      0.0000 
     74 H          15.8281    3.2773   -4.1615 H         1 S44901      0.0000 
     75 H           8.1235   -2.4619   -9.2523 H         1 S44901      0.0000 
     76 H           8.1014   -2.4844   -7.6444 H         1 S44901      0.0000 
     77 H           6.9440   -1.7153   -8.4538 H         1 S44901      0.0000 
@<TRIPOS>BOND
     1    3    1 ar   
     2    3    2 ar   
     3    4    3 1    
     4    5    4 1    
     5    7    4 1    
     6   38    4 1    
     7    6    5 1    
     8   39    5 1    
     9   40    5 1    
    10   72    6 1    
    11   73    6 1    
    12   74    6 1    
    13    8    7 1    
    14   41    7 1    
    15   42    7 1    
    16    9    8 ar   
    17   13    8 ar   
    18   10    9 ar   
    19   43    9 1    
    20   11   10 ar   
    21   18   10 1    
    22   12   11 ar   
    23   14   11 1    
    24   13   12 ar   
    25   44   12 1    
    26   45   13 1    
    27   15   14 1    
    28   16   15 1    
    29   46   15 1    
    30   47   15 1    
    31   17   16 1    
    32   48   16 1    
    33   49   16 1    
    34   75   17 1    
    35   76   17 1    
    36   77   17 1    
    37   19   18 1    
    38   50   18 1    
    39   51   18 1    
    40   20   19 am   
    41   52   19 1    
    42   21   20 2    
    43   22   20 1    
    44   23   22 ar   
    45   27   22 ar   
    46   24   23 ar   
    47   53   23 1    
    48   25   24 ar   
    49   54   24 1    
    50   26   25 ar   
    51   28   25 1    
    52   27   26 ar   
    53   55   26 1    
    54   56   27 1    
    55   29   28 1    
    56   33   28 1    
    57   34   28 1    
    58   30   29 1    
    59   57   29 1    
    60   58   29 1    
    61   31   30 1    
    62   37   30 1    
    63   59   30 1    
    64   32   31 1    
    65   60   31 1    
    66   61   31 1    
    67   33   32 1    
    68   36   32 1    
    69   62   32 1    
    70   63   33 1    
    71   64   33 1    
    72   35   34 1    
    73   65   34 1    
    74   66   34 1    
    75   36   35 1    
    76   37   35 1    
    77   67   35 1    
    78   68   36 1    
    79   69   36 1    
    80   70   37 1    
    81   71   37 1    
@<TRIPOS>SUBSTRUCTURE
     1 S44901      1 GROUP   
@<TRIPOS>SET

