#    Name: 2b8l_5HA_1_INTS_M
#    Modification time : Mon Mar 24 20:21:37 2014

@<TRIPOS>MOLECULE
2b8l_5HA_1_INTS_M
   94     0     9     0     0
SMALL
NO_CHARGES


@<TRIPOS>ATOM
      1 CA         24.4975   37.0605    3.1775 C.3       3 GLC5        0.0000 
      2 CA         26.3510   36.1890    2.5230 C.3       9 GLL5        0.0000 
      3 CA         22.6440   37.9320    3.8320 C.3       6 GLP5        0.0000 
      4 CA         30.3740   36.1615    4.7105 C.3       3 GLC5        0.0000 
      5 CA         30.8030   37.5220    2.9770 C.3       9 GLL5        0.0000 
      6 CA         29.9450   34.8010    6.4440 C.3       6 GLP5        0.0000 
      7 CA         31.2850   38.9210    4.6335 C.3       3 GLC5        0.0000 
      8 CA         31.7670   40.3200    6.2900 C.3       6 GLP5        0.0000 
      9 O          31.0920   40.6530    3.1780 O.2       1 ALC1        0.0000 
     10 O          30.8790   39.7120    2.0350 O.2       7 ALL1        0.0000 
     11 O          31.3050   41.5940    4.3210 O.2       4 ALP1        0.0000 
     12 N          29.9015   39.6690   -1.5205 N.am      2 SEC2        0.0000 
     13 N          29.8870   39.4610    0.0010 N.am      8 SEL2        0.0000 
     14 N          29.9160   39.8770   -3.0420 N.am      5 SEP2        0.0000 
     15 O          31.8860   36.7325    4.7135 O.2       1 ALC1        0.0000 
     16 O          31.4810   36.2790    3.1410 O.2       7 ALL1        0.0000 
     17 O          32.2910   37.1860    6.2860 O.2       4 ALP1        0.0000 
     18 O          32.5300   36.2650    3.9580 O.2       1 ALC1        0.0000 
     19 O          33.5790   36.2510    4.7750 O.2       4 ALP1        0.0000 
     20 CA         32.4215   39.4425    4.3290 C.3       3 GLC5        0.0000 
     21 CA         33.0760   38.5650    2.3680 C.3       9 GLL5        0.0000 
     22 CA         28.7010   45.5500    2.8085 C.3       3 GLC5        0.0000 
     23 CA         29.0920   44.2990    1.0720 C.3       9 GLL5        0.0000 
     24 CA         28.3100   46.8010    4.5450 C.3       6 GLP5        0.0000 
     25 CA         27.9175   40.3780   -0.5775 C.3       3 GLC5        0.0000 
     26 CA         28.5300   41.9660    0.5900 C.3       9 GLL5        0.0000 
     27 CA         27.3050   38.7900   -1.7450 C.3       6 GLP5        0.0000 
     28 N          31.9435   45.3970    0.1575 N.am      2 SEC2        0.0000 
     29 N          31.4420   46.0700    1.6050 N.am      8 SEL2        0.0000 
     30 N          32.4450   44.7240   -1.2900 N.am      5 SEP2        0.0000 
     31 CA         26.0740   41.1770   -1.5500 C.3       3 GLC5        0.0000 
     32 CA         26.1150   42.9320   -0.8000 C.3       9 GLL5        0.0000 
     33 CA         26.0330   39.4220   -2.3000 C.3       6 GLP5        0.0000 
     34 CA         24.6765   42.2970    0.5045 C.3       3 GLC5        0.0000 
     35 CA         23.2380   41.6620    1.8090 C.3       6 GLP5        0.0000 
     36 N          26.0510   45.3745    3.6980 N.am      2 SEC2        0.0000 
     37 N          26.4980   45.1150    2.3010 N.am      8 SEL2        0.0000 
     38 N          25.6040   45.6340    5.0950 N.am      5 SEP2        0.0000 
     39 CA         32.8990   38.5205   -0.7075 C.3       3 GLC5        0.0000 
     40 CA         33.7200   40.0050    0.3100 C.3       9 GLL5        0.0000 
     41 CA         32.0780   37.0360   -1.7250 C.3       6 GLP5        0.0000 
     42 O          31.7040   43.0515    3.7025 O.2       1 ALC1        0.0000 
     43 O          32.1030   44.5090    3.0840 O.2       7 ALL1        0.0000 
     44 CA         35.6730   43.7620    5.2465 C.3       3 GLC5        0.0000 
     45 CA         34.4390   44.5080    3.8880 C.3       9 GLL5        0.0000 
     46 CA         36.9070   43.0160    6.6050 C.3       6 GLP5        0.0000 
     47 CA         36.3680   44.1840    3.0960 C.3       3 GLC5        0.0000 
     48 CA         38.2970   43.8600    2.3040 C.3       6 GLP5        0.0000 
     49 CA         31.9690   42.4925    6.2210 C.3       3 GLC5        0.0000 
     50 CA         32.1710   44.6650    6.1520 C.3       9 GLL5        0.0000 
     51 CA         32.6360   49.3925    7.0560 C.3       3 GLC5        0.0000 
     52 CA         31.9930   47.3820    6.8210 C.3       9 GLL5        0.0000 
     53 CA         33.2790   51.4030    7.2910 C.3       6 GLP5        0.0000 
     54 CA         30.0925   47.7640    6.0310 C.3       3 GLC5        0.0000 
     55 CA         28.1920   48.1460    5.2410 C.3       6 GLP5        0.0000 
     56 CA         25.6280   35.0822    4.2568 C.3       3 GLC5        0.0000 
     57 CA         24.7370   34.6660    5.7470 C.3       6 GLP5        0.0000 
     58 CA         27.2597   33.3195    3.1935 C.3       3 GLC5        0.0000 
     59 CA         26.6870   34.8080    3.0100 C.3       9 GLL5        0.0000 
     60 CA         27.3390   31.4480    3.7580 C.3       6 GLP5        0.0000 
     61 CA         32.6815   37.0190    1.2861 C.3       3 GLC5        0.0000 
     62 CA         33.2330   35.7710    0.1380 C.3       6 GLP5        0.0000 
     63 CA         30.4662   42.1208   -0.6938 C.3       3 GLC5        0.0000 
     64 CA         30.7330   42.5670    1.4570 C.3       9 GLL5        0.0000 
     65 CA         30.6500   42.1640   -2.6190 C.3       6 GLP5        0.0000 
     66 CA         29.4644   42.4691    3.1346 C.3       3 GLC5        0.0000 
     67 CA         29.8320   41.5880    1.0060 C.3       9 GLL5        0.0000 
     68 CA         28.5960   41.9340    4.8980 C.3       6 GLP5        0.0000 
     69 CA         29.4905   42.4057   -1.0063 C.3       3 GLC5        0.0000 
     70 CA         27.2685   42.2897    2.3243 C.3       3 GLC5        0.0000 
     71 CA         26.2060   41.9320    4.0420 C.3       6 GLP5        0.0000 
     72 CA         35.6525   41.1040    3.7090 C.3       3 GLC5        0.0000 
     73 CA         34.5650   40.5900    2.5280 C.3       9 GLL5        0.0000 
     74 CA         36.3650   41.0800    5.1760 C.3       6 GLP5        0.0000 
     75 CA         35.2741   38.6381    2.9274 C.3       3 GLC5        0.0000 
     76 CA         36.5520   37.4020    3.5710 C.3       6 GLP5        0.0000 
     77 CA         34.7458   45.5373    5.4923 C.3       3 GLC5        0.0000 
     78 CA         35.7330   46.1750    7.1200 C.3       6 GLP5        0.0000 
     79 CA         34.7678   45.7593    2.3518 C.3       3 GLC5        0.0000 
     80 CA         35.7770   46.6190    0.8390 C.3       6 GLP5        0.0000 
     81 CA         34.0460   45.6653    6.3950 C.3       3 GLC5        0.0000 
     82 CA         32.5470   45.6460    5.1880 C.3       9 GLL5        0.0000 
     83 CA         30.3975   46.5628    4.9548 C.3       3 GLC5        0.0000 
     84 CA         33.7335   45.9548    7.3697 C.3       3 GLC5        0.0000 
     85 CA         31.7740   45.0460    7.4420 C.3       9 GLL5        0.0000 
     86 CA         30.2010   45.7613    8.6442 C.3       3 GLC5        0.0000 
     87 CA         31.6940   46.4230    7.7970 C.3       9 GLL5        0.0000 
     88 CA         28.6680   45.7880    9.6690 C.3       6 GLP5        0.0000 
     89 CA         29.9116   45.6436    6.4140 C.3       3 GLC5        0.0000 
     90 CA         27.9900   45.6480    5.5310 C.3       6 GLP5        0.0000 
     91 CA         33.8555   48.2582    5.5920 C.3       3 GLC5        0.0000 
     92 CA         35.5030   49.3240    5.0030 C.3       6 GLP5        0.0000 
     93 CA         33.9705   46.6837    6.6505 C.3       3 GLC5        0.0000 
     94 CA         32.4230   47.0030    5.5410 C.3       9 GLL5        0.0000 
@<TRIPOS>BOND
@<TRIPOS>SUBSTRUCTURE
     1 ALC1        9 GROUP        1 X    ALC  0     ROOT ALC X 1
     2 SEC2       12 GROUP        1 X    SEC  0     **** SEC X 2
     3 GLC5        1 GROUP        1 X    GLC  0     **** GLC X 6
     4 ALP1       11 GROUP        1 Y    ALP  0     ROOT ALP Y 8
     5 SEP2       14 GROUP        1 Y    SEP  0     **** SEP Y 9
     6 GLP5        3 GROUP        1 Y    GLP  0     **** GLP Y 13
     7 ALL1       10 GROUP        1 Z    ALL  0     ROOT ALL Z 15
     8 SEL2       13 GROUP        1 Z    SEL  0     **** SEL Z 16
     9 GLL5        2 GROUP        1 Z    GLL  0     **** GLL Z 20
@<TRIPOS>SET

