#    Name: 2b8l_5HA_1_ligand
#    Modification time : Mon Mar 24 20:21:37 2014

@<TRIPOS>MOLECULE
2b8l_5HA_1_ligand
   78    81     1     0     0
SMALL
NO_CHARGES


@<TRIPOS>ATOM
      1 C1         26.3510   36.1890    2.5230 C.3       1 5HA386      0.0000 
      2 C2         27.6740   35.5740    2.2480 C.3       1 5HA386      0.0000 
      3 C3         26.6870   34.8080    3.0100 C.3       1 5HA386      0.0000 
      4 N1         28.7390   36.1050    3.1150 N.4       1 5HA386      0.0000 
      5 C4         29.4720   37.1040    2.3060 C.3       1 5HA386      0.0000 
      6 C5         30.8030   37.5220    2.9770 C.3       1 5HA386      0.0000 
      7 C6         31.5650   38.4160    2.0240 C.3       1 5HA386      0.0000 
      8 N2         30.8790   39.7120    2.0350 N.am      1 5HA386      0.0000 
      9 C7         30.1950   40.1720    0.9560 C.2       1 5HA386      0.0000 
     10 O2         29.8870   39.4610    0.0010 O.2       1 5HA386      0.0000 
     11 O3         31.4810   36.2790    3.1410 O.3       1 5HA386      0.0000 
     12 C8         33.0760   38.5650    2.3680 C.3       1 5HA386      0.0000 
     13 C9         29.8320   41.5880    1.0060 C.ar      1 5HA386      0.0000 
     14 C10        30.7330   42.5670    1.4570 C.ar      1 5HA386      0.0000 
     15 C11        30.3830   43.9310    1.5110 C.ar      1 5HA386      0.0000 
     16 C12        29.0920   44.2990    1.0720 C.ar      1 5HA386      0.0000 
     17 C13        28.1320   43.3290    0.6230 C.ar      1 5HA386      0.0000 
     18 C14        28.5300   41.9660    0.5900 C.ar      1 5HA386      0.0000 
     19 C15        31.3360   44.9360    2.0430 C.2       1 5HA386      0.0000 
     20 N3         26.7880   43.6240    0.3260 N.pl3     1 5HA386      0.0000 
     21 O4         31.4420   46.0700    1.6050 O.2       1 5HA386      0.0000 
     22 C16        26.1150   42.9320   -0.8000 C.3       1 5HA386      0.0000 
     23 S1         25.9620   44.8620    1.0060 S.o2      1 5HA386      0.0000 
     24 C23        26.3100   46.3310    0.0220 C.3       1 5HA386      0.0000 
     25 O5         24.5520   44.5630    0.9080 O.2       1 5HA386      0.0000 
     26 O6         26.4980   45.1150    2.3010 O.2       1 5HA386      0.0000 
     27 C24        33.7200   40.0050    0.3100 C.ar      1 5HA386      0.0000 
     28 C25        34.4600   41.0710   -0.2550 C.ar      1 5HA386      0.0000 
     29 C26        35.2490   41.8810    0.5760 C.ar      1 5HA386      0.0000 
     30 C27        35.3150   41.6660    1.9560 C.ar      1 5HA386      0.0000 
     31 C28        34.5650   40.5900    2.5280 C.ar      1 5HA386      0.0000 
     32 C29        33.7790   39.7520    1.7110 C.ar      1 5HA386      0.0000 
     33 N4         32.1030   44.5090    3.0840 N.am      1 5HA386      0.0000 
     34 C17        33.0780   45.2910    3.8410 C.3       1 5HA386      0.0000 
     35 C18        34.4390   44.5080    3.8880 C.3       1 5HA386      0.0000 
     36 C30        32.5470   45.6460    5.1880 C.ar      1 5HA386      0.0000 
     37 C31        32.1710   44.6650    6.1520 C.ar      1 5HA386      0.0000 
     38 C32        31.7740   45.0460    7.4420 C.ar      1 5HA386      0.0000 
     39 C33        31.6940   46.4230    7.7970 C.ar      1 5HA386      0.0000 
     40 C34        31.9930   47.3820    6.8210 C.ar      1 5HA386      0.0000 
     41 C35        32.4230   47.0030    5.5410 C.ar      1 5HA386      0.0000 
     42 H          25.8084   36.1030    1.7478 H         1 5HA386      0.0000 
     43 H          26.4402   36.7882    3.2549 H         1 5HA386      0.0000 
     44 H          27.7189   35.2807    1.3770 H         1 5HA386      0.0000 
     45 H          26.2573   34.1792    2.4343 H         1 5HA386      0.0000 
     46 H          26.8891   34.8643    3.9414 H         1 5HA386      0.0000 
     47 H          28.8666   38.0073    2.1665 H         1 5HA386      0.0000 
     48 H          29.7068   36.7006    1.3141 H         1 5HA386      0.0000 
     49 H          30.5903   37.9981    3.8724 H         1 5HA386      0.0000 
     50 H          31.4871   37.9866    1.0238 H         1 5HA386      0.0000 
     51 H          30.9453   40.2580    2.9131 H         1 5HA386      0.0000 
     52 H          33.5885   37.6310    2.0752 H         1 5HA386      0.0000 
     53 H          33.1717   38.6474    3.4656 H         1 5HA386      0.0000 
     54 H          31.6815   42.2801    1.7587 H         1 5HA386      0.0000 
     55 H          28.8195   45.2948    1.0698 H         1 5HA386      0.0000 
     56 H          27.8735   41.2541    0.2644 H         1 5HA386      0.0000 
     57 H          33.1402   39.4124   -0.2852 H         1 5HA386      0.0000 
     58 H          34.4166   41.2445   -1.2576 H         1 5HA386      0.0000 
     59 H          35.7937   42.6547    0.1557 H         1 5HA386      0.0000 
     60 H          35.8815   42.2554    2.5552 H         1 5HA386      0.0000 
     61 H          34.6055   40.4354    3.5374 H         1 5HA386      0.0000 
     62 H          32.0081   43.4911    3.4129 H         1 5HA386      0.0000 
     63 H          33.2848   46.2218    3.2848 H         1 5HA386      0.0000 
     64 H          32.1945   43.6744    5.8897 H         1 5HA386      0.0000 
     65 H          31.5377   44.3356    8.1413 H         1 5HA386      0.0000 
     66 H          31.4269   46.6905    8.7336 H         1 5HA386      0.0000 
     67 H          31.8955   48.3846    7.0467 H         1 5HA386      0.0000 
     68 H          32.6527   47.7288    4.8454 H         1 5HA386      0.0000 
     69 H          26.5735   43.1076   -1.6712 H         1 5HA386      0.0000 
     70 H          26.1005   41.9404   -0.6711 H         1 5HA386      0.0000 
     71 H          25.1655   43.2281   -0.9036 H         1 5HA386      0.0000 
     72 H          27.2861   46.5481    0.0112 H         1 5HA386      0.0000 
     73 H          26.0246   46.2168   -0.9296 H         1 5HA386      0.0000 
     74 H          25.8345   47.1363    0.3760 H         1 5HA386      0.0000 
     75 H          34.8071   44.3477    2.9721 H         1 5HA386      0.0000 
     76 H          35.1371   45.0072    4.4012 H         1 5HA386      0.0000 
     77 H          34.3381   43.6137    4.3240 H         1 5HA386      0.0000 
     78 H          32.2377   36.4773    3.7640 H         1 5HA386      0.0000 
@<TRIPOS>BOND
     1    2    1 1    
     2    3    1 1    
     3   42    1 1    
     4   43    1 1    
     5    3    2 1    
     6    4    2 1    
     7   44    2 1    
     8   45    3 1    
     9   46    3 1    
    10    5    4 1    
    11    6    5 1    
    12   47    5 1    
    13   48    5 1    
    14    7    6 1    
    15   11    6 1    
    16   49    6 1    
    17    8    7 1    
    18   12    7 1    
    19   50    7 1    
    20    9    8 am   
    21   51    8 1    
    22   10    9 2    
    23   13    9 1    
    24   78   11 1    
    25   32   12 1    
    26   52   12 1    
    27   53   12 1    
    28   14   13 ar   
    29   18   13 ar   
    30   15   14 ar   
    31   54   14 1    
    32   16   15 ar   
    33   19   15 1    
    34   17   16 ar   
    35   55   16 1    
    36   18   17 ar   
    37   20   17 1    
    38   56   18 1    
    39   21   19 2    
    40   33   19 am   
    41   22   20 1    
    42   23   20 1    
    43   69   22 1    
    44   70   22 1    
    45   71   22 1    
    46   24   23 1    
    47   25   23 2    
    48   26   23 2    
    49   72   24 1    
    50   73   24 1    
    51   74   24 1    
    52   28   27 ar   
    53   32   27 ar   
    54   57   27 1    
    55   29   28 ar   
    56   58   28 1    
    57   30   29 ar   
    58   59   29 1    
    59   31   30 ar   
    60   60   30 1    
    61   32   31 ar   
    62   61   31 1    
    63   34   33 1    
    64   62   33 1    
    65   35   34 1    
    66   36   34 1    
    67   63   34 1    
    68   75   35 1    
    69   76   35 1    
    70   77   35 1    
    71   37   36 ar   
    72   41   36 ar   
    73   38   37 ar   
    74   64   37 1    
    75   39   38 ar   
    76   65   38 1    
    77   40   39 ar   
    78   66   39 1    
    79   41   40 ar   
    80   67   40 1    
    81   68   41 1    
@<TRIPOS>SUBSTRUCTURE
     1 5HA386      1 GROUP   
@<TRIPOS>SET

