#    Name: 3uwl_FOZ_2_INTS_M
#    Modification time : Mon Mar 24 23:39:15 2014

@<TRIPOS>MOLECULE
3uwl_FOZ_2_INTS_M
   55     0     9     0     0
SMALL
NO_CHARGES


@<TRIPOS>ATOM
      1 N          45.8065   16.5040   20.7220 N.am      2 SEC2        0.0000 
      2 N          45.7800   17.7360   20.0740 N.am      8 SEL2        0.0000 
      3 N          45.8330   15.2720   21.3700 N.am      5 SEP2        0.0000 
      4 N          43.6660   22.7460   23.2140 N.am      2 SEC2        0.0000 
      5 N          44.2530   22.6490   21.6240 N.am      8 SEL2        0.0000 
      6 N          43.0790   22.8430   24.8040 N.am      5 SEP2        0.0000 
      7 N          44.6995   24.0430   21.8900 N.am      2 SEC2        0.0000 
      8 N          45.1460   25.4370   22.1560 N.am      5 SEP2        0.0000 
      9 CA         46.9295   24.2955   19.4965 C.3       3 GLC5        0.0000 
     10 CA         46.6860   22.5000   19.8730 C.3       9 GLL5        0.0000 
     11 CA         47.1730   26.0910   19.1200 C.3       6 GLP5        0.0000 
     12 CA         46.7860   24.1280   18.0740 C.3       3 GLC5        0.0000 
     13 CA         46.7360   22.4070   18.3360 C.3       9 GLL5        0.0000 
     14 CA         46.8360   25.8490   17.8120 C.3       6 GLP5        0.0000 
     15 CA         48.3640   21.2740   17.8600 C.3       3 GLC5        0.0000 
     16 CA         49.9920   20.1410   17.3840 C.3       6 GLP5        0.0000 
     17 CA         46.2945   22.0185   16.5265 C.3       3 GLC5        0.0000 
     18 CA         45.8530   21.6300   14.7170 C.3       6 GLP5        0.0000 
     19 CA         48.3255   24.2620   19.9275 C.3       3 GLC5        0.0000 
     20 CA         48.1110   22.3160   20.4350 C.3       9 GLL5        0.0000 
     21 CA         48.5400   26.2080   19.4200 C.3       6 GLP5        0.0000 
     22 CA         49.3775   21.8500   18.8990 C.3       3 GLC5        0.0000 
     23 CA         50.6440   21.3840   17.3630 C.3       6 GLP5        0.0000 
     24 CA         51.3410   15.9020   26.1230 C.3       3 GLC5        0.0000 
     25 CA         52.5920   17.1970   26.3780 C.3       9 GLL5        0.0000 
     26 CA         50.0900   14.6070   25.8680 C.3       6 GLP5        0.0000 
     27 CA         53.7395   20.0280   29.0310 C.3       3 GLC5        0.0000 
     28 CA         54.1000   19.0140   27.2090 C.3       9 GLL5        0.0000 
     29 CA         53.3790   21.0420   30.8530 C.3       6 GLP5        0.0000 
     30 CA         54.4300   20.8860   27.5395 C.3       3 GLC5        0.0000 
     31 CA         54.7600   22.7580   27.8700 C.3       6 GLP5        0.0000 
     32 CA         52.4685   20.1450   27.6455 C.3       3 GLC5        0.0000 
     33 CA         50.8370   21.2760   28.0820 C.3       6 GLP5        0.0000 
     34 CA         49.8625   22.7270   23.9880 C.3       3 GLC5        0.0000 
     35 CA         48.8690   20.8840   23.8560 C.3       9 GLL5        0.0000 
     36 CA         50.8560   24.5700   24.1200 C.3       6 GLP5        0.0000 
     37 CA         46.2195   20.8015   16.6525 C.3       3 GLC5        0.0000 
     38 CA         46.5860   19.9730   18.5880 C.3       9 GLL5        0.0000 
     39 O          46.2095   15.8495   19.8375 O.2       1 ALC1        0.0000 
     40 O          46.5860   16.4270   18.3050 O.2       7 ALL1        0.0000 
     41 O          45.8330   15.2720   21.3700 O.2       4 ALP1        0.0000 
     42 O          47.5250   16.1780   17.1750 O.2       1 ALC1        0.0000 
     43 O          48.4640   15.9290   16.0450 O.2       4 ALP1        0.0000 
     44 CA         51.6710   21.0850   24.2117 C.3       3 GLC5        0.0000 
     45 CA         50.6550   19.2310   23.7410 C.3       9 GLL5        0.0000 
     46 CA         53.1450   22.5670   24.3090 C.3       6 GLP5        0.0000 
     47 CA         49.8941   18.3529   21.4383 C.3       3 GLC5        0.0000 
     48 CA         49.8550   20.2920   21.6990 C.3       9 GLL5        0.0000 
     49 CA         49.5200   16.9020   20.5050 C.3       6 GLP5        0.0000 
     50 CA         51.2822   21.5308   22.5857 C.3       3 GLC5        0.0000 
     51 CA         50.7080   19.4000   22.3470 C.3       9 GLL5        0.0000 
     52 CA         52.5160   23.0290   22.9620 C.3       6 GLP5        0.0000 
     53 CA         44.5745   20.0448   18.7040 C.3       3 GLC5        0.0000 
     54 CA         45.9420   20.1720   19.9100 C.3       9 GLL5        0.0000 
     55 CA         42.8850   20.0170   18.1590 C.3       6 GLP5        0.0000 
@<TRIPOS>BOND
@<TRIPOS>SUBSTRUCTURE
     1 ALC1       39 GROUP        1 X    ALC  0     ROOT ALC X 1
     2 SEC2        1 GROUP        1 X    SEC  0     **** SEC X 2
     3 GLC5        9 GROUP        1 X    GLC  0     **** GLC X 6
     4 ALP1       41 GROUP        1 Y    ALP  0     ROOT ALP Y 8
     5 SEP2        3 GROUP        1 Y    SEP  0     **** SEP Y 9
     6 GLP5       11 GROUP        1 Y    GLP  0     **** GLP Y 13
     7 ALL1       40 GROUP        1 Z    ALL  0     ROOT ALL Z 15
     8 SEL2        2 GROUP        1 Z    SEL  0     **** SEL Z 16
     9 GLL5       10 GROUP        1 Z    GLL  0     **** GLL Z 20
@<TRIPOS>SET

