#    Name: 3uwl_FOZ_2_ligand
#    Modification time : Mon Mar 24 23:39:15 2014

@<TRIPOS>MOLECULE
3uwl_FOZ_2_ligand
   55    57     1     0     0
SMALL
NO_CHARGES


@<TRIPOS>ATOM
      1 C          51.6200   18.2640   24.3850 C.2       1 FOZ316      0.0000 
      2 N          51.7030   18.1580   25.7230 N.am      1 FOZ316      0.0000 
      3 O          52.3610   17.5970   23.6520 O.2       1 FOZ316      0.0000 
      4 N1         46.7610   18.7210   18.1400 N.pl3     1 FOZ316      0.0000 
      5 O1         52.6530   15.7820   28.2920 O.co2     1 FOZ316      0.0000 
      6 C2         46.3840   17.6400   18.8540 C.2       1 FOZ316      0.0000 
      7 O2         51.1460   17.3440   28.2560 O.co2     1 FOZ316      0.0000 
      8 N3         45.7800   17.7360   20.0740 N.2       1 FOZ316      0.0000 
      9 O3         44.2530   22.6490   21.6240 O.2       1 FOZ316      0.0000 
     10 C4         45.5540   18.9540   20.6480 C.2       1 FOZ316      0.0000 
     11 O4         45.0120   19.0720   21.7590 O.2       1 FOZ316      0.0000 
     12 N5         45.7800   21.4690   20.4780 N.am      1 FOZ316      0.0000 
     13 C6         46.6860   22.5000   19.8730 C.3       1 FOZ316      0.0000 
     14 C7         46.7360   22.4070   18.3360 C.3       1 FOZ316      0.0000 
     15 N8         47.0010   21.0530   17.8740 N.pl3     1 FOZ316      0.0000 
     16 C9         48.1110   22.3160   20.4350 C.3       1 FOZ316      0.0000 
     17 CA         52.5920   17.1970   26.3780 C.3       1 FOZ316      0.0000 
     18 CB         54.0360   17.6850   26.4820 C.3       1 FOZ316      0.0000 
     19 CD         55.5350   19.4920   27.2470 C.2       1 FOZ316      0.0000 
     20 CG         54.1000   19.0140   27.2090 C.3       1 FOZ316      0.0000 
     21 CT         52.0970   16.7490   27.7340 C.2       1 FOZ316      0.0000 
     22 N10        48.0760   21.9130   21.8410 N.pl3     1 FOZ316      0.0000 
     23 C11        50.6550   19.2310   23.7410 C.ar      1 FOZ316      0.0000 
     24 C12        49.7390   19.9750   24.4880 C.ar      1 FOZ316      0.0000 
     25 C13        48.8690   20.8840   23.8560 C.ar      1 FOZ316      0.0000 
     26 C14        48.9230   21.0380   22.4450 C.ar      1 FOZ316      0.0000 
     27 C15        49.8550   20.2920   21.6990 C.ar      1 FOZ316      0.0000 
     28 C16        50.7080   19.4000   22.3470 C.ar      1 FOZ316      0.0000 
     29 C4A        45.9420   20.1720   19.9100 C.2       1 FOZ316      0.0000 
     30 C8A        46.5860   19.9730   18.5880 C.2       1 FOZ316      0.0000 
     31 NA2        46.5860   16.4270   18.3050 N.pl3     1 FOZ316      0.0000 
     32 OE1        55.9820   20.0260   26.2140 O.co2     1 FOZ316      0.0000 
     33 OE2        56.2250   19.3430   28.2990 O.co2     1 FOZ316      0.0000 
     34 CP1        44.4560   21.8840   20.7010 C.2       1 FOZ316      0.0000 
     35 H          51.1361   18.7574   26.3586 H         1 FOZ316      0.0000 
     36 H          47.2108   18.5720   17.1926 H         1 FOZ316      0.0000 
     37 H          46.3518   23.4887   20.1466 H         1 FOZ316      0.0000 
     38 H          47.5138   23.1042   17.9846 H         1 FOZ316      0.0000 
     39 H          45.7728   22.7761   17.9478 H         1 FOZ316      0.0000 
     40 H          47.5151   20.9544   16.9851 H         1 FOZ316      0.0000 
     41 H          48.6456   23.2649   20.3113 H         1 FOZ316      0.0000 
     42 H          48.6185   21.5619   19.8225 H         1 FOZ316      0.0000 
     43 H          52.6343   16.2682   25.7419 H         1 FOZ316      0.0000 
     44 H          54.4472   17.7975   25.4796 H         1 FOZ316      0.0000 
     45 H          54.6242   16.9448   27.0229 H         1 FOZ316      0.0000 
     46 H          53.7309   18.8903   28.2216 H         1 FOZ316      0.0000 
     47 H          53.4879   19.7416   26.6866 H         1 FOZ316      0.0000 
     48 H          47.2997   22.3700   22.4118 H         1 FOZ316      0.0000 
     49 H          49.6956   19.8615   25.5094 H         1 FOZ316      0.0000 
     50 H          48.2051   21.4286   24.4006 H         1 FOZ316      0.0000 
     51 H          49.9015   20.4087   20.6829 H         1 FOZ316      0.0000 
     52 H          51.3907   18.8530   21.7988 H         1 FOZ316      0.0000 
     53 H          46.3406   15.6409   18.8723 H         1 FOZ316      0.0000 
     54 H          46.9634   16.4205   17.3790 H         1 FOZ316      0.0000 
     55 H          43.7395   21.4984   20.0485 H         1 FOZ316      0.0000 
@<TRIPOS>BOND
     1    2    1 am   
     2    3    1 2    
     3   23    1 1    
     4   17    2 1    
     5   35    2 1    
     6    6    4 1    
     7   30    4 1    
     8   36    4 1    
     9   21    5 ar   
    10    8    6 2    
    11   31    6 1    
    12   21    7 ar   
    13   10    8 1    
    14   34    9 2    
    15   11   10 2    
    16   29   10 1    
    17   13   12 1    
    18   29   12 1    
    19   34   12 am   
    20   14   13 1    
    21   16   13 1    
    22   37   13 1    
    23   15   14 1    
    24   38   14 1    
    25   39   14 1    
    26   30   15 1    
    27   40   15 1    
    28   22   16 1    
    29   41   16 1    
    30   42   16 1    
    31   18   17 1    
    32   21   17 1    
    33   43   17 1    
    34   20   18 1    
    35   44   18 1    
    36   45   18 1    
    37   20   19 1    
    38   32   19 ar   
    39   33   19 ar   
    40   46   20 1    
    41   47   20 1    
    42   26   22 1    
    43   48   22 1    
    44   24   23 ar   
    45   28   23 ar   
    46   25   24 ar   
    47   49   24 1    
    48   26   25 ar   
    49   50   25 1    
    50   27   26 ar   
    51   28   27 ar   
    52   51   27 1    
    53   52   28 1    
    54   30   29 2    
    55   53   31 1    
    56   54   31 1    
    57   55   34 1    
@<TRIPOS>SUBSTRUCTURE
     1 FOZ316      1 GROUP   
@<TRIPOS>SET

