#    Name: 1fpx_SAM_1_INTS_M
#    Modification time : Tue Mar 25 01:54:30 2014

@<TRIPOS>MOLECULE
1fpx_SAM_1_INTS_M
   72     0    12     0     0
SMALL
NO_CHARGES


@<TRIPOS>ATOM
      1 O         -21.9510    8.8600    5.7110 O.2       1 ALC1        0.0000 
      2 O         -21.3200    7.5910    5.8400 O.2       9 ALL1        0.0000 
      3 O         -22.5820   10.1290    5.5820 O.2       5 ALP1        0.0000 
      4 O         -21.9215    6.7045    6.7885 O.2       1 ALC1        0.0000 
      5 O         -22.5230    5.8180    7.7370 O.2       5 ALP1        0.0000 
      6 O         -20.9780    7.1320    4.5605 O.2       1 ALC1        0.0000 
      7 O         -20.6360    6.6730    3.2810 O.2       5 ALP1        0.0000 
      8 NZ        -17.7365    5.9170    6.1565 N.4       3 LYC4        0.0000 
      9 NZ        -17.7280    7.7120    6.6540 N.4      11 LYL4        0.0000 
     10 NZ        -17.7450    4.1220    5.6590 N.4       7 LYP4        0.0000 
     11 NZ        -18.5150    5.0905    6.1220 N.4       3 LYC4        0.0000 
     12 NZ        -19.2850    6.0590    6.5850 N.4      11 LYL4        0.0000 
     13 N         -18.5150    5.0905    6.1220 N.am      2 SEC2        0.0000 
     14 N         -19.2850    6.0590    6.5850 N.am     10 SEL2        0.0000 
     15 N         -17.7450    4.1220    5.6590 N.am      6 SEP2        0.0000 
     16 CA        -22.4305    8.8225    7.9245 C.3       4 GLC5        0.0000 
     17 CA        -20.3450    8.9690    7.6060 C.3      12 GLL5        0.0000 
     18 CA        -24.5160    8.6760    8.2430 C.3       8 GLP5        0.0000 
     19 CA        -18.3815   11.0010    9.9465 C.3       4 GLC5        0.0000 
     20 CA        -19.5220    9.7850    8.5140 C.3      12 GLL5        0.0000 
     21 CA        -17.2410   12.2170   11.3790 C.3       8 GLP5        0.0000 
     22 CA        -20.7395    6.6060   10.4120 C.3       4 GLC5        0.0000 
     23 CA        -20.4440    8.3580   10.7600 C.3      12 GLL5        0.0000 
     24 CA        -21.0350    4.8540   10.0640 C.3       8 GLP5        0.0000 
     25 O         -21.4545   13.2245    6.6345 O.2       1 ALC1        0.0000 
     26 O         -20.7140   12.8810    7.7240 O.2       9 ALL1        0.0000 
     27 O         -22.1950   13.5680    5.5450 O.2       5 ALP1        0.0000 
     28 N         -22.4225   16.5995    9.2820 N.am      2 SEC2        0.0000 
     29 N         -21.9370   15.1790    8.7830 N.am     10 SEL2        0.0000 
     30 N         -22.9080   18.0200    9.7810 N.am      6 SEP2        0.0000 
     31 O         -22.2910   15.3775    7.5375 O.2       1 ALC1        0.0000 
     32 O         -21.9370   15.1790    8.7830 O.2       9 ALL1        0.0000 
     33 O         -22.6450   15.5760    6.2920 O.2       5 ALP1        0.0000 
     34 CA        -24.1645   12.3870    7.3610 C.3       4 GLC5        0.0000 
     35 CA        -23.6820   13.4270    9.1500 C.3      12 GLL5        0.0000 
     36 CA        -24.6470   11.3470    5.5720 C.3       8 GLP5        0.0000 
     37 CA        -29.1255   17.0905    7.6095 C.3       4 GLC5        0.0000 
     38 CA        -27.8520   15.9030    8.9010 C.3      12 GLL5        0.0000 
     39 CA        -30.3990   18.2780    6.3180 C.3       8 GLP5        0.0000 
     40 CA        -29.0715   14.6420    8.5360 C.3       4 GLC5        0.0000 
     41 CA        -30.2910   13.3810    8.1710 C.3       8 GLP5        0.0000 
     42 O         -29.9720   17.1880    9.2790 O.2       1 ALC1        0.0000 
     43 O         -28.7080   16.5220    9.6790 O.2       9 ALL1        0.0000 
     44 O         -31.2360   17.8540    8.8790 O.2       5 ALP1        0.0000 
     45 N         -29.3880   15.8175    7.0530 N.am      2 SEC2        0.0000 
     46 N         -27.9760   15.7680    7.5400 N.am     10 SEL2        0.0000 
     47 N         -30.8000   15.8670    6.5660 N.am      6 SEP2        0.0000 
     48 CA        -25.7415   15.3605    5.2615 C.3       4 GLC5        0.0000 
     49 CA        -27.0910   15.1220    6.7390 C.3      12 GLL5        0.0000 
     50 CA        -24.3920   15.5990    3.7840 C.3       8 GLP5        0.0000 
     51 CA        -25.8895   16.6125    7.3830 C.3       4 GLC5        0.0000 
     52 CA        -24.6880   18.1030    8.0270 C.3       8 GLP5        0.0000 
     53 CA        -28.6910   14.2515    7.4550 C.3       4 GLC5        0.0000 
     54 CA        -18.6617    8.1730    9.0635 C.3       4 GLC5        0.0000 
     55 CA        -17.3900    6.9690   10.0670 C.3       8 GLP5        0.0000 
     56 CA        -19.0508   10.2820   11.4068 C.3       4 GLC5        0.0000 
     57 CA        -20.3890    9.9720   10.1330 C.3      12 GLL5        0.0000 
     58 CA        -17.6850   11.3990   12.3670 C.3       8 GLP5        0.0000 
     59 CA        -18.9032    8.0670   10.2568 C.3       4 GLC5        0.0000 
     60 CA        -23.3055    9.8945    8.8420 C.3       4 GLC5        0.0000 
     61 CA        -22.0410   10.6840    9.5190 C.3      12 GLL5        0.0000 
     62 CA        -21.3435   11.8090   11.3528 C.3       4 GLC5        0.0000 
     63 CA        -22.1490   11.5420    9.3630 C.3      12 GLL5        0.0000 
     64 CA        -21.0050   12.6830   13.1110 C.3       8 GLP5        0.0000 
     65 CA        -21.0782   13.6155   10.9510 C.3       4 GLC5        0.0000 
     66 CA        -21.3030   12.8230    9.0960 C.3      12 GLL5        0.0000 
     67 CA        -20.3720   13.8540   12.6550 C.3       8 GLP5        0.0000 
     68 CA        -27.6248   13.4518    8.7265 C.3       4 GLC5        0.0000 
     69 CA        -26.6580   15.2810    9.4630 C.3      12 GLL5        0.0000 
     70 CA        -29.0070   11.9350    8.4370 C.3       8 GLP5        0.0000 
     71 CA        -25.6145   16.6135    8.4512 C.3       4 GLC5        0.0000 
     72 CA        -25.8270   14.6560    8.5690 C.3      12 GLL5        0.0000 
@<TRIPOS>BOND
@<TRIPOS>SUBSTRUCTURE
     1 ALC1        1 GROUP        1 X    ALC  0     ROOT ALC X 1
     2 SEC2       13 GROUP        1 X    SEC  0     **** SEC X 2
     3 LYC4        8 GROUP        1 X    LYC  0     **** LYC X 4
     4 GLC5       16 GROUP        1 X    GLC  0     **** GLC X 6
     5 ALP1        3 GROUP        1 Y    ALP  0     ROOT ALP Y 8
     6 SEP2       15 GROUP        1 Y    SEP  0     **** SEP Y 9
     7 LYP4       10 GROUP        1 Y    LYP  0     **** LYP Y 11
     8 GLP5       18 GROUP        1 Y    GLP  0     **** GLP Y 13
     9 ALL1        2 GROUP        1 Z    ALL  0     ROOT ALL Z 15
    10 SEL2       14 GROUP        1 Z    SEL  0     **** SEL Z 16
    11 LYL4        9 GROUP        1 Z    LYL  0     **** LYL Z 18
    12 GLL5       17 GROUP        1 Z    GLL  0     **** GLL Z 20
@<TRIPOS>SET

