#    Name: 1fpx_SAM_1_ligand
#    Modification time : Tue Mar 25 01:54:30 2014

@<TRIPOS>MOLECULE
1fpx_SAM_1_ligand
   50    52     1     0     0
SMALL
NO_CHARGES


@<TRIPOS>ATOM
      1 N         -21.3200    7.5910    5.8400 N.4       1 SAM1699     0.0000 
      2 CA        -20.0400    8.3420    6.3210 C.3       1 SAM1699     0.0000 
      3 C         -18.9310    7.2810    6.5190 C.2       1 SAM1699     0.0000 
      4 O         -17.7280    7.7120    6.6540 O.co2     1 SAM1699     0.0000 
      5 OXT       -19.2850    6.0590    6.5850 O.co2     1 SAM1699     0.0000 
      6 CB        -20.3450    8.9690    7.6060 C.3       1 SAM1699     0.0000 
      7 CG        -19.5220    9.7850    8.5140 C.3       1 SAM1699     0.0000 
      8 SD        -20.3890    9.9720   10.1330 S.3       1 SAM1699     0.0000 
      9 CE        -20.4440    8.3580   10.7600 C.3       1 SAM1699     0.0000 
     10 C5'       -22.0410   10.6840    9.5190 C.3       1 SAM1699     0.0000 
     11 C4'       -22.1490   11.5420    9.3630 C.3       1 SAM1699     0.0000 
     12 O4'       -23.5830   11.9530    9.2230 O.3       1 SAM1699     0.0000 
     13 C3'       -21.3030   12.8230    9.0960 C.3       1 SAM1699     0.0000 
     14 O3'       -20.7140   12.8810    7.7240 O.3       1 SAM1699     0.0000 
     15 C2'       -22.2660   13.9310    9.3980 C.3       1 SAM1699     0.0000 
     16 O2'       -21.9370   15.1790    8.7830 O.3       1 SAM1699     0.0000 
     17 C1'       -23.6820   13.4270    9.1500 C.3       1 SAM1699     0.0000 
     18 N9        -24.8350   14.1860    9.3700 N.pl3     1 SAM1699     0.0000 
     19 C8        -25.1090   14.5430   10.6740 C.2       1 SAM1699     0.0000 
     20 N7        -26.1970   15.2020   10.7690 N.2       1 SAM1699     0.0000 
     21 C5        -26.6580   15.2810    9.4630 C.ar      1 SAM1699     0.0000 
     22 C6        -27.8520   15.9030    8.9010 C.ar      1 SAM1699     0.0000 
     23 N6        -28.7080   16.5220    9.6790 N.pl3     1 SAM1699     0.0000 
     24 N1        -27.9760   15.7680    7.5400 N.ar      1 SAM1699     0.0000 
     25 C2        -27.0910   15.1220    6.7390 C.ar      1 SAM1699     0.0000 
     26 N3        -25.9610   14.5380    7.2280 N.ar      1 SAM1699     0.0000 
     27 C4        -25.8270   14.6560    8.5690 C.ar      1 SAM1699     0.0000 
     28 H         -19.7509    9.0268    5.5901 H         1 SAM1699     0.0000 
     29 H         -20.8377    8.1136    8.2886 H         1 SAM1699     0.0000 
     30 H         -21.3648    9.5814    7.4473 H         1 SAM1699     0.0000 
     31 H         -19.4020   10.8064    8.2324 H         1 SAM1699     0.0000 
     32 H         -18.6055    9.3399    8.8283 H         1 SAM1699     0.0000 
     33 H         -22.6382   10.0038   10.3671 H         1 SAM1699     0.0000 
     34 H         -22.1182    9.7643    8.6902 H         1 SAM1699     0.0000 
     35 H         -22.2681   11.9868   10.7272 H         1 SAM1699     0.0000 
     36 H         -20.5287   12.8364    9.8572 H         1 SAM1699     0.0000 
     37 H         -22.2080   14.0624   10.5332 H         1 SAM1699     0.0000 
     38 H         -23.5833   13.4922    7.8437 H         1 SAM1699     0.0000 
     39 H         -24.4926   14.2884   11.4161 H         1 SAM1699     0.0000 
     40 H         -28.4801   16.5463   10.6524 H         1 SAM1699     0.0000 
     41 H         -29.5101   16.9129    9.2275 H         1 SAM1699     0.0000 
     42 H         -27.2819   15.0690    5.7042 H         1 SAM1699     0.0000 
     43 H         -21.1643    7.1049    4.9801 H         1 SAM1699     0.0000 
     44 H         -21.6262    6.9132    6.5085 H         1 SAM1699     0.0000 
     45 H         -22.0836    8.2185    5.6879 H         1 SAM1699     0.0000 
     46 H         -19.5503    7.9115   10.7153 H         1 SAM1699     0.0000 
     47 H         -20.7325    8.3411   11.7173 H         1 SAM1699     0.0000 
     48 H         -21.0845    7.7833   10.2506 H         1 SAM1699     0.0000 
     49 H         -21.4633   13.1802    7.1332 H         1 SAM1699     0.0000 
     50 H         -22.2935   15.1101    7.8512 H         1 SAM1699     0.0000 
@<TRIPOS>BOND
     1    2    1 1    
     2   43    1 1    
     3   44    1 1    
     4   45    1 1    
     5    3    2 1    
     6    6    2 1    
     7   28    2 1    
     8    4    3 ar   
     9    5    3 ar   
    10    7    6 1    
    11   29    6 1    
    12   30    6 1    
    13    8    7 1    
    14   31    7 1    
    15   32    7 1    
    16    9    8 1    
    17   10    8 1    
    18   46    9 1    
    19   47    9 1    
    20   48    9 1    
    21   11   10 1    
    22   33   10 1    
    23   34   10 1    
    24   12   11 1    
    25   13   11 1    
    26   35   11 1    
    27   17   12 1    
    28   14   13 1    
    29   15   13 1    
    30   36   13 1    
    31   49   14 1    
    32   16   15 1    
    33   17   15 1    
    34   37   15 1    
    35   50   16 1    
    36   18   17 1    
    37   38   17 1    
    38   19   18 1    
    39   27   18 1    
    40   20   19 2    
    41   39   19 1    
    42   21   20 1    
    43   22   21 ar   
    44   27   21 ar   
    45   23   22 1    
    46   24   22 ar   
    47   40   23 1    
    48   41   23 1    
    49   25   24 ar   
    50   26   25 ar   
    51   42   25 1    
    52   27   26 ar   
@<TRIPOS>SUBSTRUCTURE
     1 SAM1699     1 GROUP   
@<TRIPOS>SET

