#    Name: 3a1l_2CC_1_INTS_M
#    Modification time : Tue Mar 25 11:28:29 2014

@<TRIPOS>MOLECULE
3a1l_2CC_1_INTS_M
   59     0     9     0     0
SMALL
NO_CHARGES


@<TRIPOS>ATOM
      1 CA         -9.7945   -4.5825  -19.9660 C.3       3 GLC5        0.0000 
      2 CA        -10.3790   -3.3040  -20.5940 C.3       9 GLL5        0.0000 
      3 CA         -9.2100   -5.8610  -19.3380 C.3       6 GLP5        0.0000 
      4 CA        -10.5730    2.5510  -21.6910 C.3       3 GLC5        0.0000 
      5 CA        -10.7630    0.6580  -22.7230 C.3       9 GLL5        0.0000 
      6 CA        -10.3830    4.4440  -20.6590 C.3       6 GLP5        0.0000 
      7 N         -14.4725    1.3790  -26.2850 N.am      2 SEC2        0.0000 
      8 N         -13.4360    2.2770  -25.4760 N.am      8 SEL2        0.0000 
      9 N         -15.5090    0.4810  -27.0940 N.am      5 SEP2        0.0000 
     10 N         -14.2020    3.5825  -26.2005 N.am      2 SEC2        0.0000 
     11 N         -14.9680    4.8880  -26.9250 N.am      5 SEP2        0.0000 
     12 N          -7.4025    2.2775  -30.1945 N.am      2 SEC2        0.0000 
     13 N          -8.1670    1.6060  -29.1490 N.am      8 SEL2        0.0000 
     14 N          -6.6380    2.9490  -31.2400 N.am      5 SEP2        0.0000 
     15 N          -9.2795    4.0070  -30.0915 N.am      2 SEC2        0.0000 
     16 N          -9.7960    3.0890  -29.2880 N.am      8 SEL2        0.0000 
     17 N          -8.7630    4.9250  -30.8950 N.am      5 SEP2        0.0000 
     18 O          -5.0185   -1.4300  -26.2235 O.2       1 ALC1        0.0000 
     19 O          -6.4220   -1.3510  -26.7310 O.2       7 ALL1        0.0000 
     20 O          -3.6150   -1.5090  -25.7160 O.2       4 ALP1        0.0000 
     21 CA         -9.2535   -3.7300  -30.8250 C.3       3 GLC5        0.0000 
     22 CA         -8.1500   -2.0020  -30.3820 C.3       9 GLL5        0.0000 
     23 CA        -10.3570   -5.4580  -31.2680 C.3       6 GLP5        0.0000 
     24 CA         -6.8585   -3.1495  -32.2780 C.3       3 GLC5        0.0000 
     25 CA         -6.9280   -2.6290  -30.1660 C.3       9 GLL5        0.0000 
     26 CA         -6.7890   -3.6700  -34.3900 C.3       6 GLP5        0.0000 
     27 CA         -7.5020   -4.5430  -30.6675 C.3       3 GLC5        0.0000 
     28 CA         -8.0760   -6.4570  -31.1690 C.3       6 GLP5        0.0000 
     29 CA         -6.0385   -4.4545  -27.9090 C.3       3 GLC5        0.0000 
     30 CA         -4.7570   -3.2620  -28.6730 C.3       9 GLL5        0.0000 
     31 CA         -7.3200   -5.6470  -27.1450 C.3       6 GLP5        0.0000 
     32 CA         -4.0985   -4.7150  -27.8405 C.3       3 GLC5        0.0000 
     33 CA         -3.4400   -6.1680  -27.0080 C.3       6 GLP5        0.0000 
     34 CA         -3.0385   -2.7320  -28.0640 C.3       3 GLC5        0.0000 
     35 CA         -1.3200   -2.2020  -27.4550 C.3       6 GLP5        0.0000 
     36 CA         -4.2230   -2.8625  -30.5560 C.3       3 GLC5        0.0000 
     37 CA         -3.6890   -2.4630  -32.4390 C.3       6 GLP5        0.0000 
     38 CA         -9.9965    1.5507  -19.9605 C.3       3 GLC5        0.0000 
     39 CA        -10.8700    0.5950  -21.3370 C.3       9 GLL5        0.0000 
     40 CA         -9.1850    3.1170  -18.9120 C.3       6 GLP5        0.0000 
     41 CA        -12.5410   -1.7278  -23.4892 C.3       3 GLC5        0.0000 
     42 CA        -10.5320   -0.5050  -23.4470 C.3       9 GLL5        0.0000 
     43 CA        -14.6130   -2.3410  -23.8570 C.3       6 GLP5        0.0000 
     44 CA        -11.8478   -2.7125  -25.0907 C.3       3 GLC5        0.0000 
     45 CA        -10.3560   -0.7770  -24.8000 C.3       9 GLL5        0.0000 
     46 CA        -13.4480   -3.9940  -25.3190 C.3       6 GLP5        0.0000 
     47 CA         -8.0107    1.5575  -25.8058 C.3       3 GLC5        0.0000 
     48 CA         -7.3260   -0.5590  -26.1560 C.3       9 GLL5        0.0000 
     49 CA         -8.1950    3.5710  -25.0300 C.3       6 GLP5        0.0000 
     50 CA         -6.9158   -0.2055  -29.9980 C.3       3 GLC5        0.0000 
     51 CA         -8.7110   -1.2060  -29.3880 C.3       9 GLL5        0.0000 
     52 CA         -5.4010    1.1930  -30.1110 C.3       6 GLP5        0.0000 
     53 CA         -5.1428   -2.5043  -30.9997 C.3       3 GLC5        0.0000 
     54 CA         -5.9988   -0.6763  -29.8358 C.3       3 GLC5        0.0000 
     55 CA         -9.2528    2.1874  -25.7811 C.3       3 GLC5        0.0000 
     56 CA         -9.4900    0.3830  -26.8100 C.3       9 GLL5        0.0000 
     57 CA         -6.4332    0.3536  -27.9805 C.3       3 GLC5        0.0000 
     58 CA         -8.3270   -0.3530  -27.0070 C.3       9 GLL5        0.0000 
     59 CA         -5.2370    1.6120  -28.6350 C.3       6 GLP5        0.0000 
@<TRIPOS>BOND
@<TRIPOS>SUBSTRUCTURE
     1 ALC1       18 GROUP        1 X    ALC  0     ROOT ALC X 1
     2 SEC2        7 GROUP        1 X    SEC  0     **** SEC X 2
     3 GLC5        1 GROUP        1 X    GLC  0     **** GLC X 6
     4 ALP1       20 GROUP        1 Y    ALP  0     ROOT ALP Y 8
     5 SEP2        9 GROUP        1 Y    SEP  0     **** SEP Y 9
     6 GLP5        3 GROUP        1 Y    GLP  0     **** GLP Y 13
     7 ALL1       19 GROUP        1 Z    ALL  0     ROOT ALL Z 15
     8 SEL2        8 GROUP        1 Z    SEL  0     **** SEL Z 16
     9 GLL5        2 GROUP        1 Z    GLL  0     **** GLL Z 20
@<TRIPOS>SET

