#    Name: 3a1l_2CC_1_ligand
#    Modification time : Tue Mar 25 11:28:29 2014

@<TRIPOS>MOLECULE
3a1l_2CC_1_ligand
   42    46     1     0     0
SMALL
NO_CHARGES


@<TRIPOS>ATOM
      1 CL1       -10.3790   -3.3040  -20.5940 Cl        1 2CC501      0.0000 
      2 C16       -10.5150   -1.7860  -21.4110 C.ar      1 2CC501      0.0000 
      3 C15       -10.7460   -0.6260  -20.6810 C.ar      1 2CC501      0.0000 
      4 C14       -10.8700    0.5950  -21.3370 C.ar      1 2CC501      0.0000 
      5 C13       -10.7630    0.6580  -22.7230 C.ar      1 2CC501      0.0000 
      6 C12       -10.5320   -0.5050  -23.4470 C.ar      1 2CC501      0.0000 
      7 C17       -10.4060   -1.7240  -22.7960 C.ar      1 2CC501      0.0000 
      8 N2        -10.1700   -2.6520  -23.7230 N.pl3     1 2CC501      0.0000 
      9 C18       -10.1390   -2.0850  -24.9250 C.2       1 2CC501      0.0000 
     10 C11       -10.3560   -0.7770  -24.8000 C.2       1 2CC501      0.0000 
     11 C10       -10.4190    0.1930  -25.7940 C.2       1 2CC501      0.0000 
     12 C9        -11.3920    1.1640  -25.9790 C.2       1 2CC501      0.0000 
     13 C26       -12.7030    1.3060  -25.1930 C.2       1 2CC501      0.0000 
     14 O28       -13.4360    2.2770  -25.4760 O.co2     1 2CC501      0.0000 
     15 O27       -12.9790    0.4440  -24.3340 O.co2     1 2CC501      0.0000 
     16 N1        -11.0800    1.9240  -27.0270 N.pl3     1 2CC501      0.0000 
     17 C8         -9.9410    1.4750  -27.5460 C.2       1 2CC501      0.0000 
     18 C29        -9.2440    2.1020  -28.7560 C.2       1 2CC501      0.0000 
     19 O32        -8.1670    1.6060  -29.1490 O.co2     1 2CC501      0.0000 
     20 O30        -9.7960    3.0890  -29.2880 O.co2     1 2CC501      0.0000 
     21 C7         -9.4900    0.3830  -26.8100 C.2       1 2CC501      0.0000 
     22 C6         -8.3270   -0.3530  -27.0070 C.2       1 2CC501      0.0000 
     23 C19        -7.3260   -0.5590  -26.1560 C.2       1 2CC501      0.0000 
     24 N3         -6.4220   -1.3510  -26.7310 N.pl3     1 2CC501      0.0000 
     25 C20        -6.8230   -1.6660  -27.9610 C.ar      1 2CC501      0.0000 
     26 C5         -8.0420   -1.0410  -28.1800 C.ar      1 2CC501      0.0000 
     27 C4         -8.7110   -1.2060  -29.3880 C.ar      1 2CC501      0.0000 
     28 C3         -8.1500   -2.0020  -30.3820 C.ar      1 2CC501      0.0000 
     29 C2         -6.9280   -2.6290  -30.1660 C.ar      1 2CC501      0.0000 
     30 C1         -6.2650   -2.4620  -28.9550 C.ar      1 2CC501      0.0000 
     31 CL2        -4.7570   -3.2620  -28.6730 Cl        1 2CC501      0.0000 
     32 H         -10.8253   -0.6692  -19.6570 H         1 2CC501      0.0000 
     33 H         -11.0412    1.4534  -20.7959 H         1 2CC501      0.0000 
     34 H         -10.8543    1.5580  -23.2061 H         1 2CC501      0.0000 
     35 H         -10.0394   -3.6071  -23.5438 H         1 2CC501      0.0000 
     36 H          -9.9816   -2.5537  -25.7694 H         1 2CC501      0.0000 
     37 H         -11.5978    2.6788  -27.3560 H         1 2CC501      0.0000 
     38 H          -7.2624   -0.1896  -25.2539 H         1 2CC501      0.0000 
     39 H          -5.5898   -1.6548  -26.3125 H         1 2CC501      0.0000 
     40 H          -9.6127   -0.7438  -29.5458 H         1 2CC501      0.0000 
     41 H          -8.6405   -2.1264  -31.2777 H         1 2CC501      0.0000 
     42 H          -6.5142   -3.2164  -30.9017 H         1 2CC501      0.0000 
@<TRIPOS>BOND
     1    2    1 1    
     2    3    2 ar   
     3    7    2 ar   
     4    4    3 ar   
     5   32    3 1    
     6    5    4 ar   
     7   33    4 1    
     8    6    5 ar   
     9   34    5 1    
    10    7    6 ar   
    11   10    6 1    
    12    8    7 1    
    13    9    8 1    
    14   35    8 1    
    15   10    9 2    
    16   36    9 1    
    17   11   10 1    
    18   12   11 2    
    19   21   11 1    
    20   13   12 1    
    21   16   12 1    
    22   14   13 ar   
    23   15   13 ar   
    24   17   16 1    
    25   37   16 1    
    26   18   17 1    
    27   21   17 2    
    28   19   18 ar   
    29   20   18 ar   
    30   22   21 1    
    31   23   22 2    
    32   26   22 1    
    33   24   23 1    
    34   38   23 1    
    35   25   24 1    
    36   39   24 1    
    37   26   25 ar   
    38   30   25 ar   
    39   27   26 ar   
    40   28   27 ar   
    41   40   27 1    
    42   29   28 ar   
    43   41   28 1    
    44   30   29 ar   
    45   42   29 1    
    46   31   30 1    
@<TRIPOS>SUBSTRUCTURE
     1 2CC501      1 GROUP   
@<TRIPOS>SET

