#    Name: 3hv7_1AU_1_INTS_M
#    Modification time : Tue Mar 25 15:07:33 2014

@<TRIPOS>MOLECULE
3hv7_1AU_1_INTS_M
   84     0     9     0     0
SMALL
NO_CHARGES


@<TRIPOS>ATOM
      1 CA         -5.5560   -2.7960  -14.6915 C.3       3 GLC5        0.0000 
      2 CA         -4.4310   -1.8120  -15.9790 C.3       9 GLL5        0.0000 
      3 CA         -6.6810   -3.7800  -13.4040 C.3       6 GLP5        0.0000 
      4 CA         -5.8195    0.7880  -19.7740 C.3       3 GLC5        0.0000 
      5 CA         -5.4080   -0.5830  -18.3090 C.3       9 GLL5        0.0000 
      6 CA         -6.2310    2.1590  -21.2390 C.3       6 GLP5        0.0000 
      7 CA         -5.0650   -1.6810  -21.1020 C.3       3 GLC5        0.0000 
      8 CA         -3.6660   -1.5850  -19.6070 C.3       9 GLL5        0.0000 
      9 CA         -6.4640   -1.7770  -22.5970 C.3       6 GLP5        0.0000 
     10 CA         -0.8670   -0.9640  -19.8215 C.3       3 GLC5        0.0000 
     11 CA         -2.5350   -2.4050  -19.6630 C.3       9 GLL5        0.0000 
     12 CA          0.8010    0.4770  -19.9800 C.3       6 GLP5        0.0000 
     13 CA         -0.8755   -4.6330  -19.3235 C.3       3 GLC5        0.0000 
     14 CA         -2.0350   -3.0080  -18.5050 C.3       9 GLL5        0.0000 
     15 CA          0.2840   -6.2580  -20.1420 C.3       6 GLP5        0.0000 
     16 O          -2.6485   -4.4690  -15.2770 O.2       1 ALC1        0.0000 
     17 O          -2.2000   -3.4440  -16.1520 O.2       7 ALL1        0.0000 
     18 O          -3.0970   -5.4940  -14.4020 O.2       4 ALP1        0.0000 
     19 N           1.1390   -2.9310  -16.7855 N.am      2 SEC2        0.0000 
     20 N          -0.1350   -2.5600  -16.2810 N.am      8 SEL2        0.0000 
     21 N           2.4130   -3.3020  -17.2900 N.am      5 SEP2        0.0000 
     22 O          -1.8745   -4.7695  -14.5230 O.2       1 ALC1        0.0000 
     23 O          -0.6520   -4.0450  -14.6440 O.2       7 ALL1        0.0000 
     24 CA          0.9780   -1.1455  -14.1135 C.3       3 GLC5        0.0000 
     25 CA          1.3380   -2.9740  -13.7940 C.3       9 GLL5        0.0000 
     26 CA          0.6180    0.6830  -14.4330 C.3       6 GLP5        0.0000 
     27 CA          2.2075   -1.9545  -15.4695 C.3       3 GLC5        0.0000 
     28 CA          3.0770   -0.9350  -17.1450 C.3       6 GLP5        0.0000 
     29 CA          2.3505   -2.8740   -9.6455 C.3       3 GLC5        0.0000 
     30 CA          3.1400   -1.7040  -11.3760 C.3       9 GLL5        0.0000 
     31 CA          1.5610   -4.0440   -7.9150 C.3       6 GLP5        0.0000 
     32 CA          2.4990   -0.3920  -10.1475 C.3       3 GLC5        0.0000 
     33 CA          1.8580    0.9200   -8.9190 C.3       6 GLP5        0.0000 
     34 CA          3.6435    0.2360  -11.6685 C.3       3 GLC5        0.0000 
     35 CA          4.1470    2.1760  -11.9610 C.3       6 GLP5        0.0000 
     36 CA          5.6800   -4.0355   -9.9805 C.3       3 GLC5        0.0000 
     37 CA          4.7110   -3.6360  -11.9670 C.3       9 GLL5        0.0000 
     38 CA          6.6490   -4.4350   -7.9940 C.3       6 GLP5        0.0000 
     39 CA          4.2035    0.0985  -12.7965 C.3       3 GLC5        0.0000 
     40 CA          4.2600   -1.9790  -13.6320 C.3       9 GLL5        0.0000 
     41 CA          5.6120   -1.0670  -14.5550 C.3       3 GLC5        0.0000 
     42 CA          6.9640   -0.1550  -15.4780 C.3       6 GLP5        0.0000 
     43 CA          3.6685   -1.4570  -15.3885 C.3       3 GLC5        0.0000 
     44 CA          1.2965   -6.1995  -10.0505 C.3       3 GLC5        0.0000 
     45 CA          0.4130   -6.9230  -11.9520 C.3       9 GLL5        0.0000 
     46 CA          2.1800   -5.4760   -8.1490 C.3       6 GLP5        0.0000 
     47 CA         -0.1070   -8.8820   -9.8025 C.3       3 GLC5        0.0000 
     48 CA         -0.1030   -8.2120  -11.7860 C.3       9 GLL5        0.0000 
     49 CA         -0.1110   -9.5520   -7.8190 C.3       6 GLP5        0.0000 
     50 O          -1.4825   -8.0145  -16.2675 O.2       1 ALC1        0.0000 
     51 O          -0.9270   -9.0970  -15.1870 O.2       7 ALL1        0.0000 
     52 O          -2.0380   -6.9320  -17.3480 O.2       4 ALP1        0.0000 
     53 CA         -4.5992   -3.9400  -17.3640 C.3       3 GLC5        0.0000 
     54 CA         -2.6680   -2.8250  -17.2650 C.3       9 GLL5        0.0000 
     55 CA         -5.9670   -5.4550  -17.4880 C.3       6 GLP5        0.0000 
     56 CA         -6.2563   -2.5155  -17.0628 C.3       3 GLC5        0.0000 
     57 CA         -7.5350   -3.6400  -18.1700 C.3       6 GLP5        0.0000 
     58 CA         -4.2988   -1.7865  -14.1928 C.3       3 GLC5        0.0000 
     59 CA         -5.5240   -0.9700  -15.9320 C.3       9 GLL5        0.0000 
     60 CA         -3.6200   -2.1820  -12.4300 C.3       6 GLP5        0.0000 
     61 CA         -3.2418   -0.3211  -16.3847 C.3       3 GLC5        0.0000 
     62 CA         -1.6650    0.8020  -16.5050 C.3       6 GLP5        0.0000 
     63 CA         -6.9893   -1.3222  -15.2673 C.3       3 GLC5        0.0000 
     64 CA         -8.2030   -1.9690  -14.0170 C.3       6 GLP5        0.0000 
     65 CA         -5.1593    1.0212  -17.0798 C.3       3 GLC5        0.0000 
     66 CA         -4.5430    2.7180  -17.6420 C.3       6 GLP5        0.0000 
     67 CA         -4.6940    0.8625  -17.9930 C.3       3 GLC5        0.0000 
     68 CA         -4.2820   -1.4030  -18.3790 C.3       9 GLL5        0.0000 
     69 CA         -6.2674   -2.2912  -18.1063 C.3       3 GLC5        0.0000 
     70 CA         -6.0270   -0.3810  -17.1030 C.3       9 GLL5        0.0000 
     71 CA         -2.9602   -0.2435  -17.7402 C.3       3 GLC5        0.0000 
     72 CA         -2.0083   -1.0573  -17.1950 C.3       3 GLC5        0.0000 
     73 CA         -0.2635   -2.3748  -13.0107 C.3       3 GLC5        0.0000 
     74 CA          0.5220   -4.0250  -13.9850 C.3       9 GLL5        0.0000 
     75 CA         -1.4570   -1.2500  -12.1320 C.3       6 GLP5        0.0000 
     76 CA          1.9700   -4.4663  -15.0712 C.3       3 GLC5        0.0000 
     77 CA          3.0100   -5.4330  -16.2530 C.3       6 GLP5        0.0000 
     78 CA          1.6312   -6.0628  -15.0147 C.3       3 GLC5        0.0000 
     79 CA          0.4680   -6.3200  -13.2110 C.3       9 GLL5        0.0000 
     80 CA         -1.7637   -7.5934  -11.7360 C.3       3 GLC5        0.0000 
     81 CA         -3.3400   -6.9320  -11.0860 C.3       6 GLP5        0.0000 
     82 CA         -1.6891   -6.6524  -13.0231 C.3       3 GLC5        0.0000 
     83 CA         -0.4730   -8.3730  -14.1700 C.3       9 GLL5        0.0000 
     84 CA         -3.2680   -5.7720  -12.0730 C.3       6 GLP5        0.0000 
@<TRIPOS>BOND
@<TRIPOS>SUBSTRUCTURE
     1 ALC1       16 GROUP        1 X    ALC  0     ROOT ALC X 1
     2 SEC2       19 GROUP        1 X    SEC  0     **** SEC X 2
     3 GLC5        1 GROUP        1 X    GLC  0     **** GLC X 6
     4 ALP1       18 GROUP        1 Y    ALP  0     ROOT ALP Y 8
     5 SEP2       21 GROUP        1 Y    SEP  0     **** SEP Y 9
     6 GLP5        3 GROUP        1 Y    GLP  0     **** GLP Y 13
     7 ALL1       17 GROUP        1 Z    ALL  0     ROOT ALL Z 15
     8 SEL2       20 GROUP        1 Z    SEL  0     **** SEL Z 16
     9 GLL5        2 GROUP        1 Z    GLL  0     **** GLL Z 20
@<TRIPOS>SET

