#    Name: 3hv7_1AU_1_ligand
#    Modification time : Tue Mar 25 15:07:33 2014

@<TRIPOS>MOLECULE
3hv7_1AU_1_ligand
   55    58     1     0     0
SMALL
NO_CHARGES


@<TRIPOS>ATOM
      1 CBB        -3.7950   -2.0250  -17.2150 C.ar      1 1AU361      0.0000 
      2 CAO        -4.4310   -1.8120  -15.9790 C.ar      1 1AU361      0.0000 
      3 CAG        -5.5240   -0.9700  -15.9320 C.ar      1 1AU361      0.0000 
      4 CAF        -6.0270   -0.3810  -17.1030 C.ar      1 1AU361      0.0000 
      5 CAM        -5.4080   -0.5830  -18.3090 C.ar      1 1AU361      0.0000 
      6 CBA        -4.2820   -1.4030  -18.3790 C.ar      1 1AU361      0.0000 
      7 CAN        -3.6660   -1.5850  -19.6070 C.ar      1 1AU361      0.0000 
      8 CAI        -2.5350   -2.4050  -19.6630 C.ar      1 1AU361      0.0000 
      9 CAL        -2.0350   -3.0080  -18.5050 C.ar      1 1AU361      0.0000 
     10 CAX        -2.6680   -2.8250  -17.2650 C.ar      1 1AU361      0.0000 
     11 NAS        -2.2000   -3.4440  -16.1520 N.am      1 1AU361      0.0000 
     12 CAU        -0.9550   -3.3050  -15.7190 C.2       1 1AU361      0.0000 
     13 OAE        -0.1350   -2.5600  -16.2810 O.2       1 1AU361      0.0000 
     14 NAT        -0.6520   -4.0450  -14.6440 N.am      1 1AU361      0.0000 
     15 CAZ         0.5220   -4.0250  -13.9850 C.2       1 1AU361      0.0000 
     16 CAQ         1.3380   -2.9740  -13.7940 C.2       1 1AU361      0.0000 
     17 CAY         2.3360   -3.4650  -12.9980 C.2       1 1AU361      0.0000 
     18 CBD         3.5940   -2.7060  -12.4840 C.3       1 1AU361      0.0000 
     19 CAB         3.1400   -1.7040  -11.3760 C.3       1 1AU361      0.0000 
     20 CAC         4.7110   -3.6360  -11.9670 C.3       1 1AU361      0.0000 
     21 CAA         4.2600   -1.9790  -13.6320 C.3       1 1AU361      0.0000 
     22 NAR         2.0940   -4.7520  -12.7310 N.2       1 1AU361      0.0000 
     23 NBC         1.0090   -5.0680  -13.2880 N.pl3     1 1AU361      0.0000 
     24 CAW         0.4680   -6.3200  -13.2110 C.ar      1 1AU361      0.0000 
     25 CAP         0.0370   -7.0650  -14.3420 C.ar      1 1AU361      0.0000 
     26 CAK         0.4130   -6.9230  -11.9520 C.ar      1 1AU361      0.0000 
     27 CAH        -0.1030   -8.2120  -11.7860 C.ar      1 1AU361      0.0000 
     28 CAJ        -0.5300   -8.9420  -12.9030 C.ar      1 1AU361      0.0000 
     29 CAV        -0.4730   -8.3730  -14.1700 C.ar      1 1AU361      0.0000 
     30 NAD        -0.9270   -9.0970  -15.1870 N.pl3     1 1AU361      0.0000 
     31 H          -4.0830   -2.2754  -15.1416 H         1 1AU361      0.0000 
     32 H          -5.9841   -0.7645  -15.0303 H         1 1AU361      0.0000 
     33 H          -6.8742    0.2089  -17.0395 H         1 1AU361      0.0000 
     34 H          -5.7639   -0.1367  -19.1650 H         1 1AU361      0.0000 
     35 H          -4.0217   -1.1378  -20.4460 H         1 1AU361      0.0000 
     36 H          -2.0658   -2.5663  -20.5657 H         1 1AU361      0.0000 
     37 H          -1.1895   -3.5960  -18.5594 H         1 1AU361      0.0000 
     38 H          -2.8736   -4.0668  -15.6111 H         1 1AU361      0.0000 
     39 H          -1.4142   -4.7171  -14.2715 H         1 1AU361      0.0000 
     40 H           1.2554   -2.1013  -14.1233 H         1 1AU361      0.0000 
     41 H           0.0964   -6.6556  -15.2721 H         1 1AU361      0.0000 
     42 H           0.7609   -6.4060  -11.1256 H         1 1AU361      0.0000 
     43 H          -0.1692   -8.6229  -10.8500 H         1 1AU361      0.0000 
     44 H          -0.8847   -9.8981  -12.7805 H         1 1AU361      0.0000 
     45 H          -0.8493  -10.0892  -15.0900 H         1 1AU361      0.0000 
     46 H          -1.3054   -8.5844  -15.9578 H         1 1AU361      0.0000 
     47 H           3.9105   -1.1842  -11.0070 H         1 1AU361      0.0000 
     48 H           2.4784   -1.0399  -11.7243 H         1 1AU361      0.0000 
     49 H           2.7071   -2.1728  -10.6060 H         1 1AU361      0.0000 
     50 H           5.0375   -4.2564  -12.6801 H         1 1AU361      0.0000 
     51 H           5.5035   -3.1197  -11.6423 H         1 1AU361      0.0000 
     52 H           4.3988   -4.2036  -11.2052 H         1 1AU361      0.0000 
     53 H           5.0713   -1.4767  -13.3328 H         1 1AU361      0.0000 
     54 H           4.5540   -2.6095  -14.3503 H         1 1AU361      0.0000 
     55 H           3.6451   -1.3154  -14.0581 H         1 1AU361      0.0000 
@<TRIPOS>BOND
     1    2    1 ar   
     2    6    1 ar   
     3   10    1 ar   
     4    3    2 ar   
     5   31    2 1    
     6    4    3 ar   
     7   32    3 1    
     8    5    4 ar   
     9   33    4 1    
    10    6    5 ar   
    11   34    5 1    
    12    7    6 ar   
    13    8    7 ar   
    14   35    7 1    
    15    9    8 ar   
    16   36    8 1    
    17   10    9 ar   
    18   37    9 1    
    19   11   10 1    
    20   12   11 am   
    21   38   11 1    
    22   13   12 2    
    23   14   12 am   
    24   15   14 1    
    25   39   14 1    
    26   16   15 2    
    27   23   15 1    
    28   17   16 1    
    29   40   16 1    
    30   18   17 1    
    31   22   17 2    
    32   19   18 1    
    33   20   18 1    
    34   21   18 1    
    35   47   19 1    
    36   48   19 1    
    37   49   19 1    
    38   50   20 1    
    39   51   20 1    
    40   52   20 1    
    41   53   21 1    
    42   54   21 1    
    43   55   21 1    
    44   23   22 1    
    45   24   23 1    
    46   25   24 ar   
    47   26   24 ar   
    48   29   25 ar   
    49   41   25 1    
    50   27   26 ar   
    51   42   26 1    
    52   28   27 ar   
    53   43   27 1    
    54   29   28 ar   
    55   44   28 1    
    56   30   29 1    
    57   45   30 1    
    58   46   30 1    
@<TRIPOS>SUBSTRUCTURE
     1 1AU361      1 GROUP   
@<TRIPOS>SET

