#    Name: 3an4_M7R_1_INTS_M
#    Modification time : Mon Mar 24 17:54:02 2014

@<TRIPOS>MOLECULE
3an4_M7R_1_INTS_M
   95     0     3     0     0
SMALL
NO_CHARGES


@<TRIPOS>ATOM
      1 CA         18.8835   64.9545   17.5895 C.3       1 GLC5        0.0000 
      2 CA         18.3200   67.0500   17.2680 C.3       3 GLL5        0.0000 
      3 CA         19.4470   62.8590   17.9110 C.3       2 GLP5        0.0000 
      4 CA         16.0360   64.9185   17.0560 C.3       1 GLC5        0.0000 
      5 CA         17.1470   66.5180   16.4300 C.3       3 GLL5        0.0000 
      6 CA         14.9250   63.3190   17.6820 C.3       2 GLP5        0.0000 
      7 CA         18.0855   64.5020   16.5395 C.3       1 GLC5        0.0000 
      8 CA         19.0240   62.4860   16.6490 C.3       2 GLP5        0.0000 
      9 CA         19.0515   65.2465   11.5505 C.3       1 GLC5        0.0000 
     10 CA         17.6320   66.7240   12.0270 C.3       3 GLL5        0.0000 
     11 CA         20.4710   63.7690   11.0740 C.3       2 GLP5        0.0000 
     12 CA         18.6570   68.2470   13.9970 C.3       1 GLC5        0.0000 
     13 CA         18.6010   66.1780   14.3140 C.3       3 GLL5        0.0000 
     14 CA         18.7130   70.3160   13.6800 C.3       2 GLP5        0.0000 
     15 CA         19.7565   65.4720   10.6175 C.3       1 GLC5        0.0000 
     16 CA         19.0420   67.1750   10.1610 C.3       3 GLL5        0.0000 
     17 CA         17.3330   67.9385    7.6230 C.3       1 GLC5        0.0000 
     18 CA         18.9260   67.7320    8.7730 C.3       3 GLL5        0.0000 
     19 CA         15.7400   68.1450    6.4730 C.3       2 GLP5        0.0000 
     20 CA         20.5405   66.7965    7.8615 C.3       1 GLC5        0.0000 
     21 CA         22.1550   65.8610    6.9500 C.3       2 GLP5        0.0000 
     22 CA         20.7905   70.3845    8.7535 C.3       1 GLC5        0.0000 
     23 CA         19.8090   68.9400    8.6600 C.3       3 GLL5        0.0000 
     24 CA         21.7720   71.8290    8.8470 C.3       2 GLP5        0.0000 
     25 CA         21.4550   68.5465    7.9840 C.3       1 GLC5        0.0000 
     26 CA         23.1010   68.1530    7.3080 C.3       2 GLP5        0.0000 
     27 CA         16.1940   69.4405    7.9975 C.3       1 GLC5        0.0000 
     28 CA         16.6480   70.7360    9.5220 C.3       3 GLL5        0.0000 
     29 CA         16.7520   72.1015    5.4585 C.3       1 GLC5        0.0000 
     30 CA         17.7390   73.6750    6.3220 C.3       3 GLL5        0.0000 
     31 CA         15.7650   70.5280    4.5950 C.3       2 GLP5        0.0000 
     32 CA         17.3505   74.8090   10.3150 C.3       1 GLC5        0.0000 
     33 CA         17.5940   75.0070    8.4950 C.3       3 GLL5        0.0000 
     34 CA         17.1070   74.6110   12.1350 C.3       2 GLP5        0.0000 
     35 CA         20.7285   74.7660    6.9600 C.3       1 GLC5        0.0000 
     36 CA         19.1060   75.8070    6.6050 C.3       3 GLL5        0.0000 
     37 CA         22.3510   73.7250    7.3150 C.3       2 GLP5        0.0000 
     38 CA         21.8755   69.7915   21.1375 C.3       1 GLC5        0.0000 
     39 CA         20.3460   70.7430   19.7930 C.3       3 GLL5        0.0000 
     40 CA         23.4050   68.8400   22.4820 C.3       2 GLP5        0.0000 
     41 CA         14.2055   70.4120   11.5920 C.3       1 GLC5        0.0000 
     42 CA         15.2160   70.4860    9.5910 C.3       3 GLL5        0.0000 
     43 CA         13.1950   70.3380   13.5930 C.3       2 GLP5        0.0000 
     44 CA         16.0025   71.6965    6.4055 C.3       1 GLC5        0.0000 
     45 CA         16.2400   72.8650    8.2160 C.3       3 GLL5        0.0000 
     46 CA         16.7172   68.1522   17.7195 C.3       1 GLC5        0.0000 
     47 CA         18.4250   68.6050   17.1700 C.3       3 GLL5        0.0000 
     48 CA         15.0620   68.4770   18.2200 C.3       2 GLP5        0.0000 
     49 CA         18.8538   69.6250   15.6208 C.3       1 GLC5        0.0000 
     50 CA         18.1492   70.7930   17.3863 C.3       1 GLC5        0.0000 
     51 CA         17.3040   72.6520   17.2110 C.3       2 GLP5        0.0000 
     52 CA         16.1542   67.5135   16.9525 C.3       1 GLC5        0.0000 
     53 CA         17.6509   68.6436   13.6372 C.3       1 GLC5        0.0000 
     54 CA         16.3820   67.1250   12.6640 C.3       3 GLL5        0.0000 
     55 CA         16.1480   64.9693   11.9703 C.3       1 GLC5        0.0000 
     56 CA         15.2890   63.0140   11.5950 C.3       2 GLP5        0.0000 
     57 CA         18.7518   68.2777   12.2350 C.3       1 GLC5        0.0000 
     58 CA         19.3180   70.0680   12.0200 C.3       2 GLP5        0.0000 
     59 CA         17.9380   64.2988   13.3298 C.3       1 GLC5        0.0000 
     60 CA         18.7390   66.2510   12.8730 C.3       3 GLL5        0.0000 
     61 CA         17.2060   62.3830   13.0660 C.3       2 GLP5        0.0000 
     62 CA         20.1240   65.4468   12.8902 C.3       1 GLC5        0.0000 
     63 CA         21.5780   64.6790   12.1870 C.3       2 GLP5        0.0000 
     64 CA         18.6280   65.9518    8.0835 C.3       1 GLC5        0.0000 
     65 CA         18.2720   64.4500    6.7000 C.3       2 GLP5        0.0000 
     66 CA         20.1002   68.9795    7.0663 C.3       1 GLC5        0.0000 
     67 CA         20.8330   69.6230    5.4160 C.3       2 GLP5        0.0000 
     68 CA         19.3573   69.1324   10.5418 C.3       1 GLC5        0.0000 
     69 CA         14.1974   68.1492   12.9840 C.3       1 GLC5        0.0000 
     70 CA         15.2520   67.5980   11.8690 C.3       3 GLL5        0.0000 
     71 CA         12.6120   68.9550   13.3400 C.3       2 GLP5        0.0000 
     72 CA         18.1112   70.6955   10.6020 C.3       1 GLC5        0.0000 
     73 CA         19.0040   72.6722    5.3905 C.3       1 GLC5        0.0000 
     74 CA         19.9860   71.0420    4.8250 C.3       2 GLP5        0.0000 
     75 CA         19.6123   74.9145    8.8532 C.3       1 GLC5        0.0000 
     76 CA         21.3470   74.1910    9.5760 C.3       2 GLP5        0.0000 
     77 CA         20.2213   77.2670    8.0452 C.3       1 GLC5        0.0000 
     78 CA         21.8090   78.4960    8.9050 C.3       2 GLP5        0.0000 
     79 CA         19.2321   75.1624    4.2446 C.3       1 GLC5        0.0000 
     80 CA         18.3050   74.9300    5.5900 C.3       3 GLL5        0.0000 
     81 CA         20.5470   74.7540    2.9420 C.3       2 GLP5        0.0000 
     82 CA         15.1324   75.0742    4.4868 C.3       1 GLC5        0.0000 
     83 CA         17.1290   75.7730    4.9970 C.3       3 GLL5        0.0000 
     84 CA         13.7470   74.4540    3.2170 C.3       2 GLP5        0.0000 
     85 CA         18.4015   70.8842   20.2912 C.3       1 GLC5        0.0000 
     86 CA         16.9820   71.3350   21.1620 C.3       2 GLP5        0.0000 
     87 CA         20.1953   72.0184   18.6279 C.3       1 GLC5        0.0000 
     88 CA         19.2960   70.1240   19.0480 C.3       3 GLL5        0.0000 
     89 CA         19.6270   73.5680   17.8230 C.3       2 GLP5        0.0000 
     90 CA         23.3515   69.8073   19.7318 C.3       1 GLC5        0.0000 
     91 CA         21.7060   70.5040   19.4450 C.3       3 GLL5        0.0000 
     92 CA         24.8400   69.5480   20.5740 C.3       2 GLP5        0.0000 
     93 CA         14.6948   70.1059    7.6262 C.3       1 GLC5        0.0000 
     94 CA         14.5060   68.9610    6.1410 C.3       2 GLP5        0.0000 
     95 CA         16.9037   73.4993   10.3330 C.3       1 GLC5        0.0000 
@<TRIPOS>BOND
@<TRIPOS>SUBSTRUCTURE
     1 GLC5        1 GROUP        1 X    GLC  0     ROOT GLC X 6
     2 GLP5        3 GROUP        1 Y    GLP  0     ROOT GLP Y 13
     3 GLL5        2 GROUP        1 Z    GLL  0     ROOT GLL Z 20
@<TRIPOS>SET

