#    Name: 3an4_M7R_1_ligand
#    Modification time : Mon Mar 24 17:54:02 2014

@<TRIPOS>MOLECULE
3an4_M7R_1_ligand
   84    89     1     0     0
SMALL
NO_CHARGES


@<TRIPOS>ATOM
      1 C1         18.0490   66.5230   18.5750 C.2       1 M7R1        0.0000 
      2 O1         17.9370   65.3340   18.8410 O.co2     1 M7R1        0.0000 
      3 C2         18.3200   67.0500   17.2680 C.3       1 M7R1        0.0000 
      4 O2         17.9080   67.4410   19.5670 O.co2     1 M7R1        0.0000 
      5 C3         18.4250   68.6050   17.1700 C.3       1 M7R1        0.0000 
      6 O3         17.7420   66.7970   10.6200 O.3       1 M7R1        0.0000 
      7 C4         19.5640   69.2630   17.9530 C.ar      1 M7R1        0.0000 
      8 C5         17.1470   66.5180   16.4300 C.3       1 M7R1        0.0000 
      9 C6         17.3460   66.5820   14.9400 C.ar      1 M7R1        0.0000 
     10 C7         16.2450   67.0530   14.1100 C.ar      1 M7R1        0.0000 
     11 C8         16.3820   67.1250   12.6640 C.ar      1 M7R1        0.0000 
     12 C9         17.6320   66.7240   12.0270 C.ar      1 M7R1        0.0000 
     13 C10        18.7390   66.2510   12.8730 C.ar      1 M7R1        0.0000 
     14 C11        18.6010   66.1780   14.3140 C.ar      1 M7R1        0.0000 
     15 C12        19.0420   67.1750   10.1610 C.3       1 M7R1        0.0000 
     16 C13        18.9260   67.7320    8.7730 C.3       1 M7R1        0.0000 
     17 C14        19.8090   68.9400    8.6600 C.3       1 M7R1        0.0000 
     18 C15        15.2520   67.5980   11.8690 C.3       1 M7R1        0.0000 
     19 C17        14.2990   71.4310    8.9700 C.ar      1 M7R1        0.0000 
     20 C19        14.8030   72.6000    8.2940 C.ar      1 M7R1        0.0000 
     21 C22        16.6480   70.7360    9.5220 C.ar      1 M7R1        0.0000 
     22 C23        16.7890   74.1110    7.4910 C.3       1 M7R1        0.0000 
     23 C24        17.7390   73.6750    6.3220 C.3       1 M7R1        0.0000 
     24 C25        17.5940   75.0070    8.4950 C.3       1 M7R1        0.0000 
     25 C26        15.6210   74.9900    6.8820 C.3       1 M7R1        0.0000 
     26 C27        18.3050   74.9300    5.5900 C.3       1 M7R1        0.0000 
     27 C28        18.1610   76.2690    7.7660 C.3       1 M7R1        0.0000 
     28 C29        16.1920   76.2420    6.1500 C.3       1 M7R1        0.0000 
     29 C30        19.1060   75.8070    6.6050 C.3       1 M7R1        0.0000 
     30 C31        17.1290   75.7730    4.9970 C.3       1 M7R1        0.0000 
     31 C32        16.9900   77.1050    7.1720 C.3       1 M7R1        0.0000 
     32 C51        19.2960   70.1240   19.0480 C.ar      1 M7R1        0.0000 
     33 C52        20.3460   70.7430   19.7930 C.ar      1 M7R1        0.0000 
     34 C53        21.7060   70.5040   19.4450 C.ar      1 M7R1        0.0000 
     35 C54        22.0200   69.6290   18.3340 C.ar      1 M7R1        0.0000 
     36 C55        20.9460   69.0100   17.5890 C.ar      1 M7R1        0.0000 
     37 C87        15.2160   70.4860    9.5910 C.ar      1 M7R1        0.0000 
     38 C97        14.7140   69.3580   10.2290 C.2       1 M7R1        0.0000 
     39 C98        16.2400   72.8650    8.2160 C.ar      1 M7R1        0.0000 
     40 C99        17.1610   71.9100    8.8460 C.ar      1 M7R1        0.0000 
     41 N99        15.6080   68.7890   11.1250 N.am      1 M7R1        0.0000 
     42 O99        13.5740   68.9170    9.9920 O.2       1 M7R1        0.0000 
     43 H          19.2168   66.6091   16.8544 H         1 M7R1        0.0000 
     44 H          17.4582   69.0337   17.5068 H         1 M7R1        0.0000 
     45 H          18.5200   68.8732   16.0972 H         1 M7R1        0.0000 
     46 H          16.2371   67.0890   16.7060 H         1 M7R1        0.0000 
     47 H          16.9535   65.4685   16.7321 H         1 M7R1        0.0000 
     48 H          15.3755   67.3329   14.5458 H         1 M7R1        0.0000 
     49 H          19.6080   65.9740   12.4322 H         1 M7R1        0.0000 
     50 H          19.3620   65.8519   14.8823 H         1 M7R1        0.0000 
     51 H          19.7221   66.3166   10.1360 H         1 M7R1        0.0000 
     52 H          19.4871   67.9397   10.8070 H         1 M7R1        0.0000 
     53 H          17.8950   68.0129    8.5762 H         1 M7R1        0.0000 
     54 H          19.2373   66.9825    8.0505 H         1 M7R1        0.0000 
     55 H          14.3938   67.8080   12.5329 H         1 M7R1        0.0000 
     56 H          14.9270   66.8010   11.1759 H         1 M7R1        0.0000 
     57 H          13.3026   71.2604    9.0167 H         1 M7R1        0.0000 
     58 H          14.1588   73.2552    7.8624 H         1 M7R1        0.0000 
     59 H          17.2898   70.0811    9.9517 H         1 M7R1        0.0000 
     60 H          17.1774   73.0785    5.6207 H         1 M7R1        0.0000 
     61 H          18.5571   73.1046    6.7323 H         1 M7R1        0.0000 
     62 H          18.4146   74.4328    8.8954 H         1 M7R1        0.0000 
     63 H          16.9340   75.3242    9.2870 H         1 M7R1        0.0000 
     64 H          14.9777   75.3083    7.6884 H         1 M7R1        0.0000 
     65 H          15.0692   74.3842    6.1792 H         1 M7R1        0.0000 
     66 H          18.9470   74.6250    4.8085 H         1 M7R1        0.0000 
     67 H          18.7088   76.8549    8.4491 H         1 M7R1        0.0000 
     68 H          15.3951   76.8078    5.7528 H         1 M7R1        0.0000 
     69 H          19.4868   76.6759    6.0971 H         1 M7R1        0.0000 
     70 H          19.9093   75.2229    7.0191 H         1 M7R1        0.0000 
     71 H          16.5691   75.1601    4.3125 H         1 M7R1        0.0000 
     72 H          17.5337   76.6351    4.4965 H         1 M7R1        0.0000 
     73 H          17.3925   77.9678    6.6667 H         1 M7R1        0.0000 
     74 H          16.3308   77.4065    7.9697 H         1 M7R1        0.0000 
     75 H          18.3192   70.3107   19.3166 H         1 M7R1        0.0000 
     76 H          20.1197   71.3553   20.5732 H         1 M7R1        0.0000 
     77 H          22.4572   70.9380   19.9643 H         1 M7R1        0.0000 
     78 H          22.9782   69.4539   18.0834 H         1 M7R1        0.0000 
     79 H          21.1562   68.3990   16.8121 H         1 M7R1        0.0000 
     80 H          18.1537   72.0802    8.8029 H         1 M7R1        0.0000 
     81 H          16.5354   69.1952   11.2807 H         1 M7R1        0.0000 
     82 H          20.7673   68.7176    8.8393 H         1 M7R1        0.0000 
     83 H          19.7681   69.3458    7.7469 H         1 M7R1        0.0000 
     84 H          19.5471   69.6535    9.3098 H         1 M7R1        0.0000 
@<TRIPOS>BOND
     1    2    1 ar   
     2    3    1 1    
     3    4    1 ar   
     4    5    3 1    
     5    8    3 1    
     6   43    3 1    
     7    7    5 1    
     8   44    5 1    
     9   45    5 1    
    10   12    6 1    
    11   15    6 1    
    12   32    7 ar   
    13   36    7 ar   
    14    9    8 1    
    15   46    8 1    
    16   47    8 1    
    17   10    9 ar   
    18   14    9 ar   
    19   11   10 ar   
    20   48   10 1    
    21   12   11 ar   
    22   18   11 1    
    23   13   12 ar   
    24   14   13 ar   
    25   49   13 1    
    26   50   14 1    
    27   16   15 1    
    28   51   15 1    
    29   52   15 1    
    30   17   16 1    
    31   53   16 1    
    32   54   16 1    
    33   82   17 1    
    34   83   17 1    
    35   84   17 1    
    36   41   18 1    
    37   55   18 1    
    38   56   18 1    
    39   20   19 ar   
    40   37   19 ar   
    41   57   19 1    
    42   39   20 ar   
    43   58   20 1    
    44   37   21 ar   
    45   40   21 ar   
    46   59   21 1    
    47   23   22 1    
    48   24   22 1    
    49   25   22 1    
    50   39   22 1    
    51   26   23 1    
    52   60   23 1    
    53   61   23 1    
    54   27   24 1    
    55   62   24 1    
    56   63   24 1    
    57   28   25 1    
    58   64   25 1    
    59   65   25 1    
    60   29   26 1    
    61   30   26 1    
    62   66   26 1    
    63   29   27 1    
    64   31   27 1    
    65   67   27 1    
    66   30   28 1    
    67   31   28 1    
    68   68   28 1    
    69   69   29 1    
    70   70   29 1    
    71   71   30 1    
    72   72   30 1    
    73   73   31 1    
    74   74   31 1    
    75   33   32 ar   
    76   75   32 1    
    77   34   33 ar   
    78   76   33 1    
    79   35   34 ar   
    80   77   34 1    
    81   36   35 ar   
    82   78   35 1    
    83   79   36 1    
    84   38   37 1    
    85   41   38 am   
    86   42   38 2    
    87   40   39 ar   
    88   80   40 1    
    89   81   41 1    
@<TRIPOS>SUBSTRUCTURE
     1 M7R1        1 GROUP   
@<TRIPOS>SET

