#    Name: 2owb_626_1_INTS_M
#    Modification time : Mon Mar 24 17:55:35 2014

@<TRIPOS>MOLECULE
2owb_626_1_INTS_M
   68     0     9     0     0
SMALL
NO_CHARGES


@<TRIPOS>ATOM
      1 O           3.4010   29.3020   68.4065 O.2       1 ALC1        0.0000 
      2 O           2.2070   28.5660   68.0640 O.2       7 ALL1        0.0000 
      3 O           4.5950   30.0380   68.7490 O.2       4 ALP1        0.0000 
      4 N           2.6945   27.8050   70.1740 N.am      2 SEC2        0.0000 
      5 N           2.0440   27.5860   68.8750 N.am      8 SEL2        0.0000 
      6 N           3.3450   28.0240   71.4730 N.am      5 SEP2        0.0000 
      7 O           0.8815   25.9560   70.6975 O.2       1 ALC1        0.0000 
      8 O           0.7470   25.6700   69.1520 O.2       7 ALL1        0.0000 
      9 O           1.0160   26.2420   72.2430 O.2       4 ALP1        0.0000 
     10 CA          1.2205   24.1025   72.5925 C.3       3 GLC5        0.0000 
     11 CA          0.2030   23.3230   70.8220 C.3       9 GLL5        0.0000 
     12 CA          2.2380   24.8820   74.3630 C.3       6 GLP5        0.0000 
     13 CA          1.9915   31.2330   66.2815 C.3       3 GLC5        0.0000 
     14 CA          1.0500   29.2840   65.7690 C.3       9 GLL5        0.0000 
     15 CA          2.9330   33.1820   66.7940 C.3       6 GLP5        0.0000 
     16 CA          2.2495   30.1125   64.4005 C.3       3 GLC5        0.0000 
     17 CA          3.4490   30.9410   63.0320 C.3       6 GLP5        0.0000 
     18 CA         -3.0425   20.2450   72.1070 C.3       3 GLC5        0.0000 
     19 CA         -1.7640   18.7760   71.3230 C.3       9 GLL5        0.0000 
     20 CA         -4.3210   21.7140   72.8910 C.3       6 GLP5        0.0000 
     21 CA          0.8265   19.3555   69.7025 C.3       3 GLC5        0.0000 
     22 CA         -0.7340   18.0130   70.4850 C.3       9 GLL5        0.0000 
     23 CA          2.3870   20.6980   68.9200 C.3       6 GLP5        0.0000 
     24 CA          1.6930   19.7355   70.4840 C.3       3 GLC5        0.0000 
     25 CA          0.9990   18.7730   72.0480 C.3       9 GLL5        0.0000 
     26 CA          3.4285   16.7090   69.6380 C.3       3 GLC5        0.0000 
     27 CA          1.4540   16.8830   70.5530 C.3       9 GLL5        0.0000 
     28 CA          5.4030   16.5350   68.7230 C.3       6 GLP5        0.0000 
     29 CA          1.9205   18.7905   69.7365 C.3       3 GLC5        0.0000 
     30 CA         -2.3835   23.3400   60.8045 C.3       3 GLC5        0.0000 
     31 CA         -1.1010   25.1660   60.8630 C.3       9 GLL5        0.0000 
     32 CA         -3.6660   21.5140   60.7460 C.3       6 GLP5        0.0000 
     33 CA          1.1950   26.9630   59.9880 C.3       3 GLC5        0.0000 
     34 CA          0.0640   25.9230   60.9060 C.3       9 GLL5        0.0000 
     35 CA          2.3260   28.0030   59.0700 C.3       6 GLP5        0.0000 
     36 CA          0.6845   28.0950   60.6325 C.3       3 GLC5        0.0000 
     37 CA         -0.0550   27.0070   61.8670 C.3       9 GLL5        0.0000 
     38 CA          1.4240   29.1830   59.3980 C.3       6 GLP5        0.0000 
     39 CA         -2.4860   28.7960   65.0825 C.3       3 GLC5        0.0000 
     40 CA         -1.7960   27.9610   63.5460 C.3       9 GLL5        0.0000 
     41 CA         -3.1760   29.6310   66.6190 C.3       6 GLP5        0.0000 
     42 CA          0.2165   22.1568   68.0305 C.3       3 GLC5        0.0000 
     43 CA         -0.4150   23.5420   69.5720 C.3       9 GLL5        0.0000 
     44 CA          1.2870   21.2770   66.7190 C.3       6 GLP5        0.0000 
     45 CA         -1.5940   24.4138   71.3040 C.3       3 GLC5        0.0000 
     46 CA         -3.0820   25.3950   72.4110 C.3       6 GLP5        0.0000 
     47 CA          1.2363   21.7195   70.0577 C.3       3 GLC5        0.0000 
     48 CA         -1.9400   22.2885   72.1505 C.3       3 GLC5        0.0000 
     49 CA         -0.0320   22.1590   71.5690 C.3       9 GLL5        0.0000 
     50 CA         -3.4120   22.9250   72.9590 C.3       6 GLP5        0.0000 
     51 CA          0.5853   20.9765   69.7040 C.3       3 GLC5        0.0000 
     52 CA         -0.9040   21.1450   71.1150 C.3       9 GLL5        0.0000 
     53 CA         -2.4115   22.4365   71.2227 C.3       3 GLC5        0.0000 
     54 CA         -1.5290   21.3650   69.8610 C.3       9 GLL5        0.0000 
     55 CA          1.1005   26.0110   65.5535 C.3       3 GLC5        0.0000 
     56 CA          0.6220   27.4120   67.1700 C.3       9 GLL5        0.0000 
     57 CA          2.0710   24.7080   64.4900 C.3       6 GLP5        0.0000 
     58 CA          2.8317   27.7490   66.4660 C.3       3 GLC5        0.0000 
     59 CA          4.6440   26.8760   66.5070 C.3       6 GLP5        0.0000 
     60 CA         -3.4285   25.1440   60.5232 C.3       3 GLC5        0.0000 
     61 CA         -2.3310   25.7200   61.9460 C.3       9 GLL5        0.0000 
     62 CA         -5.1410   24.8450   59.6420 C.3       6 GLP5        0.0000 
     63 CA         -0.4052   25.6872   59.0422 C.3       3 GLC5        0.0000 
     64 CA         -0.2920   25.8300   57.2000 C.3       6 GLP5        0.0000 
     65 CA          0.0043   23.7477   59.9638 C.3       3 GLC5        0.0000 
     66 CA          0.5270   21.9510   59.0430 C.3       6 GLP5        0.0000 
     67 CA          0.0514   24.9357   62.6162 C.3       3 GLC5        0.0000 
     68 CA          1.1560   23.5550   63.4350 C.3       6 GLP5        0.0000 
@<TRIPOS>BOND
@<TRIPOS>SUBSTRUCTURE
     1 ALC1        1 GROUP        1 X    ALC  0     ROOT ALC X 1
     2 SEC2        4 GROUP        1 X    SEC  0     **** SEC X 2
     3 GLC5       10 GROUP        1 X    GLC  0     **** GLC X 6
     4 ALP1        3 GROUP        1 Y    ALP  0     ROOT ALP Y 8
     5 SEP2        6 GROUP        1 Y    SEP  0     **** SEP Y 9
     6 GLP5       12 GROUP        1 Y    GLP  0     **** GLP Y 13
     7 ALL1        2 GROUP        1 Z    ALL  0     ROOT ALL Z 15
     8 SEL2        5 GROUP        1 Z    SEL  0     **** SEL Z 16
     9 GLL5       11 GROUP        1 Z    GLL  0     **** GLL Z 20
@<TRIPOS>SET

