#    Name: 2owb_626_1_ligand
#    Modification time : Mon Mar 24 17:55:35 2014

@<TRIPOS>MOLECULE
2owb_626_1_ligand
   57    61     1     0     0
SMALL
NO_CHARGES


@<TRIPOS>ATOM
      1 C1         -0.6310   28.7700   64.1010 C.2       1 626500      0.0000 
      2 O2         -0.2580   29.7610   63.4780 O.2       1 626500      0.0000 
      3 N3         -0.0340   28.4200   65.2440 N.am      1 626500      0.0000 
      4 N4          2.2070   28.5660   68.0640 N.pl3     1 626500      0.0000 
      5 C5          1.0950   26.8180   68.4280 C.2       1 626500      0.0000 
      6 N6          2.0440   27.5860   68.8750 N.2       1 626500      0.0000 
      7 N7          0.7470   25.6700   69.1520 N.am      1 626500      0.0000 
      8 C8         -0.1730   24.7700   68.7470 C.2       1 626500      0.0000 
      9 C9         -0.4150   23.5420   69.5720 C.ar      1 626500      0.0000 
     10 O10        -0.8200   24.8810   67.7080 O.2       1 626500      0.0000 
     11 C11         0.2030   23.3230   70.8220 C.ar      1 626500      0.0000 
     12 C12        -0.0320   22.1590   71.5690 C.ar      1 626500      0.0000 
     13 C13        -1.5290   21.3650   69.8610 C.ar      1 626500      0.0000 
     14 C14        -1.2930   22.5310   69.1120 C.ar      1 626500      0.0000 
     15 C15         1.3560   28.5080   66.9920 C.2       1 626500      0.0000 
     16 C16         0.6220   27.4120   67.1700 C.2       1 626500      0.0000 
     17 C17        -0.3620   27.2160   66.0640 C.2       1 626500      0.0000 
     18 C18         1.0500   29.2840   65.7690 C.2       1 626500      0.0000 
     19 N19        -1.1260   19.9640   71.9180 N.3       1 626500      0.0000 
     20 C20        -1.7640   18.7760   71.3230 C.3       1 626500      0.0000 
     21 C21        -0.7340   18.0130   70.4850 C.3       1 626500      0.0000 
     22 N22         0.4230   17.6180   71.3230 N.4       1 626500      0.0000 
     23 C23         0.9990   18.7730   72.0480 C.3       1 626500      0.0000 
     24 C24        -0.0820   19.5050   72.8470 C.3       1 626500      0.0000 
     25 C25         1.4540   16.8830   70.5530 C.3       1 626500      0.0000 
     26 C26        -0.9040   21.1450   71.1150 C.ar      1 626500      0.0000 
     27 C27        -1.1010   25.1660   60.8630 C.2       1 626500      0.0000 
     28 C28         0.0640   25.9230   60.9060 C.2       1 626500      0.0000 
     29 S29        -2.3310   25.7200   61.9460 S.3       1 626500      0.0000 
     30 C30        -0.0550   27.0070   61.8670 C.2       1 626500      0.0000 
     31 C31        -1.3080   26.9940   62.4920 C.2       1 626500      0.0000 
     32 C32        -1.7960   27.9610   63.5460 C.3       1 626500      0.0000 
     33 H           2.8681   29.3124   68.1611 H         1 626500      0.0000 
     34 H           1.2509   25.5175   70.0748 H         1 626500      0.0000 
     35 H           0.8468   24.0434   71.1947 H         1 626500      0.0000 
     36 H           0.4457   22.0360   72.4799 H         1 626500      0.0000 
     37 H          -2.1738   20.6462   69.4929 H         1 626500      0.0000 
     38 H          -1.7691   22.6571   68.2044 H         1 626500      0.0000 
     39 H          -0.9336   26.6060   65.9395 H         1 626500      0.0000 
     40 H           1.3864   29.9953   65.4650 H         1 626500      0.0000 
     41 H          -2.5893   19.0649   70.6750 H         1 626500      0.0000 
     42 H          -2.1387   18.1102   72.0981 H         1 626500      0.0000 
     43 H          -0.4093   18.6568   69.6653 H         1 626500      0.0000 
     44 H          -1.2175   17.1305   70.0616 H         1 626500      0.0000 
     45 H           0.0322   16.9078   72.1040 H         1 626500      0.0000 
     46 H           1.4480   19.4801   71.3451 H         1 626500      0.0000 
     47 H           1.7759   18.4399   72.7417 H         1 626500      0.0000 
     48 H          -0.4920   18.8178   73.5816 H         1 626500      0.0000 
     49 H           0.3779   20.3455   73.3588 H         1 626500      0.0000 
     50 H          -1.3574   24.4154   60.3666 H         1 626500      0.0000 
     51 H           0.8538   25.7786   60.3885 H         1 626500      0.0000 
     52 H           0.6473   27.6326   62.0304 H         1 626500      0.0000 
     53 H          -2.5268   28.6399   63.1094 H         1 626500      0.0000 
     54 H          -2.2674   27.4097   64.3581 H         1 626500      0.0000 
     55 H           1.8186   17.4329   69.8016 H         1 626500      0.0000 
     56 H           2.2295   16.6204   71.1272 H         1 626500      0.0000 
     57 H           1.0890   16.0431   70.1513 H         1 626500      0.0000 
@<TRIPOS>BOND
     1    2    1 2    
     2    3    1 am   
     3   32    1 1    
     4   17    3 1    
     5   18    3 1    
     6    6    4 1    
     7   15    4 1    
     8   33    4 1    
     9    6    5 2    
    10    7    5 1    
    11   16    5 1    
    12    8    7 am   
    13   34    7 1    
    14    9    8 1    
    15   10    8 2    
    16   11    9 ar   
    17   14    9 ar   
    18   12   11 ar   
    19   35   11 1    
    20   26   12 ar   
    21   36   12 1    
    22   14   13 ar   
    23   26   13 ar   
    24   37   13 1    
    25   38   14 1    
    26   16   15 1    
    27   18   15 2    
    28   17   16 2    
    29   39   17 1    
    30   40   18 1    
    31   20   19 1    
    32   24   19 1    
    33   26   19 1    
    34   21   20 1    
    35   41   20 1    
    36   42   20 1    
    37   22   21 1    
    38   43   21 1    
    39   44   21 1    
    40   23   22 1    
    41   25   22 1    
    42   45   22 1    
    43   24   23 1    
    44   46   23 1    
    45   47   23 1    
    46   48   24 1    
    47   49   24 1    
    48   55   25 1    
    49   56   25 1    
    50   57   25 1    
    51   28   27 2    
    52   29   27 1    
    53   50   27 1    
    54   30   28 1    
    55   51   28 1    
    56   31   29 1    
    57   31   30 2    
    58   52   30 1    
    59   32   31 1    
    60   53   32 1    
    61   54   32 1    
@<TRIPOS>SUBSTRUCTURE
     1 626500      1 GROUP   
@<TRIPOS>SET

