#    Name: 1DQN_2_CAVITY_N1_6.mol2
#    Modification time : Mon Mar 10 19:00:36 2014

@<TRIPOS>MOLECULE
1DQN_2_CAVITY_N1_6.mol2
  111     0     6     0     0
SMALL
NO_CHARGES


@<TRIPOS>ATOM
      1 CA         10.3750  -16.0251   41.4839 C.3       5 GLY6        0.0000 
      2 CA          8.9677  -16.3986   41.1236 C.3       5 GLY6        0.0000 
      3 OG          7.5918  -17.8731   41.7815 O.2       1 SER1        0.0000 
      4 OG          6.1845  -18.2467   41.4212 O.2       1 SER1        0.0000 
      5 OG          4.8086  -19.7212   42.0791 O.2       1 SER1        0.0000 
      6 CZ          3.2438  -14.5899   36.6274 C.ar      4 PHE5        0.0000 
      7 NZ          3.1808  -12.3879   34.5908 N.2       3 LYS4        0.0000 
      8 O           1.7735  -12.7615   34.2305 O.2       2 ALA2        0.0000 
      9 OG          9.8884  -16.1782   43.5430 O.2       1 SER1        0.0000 
     10 DU          9.8569  -15.0773   42.5247 H         6 CUB7        0.0000 
     11 N           9.8254  -13.9763   41.5065 N.2       2 ALA2        0.0000 
     12 OG          8.4496  -15.4508   42.1644 O.2       1 SER1        0.0000 
     13 DU          8.4181  -14.3498   41.1461 H         6 CUB7        0.0000 
     14 OG          7.0423  -15.8243   41.8040 O.2       1 SER1        0.0000 
     15 DU          7.0108  -14.7234   40.7858 H         6 CUB7        0.0000 
     16 OG          5.6349  -16.1979   41.4437 O.2       1 SER1        0.0000 
     17 OG          4.2906  -18.7734   43.1199 O.2       1 SER1        0.0000 
     18 OG          4.2591  -17.6724   42.1016 O.2       1 SER1        0.0000 
     19 DU          4.2276  -16.5714   41.0834 H         6 CUB7        0.0000 
     20 NZ          4.1331  -13.2685   38.0285 N.2       3 LYS4        0.0000 
     21 OG          2.8832  -19.1469   42.7595 O.2       1 SER1        0.0000 
     22 CA          2.8517  -18.0459   41.7413 C.3       5 GLY6        0.0000 
     23 DU          2.8202  -16.9450   40.7230 H         6 CUB7        0.0000 
     24 DU          2.7572  -14.7430   38.6865 H         6 CUB7        0.0000 
     25 CZ          2.7257  -13.6421   37.6682 C.ar      4 PHE5        0.0000 
     26 NZ          2.6942  -12.5411   36.6499 N.2       3 LYS4        0.0000 
     27 CA          1.4444  -18.4195   41.3809 C.3       5 GLY6        0.0000 
     28 NZ          1.4129  -17.3185   40.3627 N.2       3 LYS4        0.0000 
     29 NZ          1.3814  -16.2176   39.3444 N.2       3 LYS4        0.0000 
     30 CZ          1.3499  -15.1166   38.3261 C.ar      4 PHE5        0.0000 
     31 CZ          1.3184  -14.0156   37.3078 C.ar      4 PHE5        0.0000 
     32 CZ          1.2869  -12.9147   36.2896 C.ar      4 PHE5        0.0000 
     33 NZ         -0.0260  -16.5911   38.9840 N.2       3 LYS4        0.0000 
     34 CZ         -0.0575  -15.4901   37.9658 C.ar      4 PHE5        0.0000 
     35 CZ         -0.0890  -14.3892   36.9475 C.ar      4 PHE5        0.0000 
     36 CZ         -1.4648  -15.8637   37.6054 C.ar      4 PHE5        0.0000 
     37 NZ         -2.8406  -17.3382   38.2633 N.2       3 LYS4        0.0000 
     38 CA          9.3704  -15.2304   44.5838 C.3       5 GLY6        0.0000 
     39 N           9.3389  -14.1295   43.5655 N.2       2 ALA2        0.0000 
     40 N           9.3074  -13.0285   42.5473 N.2       2 ALA2        0.0000 
     41 OG          7.9315  -14.5030   43.2052 O.2       1 SER1        0.0000 
     42 N           7.9000  -13.4020   42.1869 N.2       2 ALA2        0.0000 
     43 N           7.8685  -12.3011   41.1687 N.2       2 ALA2        0.0000 
     44 O           7.8370  -11.2001   40.1504 O.2       2 ALA2        0.0000 
     45 O           7.8055  -10.0991   39.1321 O.2       2 ALA2        0.0000 
     46 OG          6.5242  -14.8765   42.8449 O.2       1 SER1        0.0000 
     47 DU          6.4927  -13.7756   41.8266 H         6 CUB7        0.0000 
     48 DU          6.4612  -12.6746   40.8083 H         6 CUB7        0.0000 
     49 DU          6.4297  -11.5736   39.7900 H         6 CUB7        0.0000 
     50 O           6.3982  -10.4727   38.7718 O.2       2 ALA2        0.0000 
     51 OG          5.1484  -16.3511   43.5028 O.2       1 SER1        0.0000 
     52 OG          5.1169  -15.2501   42.4845 O.2       1 SER1        0.0000 
     53 DU          5.0854  -14.1491   41.4662 H         6 CUB7        0.0000 
     54 DU          5.0539  -13.0481   40.4480 H         6 CUB7        0.0000 
     55 NZ          5.0224  -11.9472   39.4297 N.2       3 LYS4        0.0000 
     56 OG          3.7725  -17.8256   44.1607 O.2       1 SER1        0.0000 
     57 OG          3.7410  -16.7246   43.1424 O.2       1 SER1        0.0000 
     58 DU          3.7095  -15.6236   42.1242 H         6 CUB7        0.0000 
     59 DU          3.6780  -14.5227   41.1059 H         6 CUB7        0.0000 
     60 DU          3.6465  -13.4217   40.0876 H         6 CUB7        0.0000 
     61 CA          3.6150  -12.3207   39.0693 C.3       5 GLY6        0.0000 
     62 NZ          3.5835  -11.2198   38.0511 N.2       3 LYS4        0.0000 
     63 O           2.3652  -18.1991   43.8004 O.2       2 ALA2        0.0000 
     64 CA          2.3337  -17.0981   42.7821 C.3       5 GLY6        0.0000 
     65 CA          2.3022  -15.9972   41.7638 C.3       5 GLY6        0.0000 
     66 DU          2.2707  -14.8962   40.7455 H         6 CUB7        0.0000 
     67 CA          2.2392  -13.7952   39.7273 C.3       5 GLY6        0.0000 
     68 CA          2.2077  -12.6943   38.7090 C.3       5 GLY6        0.0000 
     69 CA          2.1762  -11.5933   37.6907 C.3       5 GLY6        0.0000 
     70 CA          0.8948  -16.3707   41.4035 C.3       5 GLY6        0.0000 
     71 CZ          0.8633  -15.2698   40.3852 C.ar      4 PHE5        0.0000 
     72 CZ          0.8318  -14.1688   39.3669 C.ar      4 PHE5        0.0000 
     73 CA          0.8003  -13.0678   38.3487 C.3       5 GLY6        0.0000 
     74 N           0.7688  -11.9668   37.3304 N.2       2 ALA2        0.0000 
     75 NZ         -0.5440  -15.6433   40.0248 N.2       3 LYS4        0.0000 
     76 CZ         -0.5755  -14.5423   39.0066 C.ar      4 PHE5        0.0000 
     77 N          -0.6070  -13.4414   37.9883 N.2       2 ALA2        0.0000 
     78 CZ         -1.9829  -14.9159   38.6462 C.ar      4 PHE5        0.0000 
     79 CA          8.8208  -13.1816   44.6064 C.3       5 GLY6        0.0000 
     80 CA          7.4450  -14.6562   45.2643 C.3       5 GLY6        0.0000 
     81 CA          7.4135  -13.5552   44.2460 C.3       5 GLY6        0.0000 
     82 N           7.3820  -12.4542   43.2277 N.2       2 ALA2        0.0000 
     83 N           7.3505  -11.3533   42.2095 N.2       2 ALA2        0.0000 
     84 O           7.3190  -10.2523   41.1912 O.2       2 ALA2        0.0000 
     85 OG          6.0376  -15.0297   44.9039 O.2       1 SER1        0.0000 
     86 NZ          6.0061  -13.9287   43.8857 N.2       3 LYS4        0.0000 
     87 DU          5.9746  -12.8278   42.8674 H         6 CUB7        0.0000 
     88 DU          5.9431  -11.7268   41.8491 H         6 CUB7        0.0000 
     89 O           5.9116  -10.6258   40.8308 O.2       2 ALA2        0.0000 
     90 O           5.8801   -9.5249   39.8126 O.2       2 ALA2        0.0000 
     91 CA          4.6618  -16.5042   45.5619 C.3       5 GLY6        0.0000 
     92 NZ          4.6303  -15.4033   44.5436 N.2       3 LYS4        0.0000 
     93 NZ          4.5988  -14.3023   43.5253 N.2       3 LYS4        0.0000 
     94 NZ          4.5673  -13.2013   42.5070 N.2       3 LYS4        0.0000 
     95 NZ          4.5358  -12.1003   41.4888 N.2       3 LYS4        0.0000 
     96 CA          4.5043  -10.9994   40.4705 C.3       5 GLY6        0.0000 
     97 N           3.2544  -16.8778   45.2015 N.2       2 ALA2        0.0000 
     98 N           3.2229  -15.7768   44.1832 N.2       2 ALA2        0.0000 
     99 N           3.1914  -14.6758   43.1650 N.2       2 ALA2        0.0000 
    100 NZ          3.1599  -13.5749   42.1467 N.2       3 LYS4        0.0000 
    101 N           1.8156  -16.1503   43.8229 N.2       2 ALA2        0.0000 
    102 N           1.7841  -15.0494   42.8046 N.2       2 ALA2        0.0000 
    103 N           1.7526  -13.9484   41.7863 N.2       2 ALA2        0.0000 
    104 CZ          0.3138  -13.2210   40.4077 C.ar      4 PHE5        0.0000 
    105 CA          6.8954  -12.6074   45.2868 C.3       5 GLY6        0.0000 
    106 N           6.8639  -11.5064   44.2685 N.2       2 ALA2        0.0000 
    107 N           6.8324  -10.4055   43.2503 N.2       2 ALA2        0.0000 
    108 NZ          5.4881  -12.9809   44.9265 N.2       3 LYS4        0.0000 
    109 NZ          5.4566  -11.8800   43.9082 N.2       3 LYS4        0.0000 
    110 NZ          5.4251  -10.7790   42.8899 N.2       3 LYS4        0.0000 
    111 NZ          3.9862  -10.0516   41.5113 N.2       3 LYS4        0.0000 
@<TRIPOS>BOND
@<TRIPOS>SUBSTRUCTURE
     1 SER1        3 GROUP   
     2 ALA2        8 GROUP   
     3 LYS4        7 GROUP   
     4 PHE5        6 GROUP   
     5 GLY6        1 GROUP   
     6 CUB7       10 GROUP   
@<TRIPOS>SET

