#    Name: 1dqn_IMU_2_INTS_M
#    Modification time : Mon Mar 24 22:19:59 2014

@<TRIPOS>MOLECULE
1dqn_IMU_2_INTS_M
   48     0     9     0     0
SMALL
NO_CHARGES


@<TRIPOS>ATOM
      1 N           1.1035  -19.7535   42.9915 N.am      2 SEC2        0.0000 
      2 N           2.2340  -19.2620   42.4560 N.am      8 SEL2        0.0000 
      3 N          -0.0270  -20.2450   43.5270 N.am      5 SEP2        0.0000 
      4 N           2.4090  -20.5225   42.7195 N.am      2 SEC2        0.0000 
      5 N           2.5840  -21.7830   42.9830 N.am      5 SEP2        0.0000 
      6 N           0.8995  -17.7885   44.8260 N.am      2 SEC2        0.0000 
      7 N           2.2420  -18.2580   44.7280 N.am      8 SEL2        0.0000 
      8 N          -0.4430  -17.3190   44.9240 N.am      5 SEP2        0.0000 
      9 N           1.8740  -19.5455   45.1705 N.am      2 SEC2        0.0000 
     10 N           1.5060  -20.8330   45.6130 N.am      5 SEP2        0.0000 
     11 N           3.4350  -20.4785   43.3415 N.am      2 SEC2        0.0000 
     12 N           4.2860  -19.1740   43.7000 N.am      8 SEL2        0.0000 
     13 N           5.2565  -19.7390   44.8205 N.am      2 SEC2        0.0000 
     14 N           6.2270  -20.3040   45.9410 N.am      5 SEP2        0.0000 
     15 N           5.6315  -18.5060   44.0875 N.am      2 SEC2        0.0000 
     16 N           6.9770  -17.8380   44.4750 N.am      5 SEP2        0.0000 
     17 CA          5.6535  -17.0780   44.5970 C.3       3 GLC5        0.0000 
     18 CA          4.4700  -16.2550   43.2940 C.3       9 GLL5        0.0000 
     19 CA          6.8370  -17.9010   45.9000 C.3       6 GLP5        0.0000 
     20 O           4.0675  -13.3900   45.3265 O.2       1 ALC1        0.0000 
     21 O           4.6090  -13.1810   43.9180 O.2       7 ALL1        0.0000 
     22 O           3.5260  -13.5990   46.7350 O.2       4 ALP1        0.0000 
     23 O           4.0635  -12.3435   44.9900 O.2       1 ALC1        0.0000 
     24 O           3.5180  -11.5060   46.0620 O.2       4 ALP1        0.0000 
     25 O           3.5230  -11.9550   43.8195 O.2       1 ALC1        0.0000 
     26 O           2.4370  -10.7290   43.7210 O.2       4 ALP1        0.0000 
     27 CA          2.3160  -11.6910   41.0700 C.3       3 GLC5        0.0000 
     28 CA          3.5680  -13.1060   41.6680 C.3       9 GLL5        0.0000 
     29 CA          1.0640  -10.2760   40.4720 C.3       6 GLP5        0.0000 
     30 O           5.2625  -11.1020   42.6505 O.2       1 ALC1        0.0000 
     31 O           4.4260  -11.9720   41.5290 O.2       7 ALL1        0.0000 
     32 O           6.0990  -10.2320   43.7720 O.2       4 ALP1        0.0000 
     33 CA          0.2415  -16.5955   41.5905 C.3       3 GLC5        0.0000 
     34 CA          1.3050  -15.3830   40.6120 C.3       9 GLL5        0.0000 
     35 CA         -0.8220  -17.8080   42.5690 C.3       6 GLP5        0.0000 
     36 O          -0.6990  -16.8280   40.1905 O.2       1 ALC1        0.0000 
     37 O           0.1130  -15.4450   40.0460 O.2       7 ALL1        0.0000 
     38 O          -1.5110  -18.2110   40.3350 O.2       4 ALP1        0.0000 
     39 N          -2.9660  -13.6105   37.2755 N.am      2 SEC2        0.0000 
     40 N          -1.9810  -14.5430   37.9750 N.am      8 SEL2        0.0000 
     41 N          -3.9510  -12.6780   36.5760 N.am      5 SEP2        0.0000 
     42 O          -1.0585  -12.0170   36.7555 O.2       1 ALC1        0.0000 
     43 O          -0.4060  -13.1070   37.1760 O.2       7 ALL1        0.0000 
     44 O          -1.7110  -10.9270   36.3350 O.2       4 ALP1        0.0000 
     45 O          -0.2905  -11.2545   36.3000 O.2       1 ALC1        0.0000 
     46 O           1.1300  -11.5820   36.2650 O.2       7 ALL1        0.0000 
     47 CA          1.4387  -12.2200   39.9937 C.3       3 GLC5        0.0000 
     48 CA          1.4400  -13.8800   38.9930 C.3       9 GLL5        0.0000 
@<TRIPOS>BOND
@<TRIPOS>SUBSTRUCTURE
     1 ALC1       20 GROUP        1 X    ALC  0     ROOT ALC X 1
     2 SEC2        1 GROUP        1 X    SEC  0     **** SEC X 2
     3 GLC5       17 GROUP        1 X    GLC  0     **** GLC X 6
     4 ALP1       22 GROUP        1 Y    ALP  0     ROOT ALP Y 8
     5 SEP2        3 GROUP        1 Y    SEP  0     **** SEP Y 9
     6 GLP5       19 GROUP        1 Y    GLP  0     **** GLP Y 13
     7 ALL1       21 GROUP        1 Z    ALL  0     ROOT ALL Z 15
     8 SEL2        2 GROUP        1 Z    SEL  0     **** SEL Z 16
     9 GLL5       18 GROUP        1 Z    GLL  0     **** GLL Z 20
@<TRIPOS>SET

