#    Name: 1dqn_IMU_2_ligand
#    Modification time : Mon Mar 24 22:19:59 2014

@<TRIPOS>MOLECULE
1dqn_IMU_2_ligand
   37    39     1     0     0
SMALL
NO_CHARGES


@<TRIPOS>ATOM
      1 P           2.9900  -18.4820   43.4740 P.3       1 IMU301      0.0000 
      2 C2          0.8800  -12.5150   37.1750 C.2       1 IMU301      0.0000 
      3 O1P         2.2340  -19.2620   42.4560 O.co2     1 IMU301      0.0000 
      4 O2P         2.2420  -18.2580   44.7280 O.co2     1 IMU301      0.0000 
      5 O3P         4.2860  -19.1740   43.7000 O.co2     1 IMU301      0.0000 
      6 O5'         3.4200  -17.1140   42.7940 O.3       1 IMU301      0.0000 
      7 C5'         4.4700  -16.2550   43.2940 C.3       1 IMU301      0.0000 
      8 C4'         4.6470  -15.0580   42.4370 C.3       1 IMU301      0.0000 
      9 N4'         4.2910  -15.2510   41.0430 N.4       1 IMU301      0.0000 
     10 C3'         3.8370  -13.8740   42.9240 C.3       1 IMU301      0.0000 
     11 O3'         4.6090  -13.1810   43.9180 O.3       1 IMU301      0.0000 
     12 C2'         3.5680  -13.1060   41.6680 C.3       1 IMU301      0.0000 
     13 O2'         4.4260  -11.9720   41.5290 O.3       1 IMU301      0.0000 
     14 C1'         3.6330  -14.1270   40.4680 C.3       1 IMU301      0.0000 
     15 C9          2.1870  -14.4480   40.0380 C.2       1 IMU301      0.0000 
     16 C8          1.3050  -15.3830   40.6120 C.2       1 IMU301      0.0000 
     17 N7          0.1130  -15.4450   40.0460 N.pl3     1 IMU301      0.0000 
     18 C5          0.1700  -14.5070   39.0300 C.2       1 IMU301      0.0000 
     19 C6         -0.8430  -14.1100   38.0690 C.2       1 IMU301      0.0000 
     20 O6         -1.9810  -14.5430   37.9750 O.2       1 IMU301      0.0000 
     21 N1         -0.4060  -13.1070   37.1760 N.am      1 IMU301      0.0000 
     22 N2          1.1300  -11.5820   36.2650 N.pl3     1 IMU301      0.0000 
     23 N3          1.8480  -12.8750   38.0810 N.2       1 IMU301      0.0000 
     24 C4          1.4400  -13.8800   38.9930 C.2       1 IMU301      0.0000 
     25 H           5.4278  -16.8054   43.3438 H         1 IMU301      0.0000 
     26 H           4.2421  -15.9274   44.3253 H         1 IMU301      0.0000 
     27 H           5.7077  -14.7373   42.4826 H         1 IMU301      0.0000 
     28 H           2.9169  -14.2619   43.3066 H         1 IMU301      0.0000 
     29 H           2.5038  -12.7881   41.7132 H         1 IMU301      0.0000 
     30 H           4.1648  -13.6731   39.6982 H         1 IMU301      0.0000 
     31 H           1.6013  -15.9403   41.3922 H         1 IMU301      0.0000 
     32 H          -0.6261  -15.9847   40.2542 H         1 IMU301      0.0000 
     33 H          -1.0958  -12.7691   36.4469 H         1 IMU301      0.0000 
     34 H           0.3491  -11.0278   35.9771 H         1 IMU301      0.0000 
     35 H           2.0767  -11.5176   35.9495 H         1 IMU301      0.0000 
     36 H           3.9334  -12.7496   44.5159 H         1 IMU301      0.0000 
     37 H           4.7829  -11.8035   42.4478 H         1 IMU301      0.0000 
@<TRIPOS>BOND
     1    3    1 ar   
     2    4    1 ar   
     3    5    1 ar   
     4    6    1 1    
     5   21    2 1    
     6   22    2 1    
     7   23    2 2    
     8    7    6 1    
     9    8    7 1    
    10   25    7 1    
    11   26    7 1    
    12    9    8 1    
    13   10    8 1    
    14   27    8 1    
    15   14    9 1    
    16   11   10 1    
    17   12   10 1    
    18   28   10 1    
    19   36   11 1    
    20   13   12 1    
    21   14   12 1    
    22   29   12 1    
    23   37   13 1    
    24   15   14 1    
    25   30   14 1    
    26   16   15 2    
    27   24   15 1    
    28   17   16 1    
    29   31   16 1    
    30   18   17 1    
    31   32   17 1    
    32   19   18 1    
    33   24   18 2    
    34   20   19 2    
    35   21   19 am   
    36   33   21 1    
    37   34   22 1    
    38   35   22 1    
    39   24   23 1    
@<TRIPOS>SUBSTRUCTURE
     1 IMU301      1 GROUP   
@<TRIPOS>SET

