#    Name: 1ep1_FMN_1_INTS_M
#    Modification time : Tue Mar 25 00:07:01 2014

@<TRIPOS>MOLECULE
1ep1_FMN_1_INTS_M
   74     0     9     0     0
SMALL
NO_CHARGES


@<TRIPOS>ATOM
      1 N          41.3300   35.8900   28.5105 N.am      2 SEC2        0.0000 
      2 N          40.0310   34.9880   28.2960 N.am      8 SEL2        0.0000 
      3 N          42.6290   36.7920   28.7250 N.am      5 SEP2        0.0000 
      4 N          39.4835   37.2020   30.8275 N.am      2 SEC2        0.0000 
      5 N          39.5410   36.8620   29.4810 N.am      8 SEL2        0.0000 
      6 N          39.4260   37.5420   32.1740 N.am      5 SEP2        0.0000 
      7 N          41.0850   36.8270   29.1030 N.am      2 SEC2        0.0000 
      8 O          37.8470   35.7585   30.9415 O.2       1 ALC1        0.0000 
      9 O          38.2470   34.9830   29.7530 O.2       7 ALL1        0.0000 
     10 O          37.4470   36.5340   32.1300 O.2       4 ALP1        0.0000 
     11 N          36.7470   33.1855   31.8980 N.am      2 SEC2        0.0000 
     12 N          37.2300   33.1110   30.3300 N.am      8 SEL2        0.0000 
     13 N          36.2640   33.2600   33.4660 N.am      5 SEP2        0.0000 
     14 CA         37.2975   28.5230   26.2905 C.3       3 GLC5        0.0000 
     15 CA         38.9690   29.7500   26.9570 C.3       9 GLL5        0.0000 
     16 CA         35.6260   27.2960   25.6240 C.3       6 GLP5        0.0000 
     17 CA         38.9355   27.6515   24.0945 C.3       3 GLC5        0.0000 
     18 CA         39.6390   27.5080   26.0710 C.3       9 GLL5        0.0000 
     19 CA         38.2320   27.7950   22.1180 C.3       6 GLP5        0.0000 
     20 CA         37.6325   27.4020   25.8475 C.3       3 GLC5        0.0000 
     21 CA         41.3340   26.3320   26.1595 C.3       3 GLC5        0.0000 
     22 CA         43.0290   25.1560   26.2480 C.3       6 GLP5        0.0000 
     23 CA         42.7960   28.9180   26.4720 C.3       3 GLC5        0.0000 
     24 CA         42.0180   28.8550   24.7980 C.3       9 GLL5        0.0000 
     25 CA         43.5740   28.9810   28.1460 C.3       6 GLP5        0.0000 
     26 CA         43.2510   29.9010   23.2655 C.3       3 GLC5        0.0000 
     27 CA         44.4840   30.9470   21.7330 C.3       6 GLP5        0.0000 
     28 CA         42.5235   27.0055   25.5230 C.3       3 GLC5        0.0000 
     29 CA         41.6620   33.6110   24.2120 C.3       3 GLC5        0.0000 
     30 CA         41.5410   33.6600   26.2840 C.3       9 GLL5        0.0000 
     31 CA         41.7830   33.5620   22.1400 C.3       6 GLP5        0.0000 
     32 O          42.1035   32.7695   29.0695 O.2       1 ALC1        0.0000 
     33 O          42.9460   33.5480   28.3060 O.2       7 ALL1        0.0000 
     34 O          41.2610   31.9910   29.8330 O.2       4 ALP1        0.0000 
     35 N          43.3285   36.2000   27.4460 N.am      2 SEC2        0.0000 
     36 N          44.0280   35.6080   26.1670 N.am      8 SEL2        0.0000 
     37 O          44.6585   36.6410   25.5075 O.2       1 ALC1        0.0000 
     38 O          44.0280   35.6080   26.1670 O.2       7 ALL1        0.0000 
     39 O          45.2890   37.6740   24.8480 O.2       4 ALP1        0.0000 
     40 CA         43.2395   33.5100   23.7425 C.3       3 GLC5        0.0000 
     41 CA         44.6960   33.4580   25.3450 C.3       9 GLL5        0.0000 
     42 CA         46.3620   34.3335   22.4875 C.3       3 GLC5        0.0000 
     43 CA         45.8180   33.9970   24.5970 C.3       9 GLL5        0.0000 
     44 CA         46.9060   34.6700   20.3780 C.3       6 GLP5        0.0000 
     45 CA         46.6550   35.4280   25.9950 C.3       3 GLC5        0.0000 
     46 CA         47.4920   36.8590   27.3930 C.3       6 GLP5        0.0000 
     47 CA         47.5780   34.4585   24.0455 C.3       3 GLC5        0.0000 
     48 CA         49.3380   34.9200   23.4940 C.3       6 GLP5        0.0000 
     49 N          48.3610   30.8395   27.0245 N.am      2 SEC2        0.0000 
     50 N          48.4320   31.3990   25.7240 N.am      8 SEL2        0.0000 
     51 N          48.2900   30.2800   28.3250 N.am      5 SEP2        0.0000 
     52 N          46.4300   29.6145   25.5710 N.am      2 SEC2        0.0000 
     53 N          46.0460   30.9310   24.9460 N.am      8 SEL2        0.0000 
     54 N          46.8140   28.2980   26.1960 N.am      5 SEP2        0.0000 
     55 N          45.7855   29.6675   24.2875 N.am      2 SEC2        0.0000 
     56 N          45.5250   28.4040   23.6290 N.am      5 SEP2        0.0000 
     57 N          47.5145   31.0460   22.0915 N.am      2 SEC2        0.0000 
     58 N          47.7840   31.7610   23.3420 N.am      8 SEL2        0.0000 
     59 N          47.2450   30.3310   20.8410 N.am      5 SEP2        0.0000 
     60 N          49.0275   32.2735   23.0785 N.am      2 SEC2        0.0000 
     61 N          50.2710   32.7860   22.8150 N.am      5 SEP2        0.0000 
     62 CA         41.9985   29.1493   27.0305 C.3       3 GLC5        0.0000 
     63 CA         39.8680   29.0140   26.2100 C.3       9 GLL5        0.0000 
     64 CA         42.1617   30.1600   27.1830 C.3       3 GLC5        0.0000 
     65 CA         41.1580   30.9830   25.7880 C.3       9 GLL5        0.0000 
     66 CA         39.7182   30.4685   28.7571 C.3       3 GLC5        0.0000 
     67 CA         40.3410   31.6950   26.6520 C.3       9 GLL5        0.0000 
     68 CA         39.7140   29.8860   30.6410 C.3       6 GLP5        0.0000 
     69 CA         44.6240   33.3623   28.3945 C.3       3 GLC5        0.0000 
     70 CA         42.8010   33.9080   27.0030 C.3       9 GLL5        0.0000 
     71 CA         45.7890   32.6530   30.0740 C.3       6 GLP5        0.0000 
     72 CA         44.8705   32.3372   23.3520 C.3       3 GLC5        0.0000 
     73 CA         44.9017   34.7659   27.4250 C.3       3 GLC5        0.0000 
     74 CA         45.7260   35.7670   28.8200 C.3       6 GLP5        0.0000 
@<TRIPOS>BOND
@<TRIPOS>SUBSTRUCTURE
     1 ALC1        8 GROUP        1 X    ALC  0     ROOT ALC X 1
     2 SEC2        1 GROUP        1 X    SEC  0     **** SEC X 2
     3 GLC5       14 GROUP        1 X    GLC  0     **** GLC X 6
     4 ALP1       10 GROUP        1 Y    ALP  0     ROOT ALP Y 8
     5 SEP2        3 GROUP        1 Y    SEP  0     **** SEP Y 9
     6 GLP5       16 GROUP        1 Y    GLP  0     **** GLP Y 13
     7 ALL1        9 GROUP        1 Z    ALL  0     ROOT ALL Z 15
     8 SEL2        2 GROUP        1 Z    SEL  0     **** SEL Z 16
     9 GLL5       15 GROUP        1 Z    GLL  0     **** GLL Z 20
@<TRIPOS>SET

