#    Name: 1ep1_FMN_1_ligand
#    Modification time : Tue Mar 25 00:07:01 2014

@<TRIPOS>MOLECULE
1ep1_FMN_1_ligand
   50    52     1     0     0
SMALL
NO_CHARGES


@<TRIPOS>ATOM
      1 N1         40.0310   34.9880   28.2960 N.2       1 FMN501      0.0000 
      2 C2         39.2640   35.7100   29.1740 C.2       1 FMN501      0.0000 
      3 O2         39.5410   36.8620   29.4810 O.2       1 FMN501      0.0000 
      4 N3         38.2470   34.9830   29.7530 N.am      1 FMN501      0.0000 
      5 C4         38.0020   33.6610   29.5540 C.2       1 FMN501      0.0000 
      6 O4         37.2300   33.1110   30.3300 O.2       1 FMN501      0.0000 
      7 C4A        38.7350   33.0950   28.4290 C.2       1 FMN501      0.0000 
      8 N5         38.4170   31.7710   28.0790 N.2       1 FMN501      0.0000 
      9 C5A        39.2390   31.0640   27.2320 C.ar      1 FMN501      0.0000 
     10 C6         38.9690   29.7500   26.9570 C.ar      1 FMN501      0.0000 
     11 C7         39.8680   29.0140   26.2100 C.ar      1 FMN501      0.0000 
     12 C7M        39.6390   27.5080   26.0710 C.3       1 FMN501      0.0000 
     13 C8         40.9780   29.6210   25.6200 C.ar      1 FMN501      0.0000 
     14 C8M        42.0180   28.8550   24.7980 C.3       1 FMN501      0.0000 
     15 C9         41.1580   30.9830   25.7880 C.ar      1 FMN501      0.0000 
     16 C9A        40.3410   31.6950   26.6520 C.ar      1 FMN501      0.0000 
     17 N10        40.6580   33.0030   27.0230 N.pl3     1 FMN501      0.0000 
     18 C10        39.8350   33.7150   27.8420 C.2       1 FMN501      0.0000 
     19 C1'        41.5410   33.6600   26.2840 C.3       1 FMN501      0.0000 
     20 C2'        42.8010   33.9080   27.0030 C.3       1 FMN501      0.0000 
     21 O2'        42.9460   33.5480   28.3060 O.3       1 FMN501      0.0000 
     22 C3'        44.1170   34.2350   26.4270 C.3       1 FMN501      0.0000 
     23 O3'        44.0280   35.6080   26.1670 O.3       1 FMN501      0.0000 
     24 C4'        44.6960   33.4580   25.3450 C.3       1 FMN501      0.0000 
     25 O4'        43.9270   32.6110   24.5790 O.3       1 FMN501      0.0000 
     26 C5'        45.8180   33.9970   24.5970 C.3       1 FMN501      0.0000 
     27 O5'        46.9130   33.2370   25.1720 O.3       1 FMN501      0.0000 
     28 P          47.3070   31.6910   24.7680 P.3       1 FMN501      0.0000 
     29 O1P        48.4320   31.3990   25.7240 O.co2     1 FMN501      0.0000 
     30 O2P        46.0460   30.9310   24.9460 O.co2     1 FMN501      0.0000 
     31 O3P        47.7840   31.7610   23.3420 O.co2     1 FMN501      0.0000 
     32 H          37.5925   35.5156   30.4209 H         1 FMN501      0.0000 
     33 H          38.1047   29.3094   27.3016 H         1 FMN501      0.0000 
     34 H          41.9039   31.4715   25.2679 H         1 FMN501      0.0000 
     35 H          41.1603   34.6588   25.9296 H         1 FMN501      0.0000 
     36 H          41.8045   33.1203   25.3314 H         1 FMN501      0.0000 
     37 H          42.5207   35.2141   27.3026 H         1 FMN501      0.0000 
     38 H          44.8455   34.1622   27.3301 H         1 FMN501      0.0000 
     39 H          45.3458   32.5929   26.0296 H         1 FMN501      0.0000 
     40 H          45.9368   35.0385   24.7911 H         1 FMN501      0.0000 
     41 H          45.7157   33.7862   23.5570 H         1 FMN501      0.0000 
     42 H          40.3458   27.0749   25.5116 H         1 FMN501      0.0000 
     43 H          39.6450   27.0479   26.9589 H         1 FMN501      0.0000 
     44 H          38.7594   27.3042   25.6413 H         1 FMN501      0.0000 
     45 H          42.7397   29.4578   24.4577 H         1 FMN501      0.0000 
     46 H          42.4633   28.1395   25.3364 H         1 FMN501      0.0000 
     47 H          41.6078   28.4103   24.0018 H         1 FMN501      0.0000 
     48 H          42.1251   33.0190   28.5211 H         1 FMN501      0.0000 
     49 H          44.7489   35.7920   25.4988 H         1 FMN501      0.0000 
     50 H          44.4741   31.7793   24.4844 H         1 FMN501      0.0000 
@<TRIPOS>BOND
     1    2    1 1    
     2   18    1 2    
     3    3    2 2    
     4    4    2 am   
     5    5    4 am   
     6   32    4 1    
     7    6    5 2    
     8    7    5 1    
     9    8    7 2    
    10   18    7 1    
    11    9    8 1    
    12   10    9 ar   
    13   16    9 ar   
    14   11   10 ar   
    15   33   10 1    
    16   12   11 1    
    17   13   11 ar   
    18   42   12 1    
    19   43   12 1    
    20   44   12 1    
    21   14   13 1    
    22   15   13 ar   
    23   45   14 1    
    24   46   14 1    
    25   47   14 1    
    26   16   15 ar   
    27   34   15 1    
    28   17   16 1    
    29   18   17 1    
    30   19   17 1    
    31   20   19 1    
    32   35   19 1    
    33   36   19 1    
    34   21   20 1    
    35   22   20 1    
    36   37   20 1    
    37   48   21 1    
    38   23   22 1    
    39   24   22 1    
    40   38   22 1    
    41   49   23 1    
    42   25   24 1    
    43   26   24 1    
    44   39   24 1    
    45   50   25 1    
    46   27   26 1    
    47   40   26 1    
    48   41   26 1    
    49   28   27 1    
    50   29   28 ar   
    51   30   28 ar   
    52   31   28 ar   
@<TRIPOS>SUBSTRUCTURE
     1 FMN501      1 GROUP   
@<TRIPOS>SET

