#    Name: 4j0z_1H5_1_INTS_M
#    Modification time : Tue Mar 25 05:00:05 2014

@<TRIPOS>MOLECULE
4j0z_1H5_1_INTS_M
   55     0     6     0     0
SMALL
NO_CHARGES


@<TRIPOS>ATOM
      1 CA         16.7775   37.5930  -11.1890 C.3       2 GLC5        0.0000 
      2 CA         16.7650   38.1150   -9.4930 C.3       6 GLL5        0.0000 
      3 CA         16.7900   37.0710  -12.8850 C.3       4 GLP5        0.0000 
      4 CA         18.1475   37.0875   -8.6365 C.3       2 GLC5        0.0000 
      5 CA         19.5300   36.0600   -7.7800 C.3       4 GLP5        0.0000 
      6 O          15.5315   38.5570   -7.1990 O.2       1 ALC1        0.0000 
      7 O          15.7640   39.5970   -7.9240 O.2       5 ALL1        0.0000 
      8 O          15.2990   37.5170   -6.4740 O.2       3 ALP1        0.0000 
      9 CA         18.3990   38.3820  -12.0425 C.3       2 GLC5        0.0000 
     10 CA         18.8410   39.0550  -10.7330 C.3       6 GLL5        0.0000 
     11 CA         17.9570   37.7090  -13.3520 C.3       4 GLP5        0.0000 
     12 CA         19.8310   37.7575  -10.9480 C.3       2 GLC5        0.0000 
     13 CA         20.8210   36.4600  -11.1630 C.3       4 GLP5        0.0000 
     14 O          14.2785   39.6475   -5.7185 O.2       1 ALC1        0.0000 
     15 O          14.1920   40.6860   -6.6620 O.2       5 ALL1        0.0000 
     16 O          14.3650   38.6090   -4.7750 O.2       3 ALP1        0.0000 
     17 O          14.7455   39.1015   -6.5680 O.2       1 ALC1        0.0000 
     18 O          13.3400   41.7260   -5.9760 O.2       1 ALC1        0.0000 
     19 O          12.4880   42.7660   -5.2900 O.2       3 ALP1        0.0000 
     20 O          18.6225   41.6515   -5.4150 O.2       1 ALC1        0.0000 
     21 O          19.9500   41.0650   -5.8200 O.2       5 ALL1        0.0000 
     22 O          17.2950   42.2380   -5.0100 O.2       3 ALP1        0.0000 
     23 CA         17.9510   41.7020   -2.7520 C.3       2 GLC5        0.0000 
     24 CA         19.5530   42.5760   -2.1760 C.3       6 GLL5        0.0000 
     25 CA         16.3490   40.8280   -3.3280 C.3       4 GLP5        0.0000 
     26 CA         17.9060   43.6130   -3.0375 C.3       2 GLC5        0.0000 
     27 CA         16.2590   44.6500   -3.8990 C.3       4 GLP5        0.0000 
     28 CA         18.7775   44.8090    0.8020 C.3       2 GLC5        0.0000 
     29 CA         20.2460   44.1130   -0.3750 C.3       6 GLL5        0.0000 
     30 CA         17.3090   45.5050    1.9790 C.3       4 GLP5        0.0000 
     31 CA         15.4920   37.7090  -11.4020 C.3       2 GLC5        0.0000 
     32 CA         15.4420   37.7840   -9.7610 C.3       6 GLL5        0.0000 
     33 CA         15.5420   37.6340  -13.0430 C.3       4 GLP5        0.0000 
     34 CA         20.0843   38.0370   -8.1745 C.3       2 GLC5        0.0000 
     35 CA         20.8010   40.2680   -7.9590 C.3       6 GLL5        0.0000 
     36 CA         19.6307   39.0726   -5.8740 C.3       2 GLC5        0.0000 
     37 CA         18.4540   40.2680   -7.3680 C.3       6 GLL5        0.0000 
     38 CA         19.8940   37.8210   -4.3120 C.3       4 GLP5        0.0000 
     39 CA         19.3188   38.2203   -7.4943 C.3       2 GLC5        0.0000 
     40 CA         19.7610   40.4930   -7.0490 C.3       6 GLL5        0.0000 
     41 CA         14.5297   37.0012   -8.9545 C.3       2 GLC5        0.0000 
     42 CA         12.9560   36.0530   -8.2820 C.3       4 GLP5        0.0000 
     43 CA         15.5720   39.6972  -11.9522 C.3       2 GLC5        0.0000 
     44 CA         15.0370   40.3190  -10.5190 C.3       6 GLL5        0.0000 
     45 CA         15.4770   38.9220  -13.6230 C.3       4 GLP5        0.0000 
     46 CA         19.1384   37.7028   -8.8343 C.3       2 GLC5        0.0000 
     47 CA         19.2085   45.5222   -1.3985 C.3       2 GLC5        0.0000 
     48 CA         20.4860   43.5020   -1.6590 C.3       6 GLL5        0.0000 
     49 CA         18.0510   47.2370   -1.7800 C.3       4 GLP5        0.0000 
     50 CA         23.6365   43.1082   -2.3385 C.3       2 GLC5        0.0000 
     51 CA         21.6970   43.8250   -2.3880 C.3       6 GLL5        0.0000 
     52 CA         25.4640   42.7020   -1.6810 C.3       4 GLP5        0.0000 
     53 CA         21.9189   42.2184   -1.6500 C.3       2 GLC5        0.0000 
     54 CA         22.2740   41.1520   -0.1950 C.3       4 GLP5        0.0000 
     55 CA         21.2034   42.3640   -0.6706 C.3       2 GLC5        0.0000 
@<TRIPOS>BOND
@<TRIPOS>SUBSTRUCTURE
     1 ALC1        6 GROUP        1 X    ALC  0     ROOT ALC X 1
     2 GLC5        1 GROUP        1 X    GLC  0     **** GLC X 6
     3 ALP1        8 GROUP        1 Y    ALP  0     ROOT ALP Y 8
     4 GLP5        3 GROUP        1 Y    GLP  0     **** GLP Y 13
     5 ALL1        7 GROUP        1 Z    ALL  0     ROOT ALL Z 15
     6 GLL5        2 GROUP        1 Z    GLL  0     **** GLL Z 20
@<TRIPOS>SET

