#    Name: 4j0z_1H5_1_ligand
#    Modification time : Tue Mar 25 05:00:06 2014

@<TRIPOS>MOLECULE
4j0z_1H5_1_ligand
   43    45     1     0     0
SMALL
NO_CHARGES


@<TRIPOS>ATOM
      1 C2         20.8010   40.2680   -7.9590 C.ar      1 1H5504      0.0000 
      2 C3         20.4760   39.7600   -9.1790 C.ar      1 1H5504      0.0000 
      3 C4         19.1580   39.4950   -9.4890 C.ar      1 1H5504      0.0000 
      4 C5         18.1470   39.7770   -8.5990 C.ar      1 1H5504      0.0000 
      5 C6         18.4540   40.2680   -7.3680 C.ar      1 1H5504      0.0000 
      6 C8         16.7350   39.5410   -8.9930 C.3       1 1H5504      0.0000 
      7 C9         16.7650   38.1150   -9.4930 C.3       1 1H5504      0.0000 
      8 C10        16.2970   40.6260  -10.0440 C.3       1 1H5504      0.0000 
      9 C11        16.0810   42.0100   -9.4250 C.3       1 1H5504      0.0000 
     10 C13        15.1000   40.6910   -7.6750 C.2       1 1H5504      0.0000 
     11 N14        15.7640   39.5970   -7.9240 N.pl3     1 1H5504      0.0000 
     12 C1         19.7610   40.4930   -7.0490 C.ar      1 1H5504      0.0000 
     13 F7         18.8410   39.0550  -10.7330 F         1 1H5504      0.0000 
     14 O12        15.2030   41.8740   -8.2930 O.3       1 1H5504      0.0000 
     15 F15        15.0370   40.3190  -10.5190 F         1 1H5504      0.0000 
     16 N16        14.1920   40.6860   -6.6620 N.pl3     1 1H5504      0.0000 
     17 N17        19.9500   41.0650   -5.8200 N.am      1 1H5504      0.0000 
     18 C18        21.0640   41.6530   -5.3590 C.2       1 1H5504      0.0000 
     19 C19        20.9400   42.2850   -4.0400 C.ar      1 1H5504      0.0000 
     20 O20        22.0800   41.6850   -6.0030 O.2       1 1H5504      0.0000 
     21 N21        19.8070   42.0360   -3.3620 N.ar      1 1H5504      0.0000 
     22 C22        19.5530   42.5760   -2.1760 C.ar      1 1H5504      0.0000 
     23 C23        20.4860   43.5020   -1.6590 C.ar      1 1H5504      0.0000 
     24 C24        21.6970   43.8250   -2.3880 C.ar      1 1H5504      0.0000 
     25 C25        21.9210   43.2040   -3.6040 C.ar      1 1H5504      0.0000 
     26 C26        20.2460   44.1130   -0.3750 C.1       1 1H5504      0.0000 
     27 N27        20.0850   44.6090    0.6470 N.1       1 1H5504      0.0000 
     28 F28        15.4420   37.7840   -9.7610 F         1 1H5504      0.0000 
     29 H          21.7597   40.4828   -7.6997 H         1 1H5504      0.0000 
     30 H          21.2128   39.5692   -9.8814 H         1 1H5504      0.0000 
     31 H          17.7086   40.4683   -6.6829 H         1 1H5504      0.0000 
     32 H          17.2061   37.4975   -8.7156 H         1 1H5504      0.0000 
     33 H          17.3959   38.0840  -10.3769 H         1 1H5504      0.0000 
     34 H          17.0199   40.6960  -10.8044 H         1 1H5504      0.0000 
     35 H          15.6541   42.6575  -10.1904 H         1 1H5504      0.0000 
     36 H          17.0545   42.4038   -9.1347 H         1 1H5504      0.0000 
     37 H          15.6374   38.7167   -7.3793 H         1 1H5504      0.0000 
     38 H          14.0637   39.8136   -6.1904 H         1 1H5504      0.0000 
     39 H          13.7329   41.5552   -6.4783 H         1 1H5504      0.0000 
     40 H          19.0918   41.0340   -5.1469 H         1 1H5504      0.0000 
     41 H          18.7224   42.3556   -1.6245 H         1 1H5504      0.0000 
     42 H          22.3429   44.4916   -1.9917 H         1 1H5504      0.0000 
     43 H          22.7358   43.3876   -4.1598 H         1 1H5504      0.0000 
@<TRIPOS>BOND
     1    2    1 ar   
     2   12    1 ar   
     3   29    1 1    
     4    3    2 ar   
     5   30    2 1    
     6    4    3 ar   
     7   13    3 1    
     8    5    4 ar   
     9    6    4 1    
    10   12    5 ar   
    11   31    5 1    
    12    7    6 1    
    13    8    6 1    
    14   11    6 1    
    15   28    7 1    
    16   32    7 1    
    17   33    7 1    
    18    9    8 1    
    19   15    8 1    
    20   34    8 1    
    21   14    9 1    
    22   35    9 1    
    23   36    9 1    
    24   11   10 1    
    25   14   10 1    
    26   16   10 2    
    27   37   11 1    
    28   17   12 1    
    29   38   16 1    
    30   39   16 1    
    31   18   17 am   
    32   40   17 1    
    33   19   18 1    
    34   20   18 2    
    35   21   19 ar   
    36   25   19 ar   
    37   22   21 ar   
    38   23   22 ar   
    39   41   22 1    
    40   24   23 ar   
    41   26   23 1    
    42   25   24 ar   
    43   42   24 1    
    44   43   25 1    
    45   27   26 3    
@<TRIPOS>SUBSTRUCTURE
     1 1H5504      1 GROUP   
@<TRIPOS>SET

