#    Name: 2zxn_JC1_1_INTS_M
#    Modification time : Tue Mar 25 11:17:51 2014

@<TRIPOS>MOLECULE
2zxn_JC1_1_INTS_M
  116     0     9     0     0
SMALL
NO_CHARGES


@<TRIPOS>ATOM
      1 CA          6.3480   -4.8035   25.2400 C.3       3 GLC5        0.0000 
      2 CA          7.5610   -5.7270   26.2860 C.3       9 GLL5        0.0000 
      3 CA          5.1350   -3.8800   24.1940 C.3       6 GLP5        0.0000 
      4 CA          8.6505   -5.0715   24.8660 C.3       3 GLC5        0.0000 
      5 CA          9.7400   -4.4160   23.4460 C.3       6 GLP5        0.0000 
      6 CA          8.5695   -2.6735   26.9400 C.3       3 GLC5        0.0000 
      7 CA          9.5040   -4.5350   27.3330 C.3       9 GLL5        0.0000 
      8 CA          7.6350   -0.8120   26.5470 C.3       6 GLP5        0.0000 
      9 CA          9.6220   -4.4755   25.3895 C.3       3 GLC5        0.0000 
     10 CA         13.7110   -5.9055   30.1045 C.3       3 GLC5        0.0000 
     11 CA         12.6560   -4.3320   29.3250 C.3       9 GLL5        0.0000 
     12 CA         14.7660   -7.4790   30.8840 C.3       6 GLP5        0.0000 
     13 CA         11.5435   -4.9165   31.7405 C.3       3 GLC5        0.0000 
     14 CA         11.8080   -3.7100   30.4510 C.3       9 GLL5        0.0000 
     15 CA         11.2790   -6.1230   33.0300 C.3       6 GLP5        0.0000 
     16 O          11.0500   -1.8460   31.2680 O.2       1 ALC1        0.0000 
     17 O          11.0630   -2.5660   30.0300 O.2       7 ALL1        0.0000 
     18 O          11.0370   -1.1260   32.5060 O.2       4 ALP1        0.0000 
     19 CA         15.7605   -6.7165   26.9585 C.3       3 GLC5        0.0000 
     20 CA         13.8390   -6.0170   27.1520 C.3       9 GLL5        0.0000 
     21 CA         17.6820   -7.4160   26.7650 C.3       6 GLP5        0.0000 
     22 CA         14.3025   -6.7480   29.0180 C.3       3 GLC5        0.0000 
     23 CA         13.2635   -7.8920   27.4845 C.3       3 GLC5        0.0000 
     24 CA         12.6880   -9.7670   27.8170 C.3       6 GLP5        0.0000 
     25 CA         16.8995   -4.8745   25.0715 C.3       3 GLC5        0.0000 
     26 CA         15.2900   -3.8220   25.5340 C.3       9 GLL5        0.0000 
     27 CA         18.5090   -5.9270   24.6090 C.3       6 GLP5        0.0000 
     28 CA         17.3615   -3.4725   23.7285 C.3       3 GLC5        0.0000 
     29 CA         15.7190   -2.5250   24.8310 C.3       9 GLL5        0.0000 
     30 CA         19.0040   -4.4200   22.6260 C.3       6 GLP5        0.0000 
     31 CA         16.8145   -1.3960   23.3905 C.3       3 GLC5        0.0000 
     32 CA         17.9100   -0.2670   21.9500 C.3       6 GLP5        0.0000 
     33 CA         11.1505   -3.4185   24.0870 C.3       3 GLC5        0.0000 
     34 CA         12.5610   -2.4210   24.7280 C.3       9 GLL5        0.0000 
     35 CA         13.6285   -3.4760   23.1125 C.3       3 GLC5        0.0000 
     36 CA         14.6960   -4.5310   21.4970 C.3       6 GLP5        0.0000 
     37 CA         10.8545   -0.5325   27.7375 C.3       3 GLC5        0.0000 
     38 CA         12.8420   -1.2140   26.9940 C.3       9 GLL5        0.0000 
     39 CA          8.8670    0.1490   28.4810 C.3       6 GLP5        0.0000 
     40 CA         13.1250   -0.8735   28.9795 C.3       3 GLC5        0.0000 
     41 CA         13.4080   -0.5330   30.9650 C.3       6 GLP5        0.0000 
     42 CA         10.6930    0.8420   26.4050 C.3       3 GLC5        0.0000 
     43 CA         12.6170    0.2560   26.5030 C.3       9 GLL5        0.0000 
     44 CA          8.7690    1.4280   26.3070 C.3       6 GLP5        0.0000 
     45 CA         15.1755    1.7255   26.7300 C.3       3 GLC5        0.0000 
     46 CA         13.8760    0.8840   25.8600 C.3       9 GLL5        0.0000 
     47 CA         16.4750    2.5670   27.6000 C.3       6 GLP5        0.0000 
     48 CA         12.9835    2.8445   25.4040 C.3       3 GLC5        0.0000 
     49 CA         12.0910    4.8050   24.9480 C.3       6 GLP5        0.0000 
     50 CA         16.2415    0.6050   25.4920 C.3       3 GLC5        0.0000 
     51 CA         14.5940   -0.1140   24.9080 C.3       9 GLL5        0.0000 
     52 CA         17.8890    1.3240   26.0760 C.3       6 GLP5        0.0000 
     53 CA         16.0755    2.8890   17.6160 C.3       3 GLC5        0.0000 
     54 CA         14.9030    2.6590   19.2930 C.3       9 GLL5        0.0000 
     55 CA         17.2480    3.1190   15.9390 C.3       6 GLP5        0.0000 
     56 CA         14.7640    4.2925   18.1390 C.3       3 GLC5        0.0000 
     57 CA         14.6250    5.9260   16.9850 C.3       6 GLP5        0.0000 
     58 N          16.7315    3.5715   20.4740 N.am      2 SEC2        0.0000 
     59 N          16.3150    2.5440   19.5130 N.am      8 SEL2        0.0000 
     60 N          17.1480    4.5990   21.4350 N.am      5 SEP2        0.0000 
     61 O          16.8090    3.1045   18.3590 O.2       1 ALC1        0.0000 
     62 O          16.3150    2.5440   19.5130 O.2       7 ALL1        0.0000 
     63 O          17.3030    3.6650   17.2050 O.2       4 ALP1        0.0000 
     64 CA         15.9645   -1.0100   18.2060 C.3       3 GLC5        0.0000 
     65 CA         14.6710    0.1060   18.9930 C.3       9 GLL5        0.0000 
     66 CA         17.2580   -2.1260   17.4190 C.3       6 GLP5        0.0000 
     67 CA         16.6260    0.2035   19.8455 C.3       3 GLC5        0.0000 
     68 CA         18.5810    0.3010   20.6980 C.3       6 GLP5        0.0000 
     69 N          14.3200   -1.0520   16.7640 N.am      2 SEC2        0.0000 
     70 N          14.1170   -0.9010   18.1500 N.am      8 SEL2        0.0000 
     71 N          14.5230   -1.2030   15.3780 N.am      5 SEP2        0.0000 
     72 O          12.7760   -1.4450   18.1655 O.2       1 ALC1        0.0000 
     73 O          14.1170   -0.9010   18.1500 O.2       7 ALL1        0.0000 
     74 O          11.4350   -1.9890   18.1810 O.2       4 ALP1        0.0000 
     75 CA         12.4825   -2.1735   19.2815 C.3       3 GLC5        0.0000 
     76 CA         13.2370   -1.0410   20.8010 C.3       9 GLL5        0.0000 
     77 CA         11.7280   -3.3060   17.7620 C.3       6 GLP5        0.0000 
     78 CA         13.9665   -2.7860   21.1490 C.3       3 GLC5        0.0000 
     79 CA          6.1835   -5.1668   28.0150 C.3       3 GLC5        0.0000 
     80 CA          4.4570   -4.7830   29.0940 C.3       6 GLP5        0.0000 
     81 CA          9.4057   -5.9132   29.2007 C.3       3 GLC5        0.0000 
     82 CA          8.2590   -5.3740   27.5860 C.3       9 GLL5        0.0000 
     83 CA          9.9300   -6.8720   30.9420 C.3       6 GLP5        0.0000 
     84 CA         12.8200   -2.2770   30.4265 C.3       3 GLC5        0.0000 
     85 CA         10.9740   -5.7125   29.7799 C.3       3 GLC5        0.0000 
     86 CA         13.5915   -6.7375   25.5415 C.3       3 GLC5        0.0000 
     87 CA         13.1090   -4.7010   26.8140 C.3       9 GLL5        0.0000 
     88 CA         13.7090   -8.1160   24.1000 C.3       6 GLP5        0.0000 
     89 CA         15.1002   -3.8522   23.3398 C.3       3 GLC5        0.0000 
     90 CA         16.7362   -0.8267   26.1318 C.3       3 GLC5        0.0000 
     91 CA         18.1500    0.3480   27.0360 C.3       6 GLP5        0.0000 
     92 CA         13.2052    1.1320   28.0023 C.3       3 GLC5        0.0000 
     93 CA         13.1640    1.6940   29.8230 C.3       6 GLP5        0.0000 
     94 CA         16.3242   -0.1310   23.0903 C.3       3 GLC5        0.0000 
     95 CA         16.2895    1.6138   23.6648 C.3       3 GLC5        0.0000 
     96 CA         14.8830    0.1240   23.5530 C.3       9 GLL5        0.0000 
     97 CA         17.7990    2.5720   24.2270 C.3       6 GLP5        0.0000 
     98 CA         12.6647    3.4075   19.3188 C.3       3 GLC5        0.0000 
     99 CA         14.1760    2.5850   20.6600 C.3       9 GLL5        0.0000 
    100 CA         10.7900    4.1930   18.6610 C.3       6 GLP5        0.0000 
    101 CA         12.4363    1.5000   21.9259 C.3       3 GLC5        0.0000 
    102 CA         10.5400    1.1180   22.5370 C.3       6 GLP5        0.0000 
    103 CA         16.0218    4.1100   20.2368 C.3       3 GLC5        0.0000 
    104 CA         17.5040    5.5980   20.4970 C.3       6 GLP5        0.0000 
    105 CA         14.1022    4.2570   20.3998 C.3       3 GLC5        0.0000 
    106 CA         13.6650    5.8920   20.8230 C.3       6 GLP5        0.0000 
    107 CA         15.8895    1.2738   17.2163 C.3       3 GLC5        0.0000 
    108 CA         14.4430    1.5110   18.3460 C.3       9 GLL5        0.0000 
    109 CA         17.2220    1.7390   15.7630 C.3       6 GLP5        0.0000 
    110 CA         11.9632    0.0733   20.3633 C.3       3 GLC5        0.0000 
    111 CA         14.0320    0.0600   20.4320 C.3       9 GLL5        0.0000 
    112 CA         10.2920    0.6370   20.1100 C.3       6 GLP5        0.0000 
    113 CA         16.0853    0.1763   21.5754 C.3       3 GLC5        0.0000 
    114 CA         16.1728   -3.0725   27.2732 C.3       3 GLC5        0.0000 
    115 CA         14.9260   -1.4780   25.6240 C.3       9 GLL5        0.0000 
    116 CA         17.3300   -3.3150   28.9150 C.3       6 GLP5        0.0000 
@<TRIPOS>BOND
@<TRIPOS>SUBSTRUCTURE
     1 ALC1       16 GROUP        1 X    ALC  0     ROOT ALC X 1
     2 SEC2       58 GROUP        1 X    SEC  0     **** SEC X 2
     3 GLC5        1 GROUP        1 X    GLC  0     **** GLC X 6
     4 ALP1       18 GROUP        1 Y    ALP  0     ROOT ALP Y 8
     5 SEP2       60 GROUP        1 Y    SEP  0     **** SEP Y 9
     6 GLP5        3 GROUP        1 Y    GLP  0     **** GLP Y 13
     7 ALL1       17 GROUP        1 Z    ALL  0     ROOT ALL Z 15
     8 SEL2       59 GROUP        1 Z    SEL  0     **** SEL Z 16
     9 GLL5        2 GROUP        1 Z    GLL  0     **** GLL Z 20
@<TRIPOS>SET

