#    Name: 2zxn_JC1_1_ligand
#    Modification time : Tue Mar 25 11:17:51 2014

@<TRIPOS>MOLECULE
2zxn_JC1_1_ligand
   75    77     1     0     0
SMALL
NO_CHARGES


@<TRIPOS>ATOM
      1 C31         7.5610   -5.7270   26.2860 C.3       1 JC11        0.0000 
      2 C30         8.2590   -5.3740   27.5860 C.3       1 JC11        0.0000 
      3 C29         9.5040   -4.5350   27.3330 C.3       1 JC11        0.0000 
      4 C28        10.7460   -5.2200   27.9180 C.3       1 JC11        0.0000 
      5 C22        12.0140   -4.3280   27.9030 C.3       1 JC11        0.0000 
      6 C23        12.6560   -4.3320   29.3250 C.3       1 JC11        0.0000 
      7 C24        11.8080   -3.7100   30.4510 C.3       1 JC11        0.0000 
      8 O03        11.0630   -2.5660   30.0300 O.3       1 JC11        0.0000 
      9 C20        13.1090   -4.7010   26.8140 C.3       1 JC11        0.0000 
     10 C21        13.8390   -6.0170   27.1520 C.3       1 JC11        0.0000 
     11 C17        14.1270   -3.4950   26.5370 C.3       1 JC11        0.0000 
     12 C16        15.2900   -3.8220   25.5340 C.3       1 JC11        0.0000 
     13 C15        15.7190   -2.5250   24.8310 C.3       1 JC11        0.0000 
     14 C14        14.9260   -1.4780   25.6240 C.3       1 JC11        0.0000 
     15 C13        13.5500   -2.1560   25.9440 C.3       1 JC11        0.0000 
     16 C18        12.5610   -2.4210   24.7280 C.3       1 JC11        0.0000 
     17 C12        12.8420   -1.2140   26.9940 C.3       1 JC11        0.0000 
     18 C11        12.6170    0.2560   26.5030 C.3       1 JC11        0.0000 
     19 C09        13.8760    0.8840   25.8600 C.3       1 JC11        0.0000 
     20 C08        14.5940   -0.1140   24.9080 C.2       1 JC11        0.0000 
     21 C07        14.8830    0.1240   23.5530 C.2       1 JC11        0.0000 
     22 C06        14.6770    1.1870   22.6520 C.2       1 JC11        0.0000 
     23 C05        14.3010    1.1710   21.2870 C.2       1 JC11        0.0000 
     24 C04        14.1760    2.5850   20.6600 C.3       1 JC11        0.0000 
     25 C03        14.9030    2.6590   19.2930 C.3       1 JC11        0.0000 
     26 O02        16.3150    2.5440   19.5130 O.3       1 JC11        0.0000 
     27 C02        14.4430    1.5110   18.3460 C.3       1 JC11        0.0000 
     28 C01        14.6710    0.1060   18.9930 C.3       1 JC11        0.0000 
     29 O01        14.1170   -0.9010   18.1500 O.3       1 JC11        0.0000 
     30 C10        14.0320    0.0600   20.4320 C.2       1 JC11        0.0000 
     31 C19        13.2370   -1.0410   20.8010 C.2       1 JC11        0.0000 
     32 H           8.5441   -6.2916   28.1053 H         1 JC11        0.0000 
     33 H           7.5730   -4.8143   28.2255 H         1 JC11        0.0000 
     34 H           9.3850   -3.5588   27.7980 H         1 JC11        0.0000 
     35 H           9.6424   -4.4039   26.2620 H         1 JC11        0.0000 
     36 H          10.9558   -6.1343   27.3475 H         1 JC11        0.0000 
     37 H          10.5397   -5.5158   28.9550 H         1 JC11        0.0000 
     38 H          11.7020   -3.2927   27.7099 H         1 JC11        0.0000 
     39 H          13.6233   -3.7972   29.2677 H         1 JC11        0.0000 
     40 H          12.8941   -5.3792   29.5925 H         1 JC11        0.0000 
     41 H          12.5008   -3.4616   31.2815 H         1 JC11        0.0000 
     42 H          11.1426   -4.5095   30.8375 H         1 JC11        0.0000 
     43 H          12.5591   -4.8586   25.8631 H         1 JC11        0.0000 
     44 H          14.6242   -3.2211   27.4808 H         1 JC11        0.0000 
     45 H          14.9280   -4.5286   24.8093 H         1 JC11        0.0000 
     46 H          16.1162   -4.2280   26.0890 H         1 JC11        0.0000 
     47 H          15.3953   -2.5376   23.8332 H         1 JC11        0.0000 
     48 H          16.7479   -2.3711   24.9659 H         1 JC11        0.0000 
     49 H          15.3924   -1.2848   26.5631 H         1 JC11        0.0000 
     50 H          13.4527   -1.1924   27.9034 H         1 JC11        0.0000 
     51 H          11.8712   -1.6527   27.2500 H         1 JC11        0.0000 
     52 H          12.3104    0.8628   27.3588 H         1 JC11        0.0000 
     53 H          11.8034    0.2556   25.7731 H         1 JC11        0.0000 
     54 H          14.5678    1.1798   26.6451 H         1 JC11        0.0000 
     55 H          13.5850    1.7641   25.2914 H         1 JC11        0.0000 
     56 H          15.4123   -0.7559   23.0642 H         1 JC11        0.0000 
     57 H          14.8319    2.1875   23.0724 H         1 JC11        0.0000 
     58 H          14.6162    3.3115   21.3357 H         1 JC11        0.0000 
     59 H          13.1253    2.8162   20.5160 H         1 JC11        0.0000 
     60 H          14.6539    3.5935   18.8292 H         1 JC11        0.0000 
     61 H          15.0083    1.5665   17.4218 H         1 JC11        0.0000 
     62 H          13.3862    1.6304   18.1323 H         1 JC11        0.0000 
     63 H          15.7403   -0.0175   19.1146 H         1 JC11        0.0000 
     64 H           8.1560   -6.2491   25.6749 H         1 JC11        0.0000 
     65 H           6.7429   -6.2805   26.4421 H         1 JC11        0.0000 
     66 H           7.2715   -4.9106   25.7863 H         1 JC11        0.0000 
     67 H          14.5291   -6.2458   26.4654 H         1 JC11        0.0000 
     68 H          14.3084   -5.9655   28.0335 H         1 JC11        0.0000 
     69 H          13.2069   -6.7903   27.2013 H         1 JC11        0.0000 
     70 H          13.0154   -2.9008   23.9774 H         1 JC11        0.0000 
     71 H          11.7777   -2.9794   25.0012 H         1 JC11        0.0000 
     72 H          12.1967   -1.5686   24.3530 H         1 JC11        0.0000 
     73 H          11.0104   -1.9797   30.8384 H         1 JC11        0.0000 
     74 H          16.7312    2.7242   18.6217 H         1 JC11        0.0000 
     75 H          13.1695   -1.0004   18.4540 H         1 JC11        0.0000 
@<TRIPOS>BOND
     1    2    1 1    
     2   64    1 1    
     3   65    1 1    
     4   66    1 1    
     5    3    2 1    
     6   32    2 1    
     7   33    2 1    
     8    4    3 1    
     9   34    3 1    
    10   35    3 1    
    11    5    4 1    
    12   36    4 1    
    13   37    4 1    
    14    6    5 1    
    15    9    5 1    
    16   38    5 1    
    17    7    6 1    
    18   39    6 1    
    19   40    6 1    
    20    8    7 1    
    21   41    7 1    
    22   42    7 1    
    23   73    8 1    
    24   10    9 1    
    25   11    9 1    
    26   43    9 1    
    27   67   10 1    
    28   68   10 1    
    29   69   10 1    
    30   12   11 1    
    31   15   11 1    
    32   44   11 1    
    33   13   12 1    
    34   45   12 1    
    35   46   12 1    
    36   14   13 1    
    37   47   13 1    
    38   48   13 1    
    39   15   14 1    
    40   20   14 1    
    41   49   14 1    
    42   16   15 1    
    43   17   15 1    
    44   70   16 1    
    45   71   16 1    
    46   72   16 1    
    47   18   17 1    
    48   50   17 1    
    49   51   17 1    
    50   19   18 1    
    51   52   18 1    
    52   53   18 1    
    53   20   19 1    
    54   54   19 1    
    55   55   19 1    
    56   21   20 2    
    57   22   21 1    
    58   56   21 1    
    59   23   22 2    
    60   57   22 1    
    61   24   23 1    
    62   30   23 1    
    63   25   24 1    
    64   58   24 1    
    65   59   24 1    
    66   26   25 1    
    67   27   25 1    
    68   60   25 1    
    69   74   26 1    
    70   28   27 1    
    71   61   27 1    
    72   62   27 1    
    73   29   28 1    
    74   30   28 1    
    75   63   28 1    
    76   75   29 1    
    77   31   30 2    
@<TRIPOS>SUBSTRUCTURE
     1 JC11        1 GROUP   
@<TRIPOS>SET

