#    Name: 3vyd_VYD_1_INTS_M
#    Modification time : Tue Mar 25 01:50:01 2014

@<TRIPOS>MOLECULE
3vyd_VYD_1_INTS_M
   60     0    12     0     0
SMALL
NO_CHARGES


@<TRIPOS>ATOM
      1 CA        174.4110  195.7870   91.3840 C.3       4 GLC5        0.0000 
      2 CA        173.4130  197.1340   92.6030 C.3      12 GLL5        0.0000 
      3 CA        175.4090  194.4400   90.1650 C.3       8 GLP5        0.0000 
      4 CA        180.6010  204.4365  100.2525 C.3       4 GLC5        0.0000 
      5 CA        178.9580  203.3530  100.3970 C.3      12 GLL5        0.0000 
      6 CA        182.2440  205.5200  100.1080 C.3       8 GLP5        0.0000 
      7 CA        178.6160  203.8305   96.4135 C.3       4 GLC5        0.0000 
      8 CA        178.0350  203.1630   98.2450 C.3      12 GLL5        0.0000 
      9 CA        179.1970  204.4980   94.5820 C.3       8 GLP5        0.0000 
     10 CA        176.8570  204.3700   96.8460 C.3       4 GLC5        0.0000 
     11 CA        175.6790  205.5770   95.4470 C.3       8 GLP5        0.0000 
     12 CA        177.2085  198.0605   93.3390 C.3       4 GLC5        0.0000 
     13 CA        176.8210  199.3340   94.8850 C.3      12 GLL5        0.0000 
     14 CA        177.5960  196.7870   91.7930 C.3       8 GLP5        0.0000 
     15 CA        181.3480  201.5290  100.4440 C.3       4 GLC5        0.0000 
     16 CA        179.1560  201.8600  100.4720 C.3      12 GLL5        0.0000 
     17 CA        183.5400  201.1980  100.4160 C.3       8 GLP5        0.0000 
     18 CA        180.3370  198.6065   95.0900 C.3       4 GLC5        0.0000 
     19 CA        178.9210  200.0020   95.6500 C.3      12 GLL5        0.0000 
     20 CA        181.7530  197.2110   94.5300 C.3       8 GLP5        0.0000 
     21 CA        178.6200  197.1000   98.0425 C.3       4 GLC5        0.0000 
     22 CA        178.1190  197.7400   96.3090 C.3      12 GLL5        0.0000 
     23 CA        179.1210  196.4600   99.7760 C.3       8 GLP5        0.0000 
     24 CA        177.6515  195.6605   95.9340 C.3       4 GLC5        0.0000 
     25 CA        177.1840  193.5810   95.5590 C.3       8 GLP5        0.0000 
     26 CA        179.9360  197.4755   95.4195 C.3       4 GLC5        0.0000 
     27 CA        183.1655  201.1750  102.2165 C.3       4 GLC5        0.0000 
     28 CA        182.7910  201.1520  104.0170 C.3      12 GLL5        0.0000 
     29 OD1       180.1375  204.0235   98.1445 O.co2     3 ASC3        0.0000 
     30 OD1       179.1210  203.7670   99.0110 O.co2    11 ASL3        0.0000 
     31 OD1       181.1540  204.2800   97.2780 O.co2     7 ASP3        0.0000 
     32 OD1       180.3795  203.0600   98.6115 O.co2     3 ASC3        0.0000 
     33 OD1       181.6380  202.3530   98.2120 O.co2     7 ASP3        0.0000 
     34 OD1       179.2970  205.1050   98.2960 O.co2     3 ASC3        0.0000 
     35 OD1       179.4730  206.4430   97.5810 O.co2     7 ASP3        0.0000 
     36 OD1       178.5985  205.0425   99.1690 O.co2     3 ASC3        0.0000 
     37 OD1       178.0760  206.3180   99.3270 O.co2     7 ASP3        0.0000 
     38 O         181.0995  202.8260  102.1845 O.2       1 ALC1        0.0000 
     39 O         180.1060  201.8080  102.6110 O.2       9 ALL1        0.0000 
     40 O         182.0930  203.8440  101.7580 O.2       5 ALP1        0.0000 
     41 N         176.9145  200.1715  102.6840 N.am      2 SEC2        0.0000 
     42 N         177.9730  200.9680  102.3030 N.am     10 SEL2        0.0000 
     43 N         175.8560  199.3750  103.0650 N.am      6 SEP2        0.0000 
     44 CA        173.7450  194.9805   95.4310 C.3       4 GLC5        0.0000 
     45 CA        174.9130  195.8230   94.3650 C.3      12 GLL5        0.0000 
     46 CA        172.5770  194.1380   96.4970 C.3       8 GLP5        0.0000 
     47 CA        176.0485  194.7020   94.9620 C.3       4 GLC5        0.0000 
     48 CA        175.1610  195.1315   92.2650 C.3       4 GLC5        0.0000 
     49 CA        176.2545  196.3050   93.0790 C.3       4 GLC5        0.0000 
     50 CA        173.7295  199.5820   90.4648 C.3       4 GLC5        0.0000 
     51 CA        172.9670  198.3170   92.0460 C.3      12 GLL5        0.0000 
     52 CA        174.2630  200.2370   88.6500 C.3       8 GLP5        0.0000 
     53 CA        179.3963  199.8850  100.5112 C.3       4 GLC5        0.0000 
     54 CA        178.1270  201.0980   99.6590 C.3      12 GLL5        0.0000 
     55 CA        180.1510  198.2910  100.9570 C.3       8 GLP5        0.0000 
     56 CA        183.7858  198.5497  105.3462 C.3       4 GLC5        0.0000 
     57 CA        182.4440  198.6520  104.1840 C.3      12 GLL5        0.0000 
     58 CA        185.3810  197.7580  106.3040 C.3       8 GLP5        0.0000 
     59 CA        180.7406  199.0276  102.6294 C.3       4 GLC5        0.0000 
     60 CA        181.9370  200.0310  104.5930 C.3      12 GLL5        0.0000 
@<TRIPOS>BOND
@<TRIPOS>SUBSTRUCTURE
     1 ALC1       38 GROUP        1 X    ALC  0     ROOT ALC X 1
     2 SEC2       41 GROUP        1 X    SEC  0     **** SEC X 2
     3 ASC3       29 GROUP        1 X    ASC  0     **** ASC X 3
     4 GLC5        1 GROUP        1 X    GLC  0     **** GLC X 6
     5 ALP1       40 GROUP        1 Y    ALP  0     ROOT ALP Y 8
     6 SEP2       43 GROUP        1 Y    SEP  0     **** SEP Y 9
     7 ASP3       31 GROUP        1 Y    ASP  0     **** ASP Y 10
     8 GLP5        3 GROUP        1 Y    GLP  0     **** GLP Y 13
     9 ALL1       39 GROUP        1 Z    ALL  0     ROOT ALL Z 15
    10 SEL2       42 GROUP        1 Z    SEL  0     **** SEL Z 16
    11 ASL3       30 GROUP        1 Z    ASL  0     **** ASL Z 17
    12 GLL5        2 GROUP        1 Z    GLL  0     **** GLL Z 20
@<TRIPOS>SET

