#    Name: 3vyd_VYD_1_ligand
#    Modification time : Tue Mar 25 01:50:01 2014

@<TRIPOS>MOLECULE
3vyd_VYD_1_ligand
   68    70     1     0     0
SMALL
NO_CHARGES


@<TRIPOS>ATOM
      1 C1        173.4250  199.5370   92.5130 C.ar      1 VYD402      0.0000 
      2 C2        172.9670  198.3170   92.0460 C.ar      1 VYD402      0.0000 
      3 C3        174.3350  199.6000   93.5500 C.ar      1 VYD402      0.0000 
      4 C4        173.4130  197.1340   92.6030 C.ar      1 VYD402      0.0000 
      5 C5        174.7820  198.4350   94.1190 C.ar      1 VYD402      0.0000 
      6 C6        174.3210  197.2340   93.6410 C.ar      1 VYD402      0.0000 
      7 C7        175.2650  198.3740   96.4510 C.2       1 VYD402      0.0000 
      8 C8        178.9890  201.4900  101.8850 C.2       1 VYD402      0.0000 
      9 C9        175.7000  199.4700   97.3210 C.3       1 VYD402      0.0000 
     10 C10       178.1270  201.0980   99.6590 C.3       1 VYD402      0.0000 
     11 C11       178.9580  203.3530  100.3970 C.3       1 VYD402      0.0000 
     12 C12       178.0350  203.1630   98.2450 C.3       1 VYD402      0.0000 
     13 C13       176.8210  199.3340   94.8850 C.3       1 VYD402      0.0000 
     14 C14       179.1560  201.8600  100.4720 C.3       1 VYD402      0.0000 
     15 C15       178.1960  201.6490   98.2470 C.3       1 VYD402      0.0000 
     16 C16       177.7330  199.1800   96.0530 C.3       1 VYD402      0.0000 
     17 C17       178.9210  200.0020   95.6500 C.3       1 VYD402      0.0000 
     18 C18       178.1190  197.7400   96.3090 C.3       1 VYD402      0.0000 
     19 C19       182.4440  198.6520  104.1840 C.3       1 VYD402      0.0000 
     20 C20       182.7910  201.1520  104.0170 C.3       1 VYD402      0.0000 
     21 C21       177.1290  201.1010   97.3410 C.3       1 VYD402      0.0000 
     22 C22       180.4700  200.1870  104.2150 C.3       1 VYD402      0.0000 
     23 C23       180.0950  201.6250  104.0350 C.3       1 VYD402      0.0000 
     24 C24       181.9370  200.0310  104.5930 C.3       1 VYD402      0.0000 
     25 N25       179.1210  203.7670   99.0110 N.4       1 VYD402      0.0000 
     26 N26       175.6990  198.4930   95.1510 N.am      1 VYD402      0.0000 
     27 N27       177.1310  199.6510   97.2980 N.4       1 VYD402      0.0000 
     28 N28       180.1060  201.8080  102.6110 N.am      1 VYD402      0.0000 
     29 O29       174.5790  197.5140   96.9500 O.2       1 VYD402      0.0000 
     30 O30       177.9730  200.9680  102.3030 O.2       1 VYD402      0.0000 
     31 CL        174.9130  195.8230   94.3650 Cl        1 VYD402      0.0000 
     32 H         173.0802  200.4123   92.0786 H         1 VYD402      0.0000 
     33 H         172.2814  198.2920   91.2693 H         1 VYD402      0.0000 
     34 H         174.6702  200.5105   93.8878 H         1 VYD402      0.0000 
     35 H         173.0911  196.2374   92.2680 H         1 VYD402      0.0000 
     36 H         175.3567  199.2709   98.3590 H         1 VYD402      0.0000 
     37 H         175.1912  200.4077   97.0097 H         1 VYD402      0.0000 
     38 H         177.1474  201.2651  100.0656 H         1 VYD402      0.0000 
     39 H         178.3718  200.0526   99.6523 H         1 VYD402      0.0000 
     40 H         179.6935  203.8376  101.0371 H         1 VYD402      0.0000 
     41 H         177.9603  203.5939  100.7604 H         1 VYD402      0.0000 
     42 H         177.0657  203.4075   98.6824 H         1 VYD402      0.0000 
     43 H         178.0469  203.5099   97.2105 H         1 VYD402      0.0000 
     44 H         177.3442  199.0291   93.9850 H         1 VYD402      0.0000 
     45 H         176.5284  200.3750   94.7994 H         1 VYD402      0.0000 
     46 H         180.1367  201.6091  100.1461 H         1 VYD402      0.0000 
     47 H         179.1663  201.4239   97.8179 H         1 VYD402      0.0000 
     48 H         177.2818  201.5194   96.3276 H         1 VYD402      0.0000 
     49 H         176.1477  201.4775   97.6885 H         1 VYD402      0.0000 
     50 H         180.2840  199.6351  103.2861 H         1 VYD402      0.0000 
     51 H         179.8528  199.7374  105.0018 H         1 VYD402      0.0000 
     52 H         180.8275  202.2441  104.5206 H         1 VYD402      0.0000 
     53 H         179.1165  201.7889  104.4489 H         1 VYD402      0.0000 
     54 H         181.9996  200.0907  105.6934 H         1 VYD402      0.0000 
     55 H         177.5702  199.2663   98.1575 H         1 VYD402      0.0000 
     56 H         180.9516  202.1729  102.1727 H         1 VYD402      0.0000 
     57 H         179.6334  199.9941   96.3517 H         1 VYD402      0.0000 
     58 H         179.3373  199.6641   94.8059 H         1 VYD402      0.0000 
     59 H         178.6748  200.9584   95.4930 H         1 VYD402      0.0000 
     60 H         178.5880  197.3360   95.5236 H         1 VYD402      0.0000 
     61 H         178.7333  197.6540   97.0933 H         1 VYD402      0.0000 
     62 H         177.3200  197.1694   96.4986 H         1 VYD402      0.0000 
     63 H         183.3809  198.4934  104.4954 H         1 VYD402      0.0000 
     64 H         181.8800  197.9203  104.5669 H         1 VYD402      0.0000 
     65 H         182.4415  198.5349  103.1909 H         1 VYD402      0.0000 
     66 H         183.7400  201.0926  104.3268 H         1 VYD402      0.0000 
     67 H         182.8071  201.1305  103.0174 H         1 VYD402      0.0000 
     68 H         182.4510  202.0533  104.2853 H         1 VYD402      0.0000 
@<TRIPOS>BOND
     1    2    1 ar   
     2    3    1 ar   
     3   32    1 1    
     4    4    2 ar   
     5   33    2 1    
     6    5    3 ar   
     7   34    3 1    
     8    6    4 ar   
     9   35    4 1    
    10    6    5 ar   
    11   26    5 1    
    12   31    6 1    
    13    9    7 1    
    14   26    7 am   
    15   29    7 2    
    16   14    8 1    
    17   28    8 am   
    18   30    8 2    
    19   27    9 1    
    20   36    9 1    
    21   37    9 1    
    22   14   10 1    
    23   15   10 1    
    24   38   10 1    
    25   39   10 1    
    26   14   11 1    
    27   25   11 1    
    28   40   11 1    
    29   41   11 1    
    30   15   12 1    
    31   25   12 1    
    32   42   12 1    
    33   43   12 1    
    34   16   13 1    
    35   26   13 1    
    36   44   13 1    
    37   45   13 1    
    38   46   14 1    
    39   21   15 1    
    40   47   15 1    
    41   17   16 1    
    42   18   16 1    
    43   27   16 1    
    44   57   17 1    
    45   58   17 1    
    46   59   17 1    
    47   60   18 1    
    48   61   18 1    
    49   62   18 1    
    50   24   19 1    
    51   63   19 1    
    52   64   19 1    
    53   65   19 1    
    54   24   20 1    
    55   66   20 1    
    56   67   20 1    
    57   68   20 1    
    58   27   21 1    
    59   48   21 1    
    60   49   21 1    
    61   23   22 1    
    62   24   22 1    
    63   50   22 1    
    64   51   22 1    
    65   28   23 1    
    66   52   23 1    
    67   53   23 1    
    68   54   24 1    
    69   55   27 1    
    70   56   28 1    
@<TRIPOS>SUBSTRUCTURE
     1 VYD402      1 GROUP   
@<TRIPOS>SET

