#    Name: 2ozg_COA_1_INTS_M
#    Modification time : Mon Mar 24 18:04:50 2014

@<TRIPOS>MOLECULE
2ozg_COA_1_INTS_M
   77     0     9     0     0
SMALL
NO_CHARGES


@<TRIPOS>ATOM
      1 CA         -8.3120   26.5710    8.6415 C.3       3 GLC5        0.0000 
      2 CA         -9.8330   26.9030    7.7540 C.3       9 GLL5        0.0000 
      3 CA         -6.7910   26.2390    9.5290 C.3       6 GLP5        0.0000 
      4 CA         -9.0770   28.8905    7.1410 C.3       3 GLC5        0.0000 
      5 CA         -8.3210   30.8780    6.5280 C.3       6 GLP5        0.0000 
      6 CA         -9.4340   30.7195   10.8620 C.3       3 GLC5        0.0000 
      7 CA        -11.2220   30.4230    9.9190 C.3       9 GLL5        0.0000 
      8 CA         -7.6460   31.0160   11.8050 C.3       6 GLP5        0.0000 
      9 NZ        -12.9975   36.5315    8.6320 N.4       2 LYC4        0.0000 
     10 NZ        -13.8310   35.1130    8.6900 N.4       8 LYL4        0.0000 
     11 NZ        -12.1640   37.9500    8.5740 N.4       5 LYP4        0.0000 
     12 CA        -11.4785   34.2575   13.4600 C.3       3 GLC5        0.0000 
     13 CA        -12.2170   32.8680   12.2320 C.3       9 GLL5        0.0000 
     14 CA        -10.7400   35.6470   14.6880 C.3       6 GLP5        0.0000 
     15 N         -11.7170   33.1690   15.7605 N.am      1 SEC2        0.0000 
     16 N         -12.7520   32.4690   15.0990 N.am      7 SEL2        0.0000 
     17 N         -10.6820   33.8690   16.4220 N.am      4 SEP2        0.0000 
     18 N         -15.6680   32.0530   14.9495 N.am      1 SEC2        0.0000 
     19 N         -14.8850   31.1990   14.2760 N.am      7 SEL2        0.0000 
     20 N         -16.4510   32.9070   15.6230 N.am      4 SEP2        0.0000 
     21 N         -12.9000   30.6785   17.3060 N.am      1 SEC2        0.0000 
     22 N         -13.6620   29.4800   16.6860 N.am      7 SEL2        0.0000 
     23 N         -12.1380   31.8770   17.9260 N.am      4 SEP2        0.0000 
     24 N         -15.5560   28.0830   14.6320 N.am      1 SEC2        0.0000 
     25 N         -14.2470   27.9720   14.6220 N.am      7 SEL2        0.0000 
     26 N         -16.8650   28.1940   14.6420 N.am      4 SEP2        0.0000 
     27 CA        -12.0745   26.7120   17.6695 C.3       3 GLC5        0.0000 
     28 CA        -11.7390   26.4260   15.6870 C.3       9 GLL5        0.0000 
     29 CA        -12.4100   26.9980   19.6520 C.3       6 GLP5        0.0000 
     30 CA        -10.4645   27.4910   17.9215 C.3       3 GLC5        0.0000 
     31 CA         -9.4300   26.7890   16.4240 C.3       9 GLL5        0.0000 
     32 CA        -11.4990   28.1930   19.4190 C.3       6 GLP5        0.0000 
     33 CA         -9.8560   28.7095   16.5665 C.3       3 GLC5        0.0000 
     34 CA        -10.2820   30.6300   16.7090 C.3       6 GLP5        0.0000 
     35 CA         -8.5295   26.2345   12.5980 C.3       3 GLC5        0.0000 
     36 CA         -9.8620   25.8440   14.2290 C.3       9 GLL5        0.0000 
     37 CA         -7.1970   26.6250   10.9670 C.3       6 GLP5        0.0000 
     38 N         -10.1565   25.0265   19.0790 N.am      1 SEC2        0.0000 
     39 N          -9.8770   24.3810   17.7610 N.am      7 SEL2        0.0000 
     40 N         -10.4360   25.6720   20.3970 N.am      4 SEP2        0.0000 
     41 CA         -7.9670   21.8740   18.7680 C.3       3 GLC5        0.0000 
     42 CA         -7.5650   22.7800   17.0360 C.3       9 GLL5        0.0000 
     43 CA         -8.3690   20.9680   20.5000 C.3       6 GLP5        0.0000 
     44 CA         -5.8865   22.6885   18.2725 C.3       3 GLC5        0.0000 
     45 CA         -4.2080   22.5970   19.5090 C.3       6 GLP5        0.0000 
     46 CA         -7.8335   24.0085   18.8765 C.3       3 GLC5        0.0000 
     47 CA         -8.1020   25.2370   20.7170 C.3       6 GLP5        0.0000 
     48 CA         -5.0960   22.2280   17.3270 C.3       3 GLC5        0.0000 
     49 CA         -6.3770   22.7770   16.0870 C.3       9 GLL5        0.0000 
     50 CA         -3.8150   21.6790   18.5670 C.3       6 GLP5        0.0000 
     51 CA         -5.3710   23.1585   14.4435 C.3       3 GLC5        0.0000 
     52 CA         -4.3650   23.5400   12.8000 C.3       6 GLP5        0.0000 
     53 CA         -1.7400   26.3080   13.8980 C.3       3 GLC5        0.0000 
     54 CA         -2.5820   25.6210   15.8570 C.3       9 GLL5        0.0000 
     55 CA         -0.8980   26.9950   11.9390 C.3       6 GLP5        0.0000 
     56 CA         -3.2940   24.0615   18.5965 C.3       3 GLC5        0.0000 
     57 CA         -2.3800   25.5260   17.6840 C.3       9 GLL5        0.0000 
     58 CA         -2.2330   25.1870   19.6815 C.3       3 GLC5        0.0000 
     59 CA         -2.0860   24.8480   21.6790 C.3       6 GLP5        0.0000 
     60 CA         -3.5490   26.7270   18.3125 C.3       3 GLC5        0.0000 
     61 CA         -4.7180   27.9280   18.9410 C.3       6 GLP5        0.0000 
     62 CA         -8.9243   26.5748   10.3671 C.3       3 GLC5        0.0000 
     63 CA        -10.9030   26.8110   10.2580 C.3       9 GLL5        0.0000 
     64 CA        -11.5374   31.3102    7.7782 C.3       3 GLC5        0.0000 
     65 CA        -10.8250   31.1140    5.8320 C.3       6 GLP5        0.0000 
     66 CA        -10.2668   32.5192   12.5880 C.3       3 GLC5        0.0000 
     67 CA        -11.5640   32.5410   10.8880 C.3       9 GLL5        0.0000 
     68 CA         -8.6430   32.3340   13.6160 C.3       6 GLP5        0.0000 
     69 CA        -11.4650   34.3195   10.4550 C.3       3 GLC5        0.0000 
     70 CA        -10.7830   35.9790    9.6290 C.3       6 GLP5        0.0000 
     71 CA        -12.4295   24.5510   16.1644 C.3       3 GLC5        0.0000 
     72 CA        -14.1510   23.8620   16.2950 C.3       6 GLP5        0.0000 
     73 CA         -4.0145   26.8130   17.3057 C.3       3 GLC5        0.0000 
     74 CA         -4.0400   25.7750   15.4840 C.3       9 GLL5        0.0000 
     75 CA         -3.8380   24.6190   14.2353 C.3       3 GLC5        0.0000 
     76 CA         -3.5360   27.6950   15.2338 C.3       3 GLC5        0.0000 
     77 CA         -3.7610   29.6920   14.7970 C.3       6 GLP5        0.0000 
@<TRIPOS>BOND
@<TRIPOS>SUBSTRUCTURE
     1 SEC2       15 GROUP        1 X    SEC  0     ROOT SEC X 2
     2 LYC4        9 GROUP        1 X    LYC  0     **** LYC X 4
     3 GLC5        1 GROUP        1 X    GLC  0     **** GLC X 6
     4 SEP2       17 GROUP        1 Y    SEP  0     ROOT SEP Y 9
     5 LYP4       11 GROUP        1 Y    LYP  0     **** LYP Y 11
     6 GLP5        3 GROUP        1 Y    GLP  0     **** GLP Y 13
     7 SEL2       16 GROUP        1 Z    SEL  0     ROOT SEL Z 16
     8 LYL4       10 GROUP        1 Z    LYL  0     **** LYL Z 18
     9 GLL5        2 GROUP        1 Z    GLL  0     **** GLL Z 20
@<TRIPOS>SET

