#    Name: 2ozg_COA_1_ligand
#    Modification time : Mon Mar 24 18:04:50 2014

@<TRIPOS>MOLECULE
2ozg_COA_1_ligand
   79    81     1     0     0
SMALL
NO_CHARGES


@<TRIPOS>ATOM
      1 N1A        -9.9380   25.7130    8.3760 N.ar      1 COA500      0.0000 
      2 C2A        -9.8330   26.9030    7.7540 C.ar      1 COA500      0.0000 
      3 N3A       -10.2300   28.0530    8.3350 N.ar      1 COA500      0.0000 
      4 C4A       -10.7630   28.0190    9.5810 C.ar      1 COA500      0.0000 
      5 C5A       -10.9030   26.8110   10.2580 C.ar      1 COA500      0.0000 
      6 C6A       -10.4700   25.6340    9.6150 C.ar      1 COA500      0.0000 
      7 N6A       -10.5510   24.4080   10.1760 N.pl3     1 COA500      0.0000 
      8 N7A       -11.4670   27.1140   11.4520 N.2       1 COA500      0.0000 
      9 C8A       -11.6690   28.4550   11.5060 C.2       1 COA500      0.0000 
     10 N9A       -11.2300   28.9950   10.3570 N.pl3     1 COA500      0.0000 
     11 C1B       -11.2220   30.4230    9.9190 C.3       1 COA500      0.0000 
     12 C2B       -12.5970   30.8770    9.4350 C.3       1 COA500      0.0000 
     13 O2B       -12.8270   30.5660    8.0410 O.3       1 COA500      0.0000 
     14 C3B       -12.5900   32.3630    9.7720 C.3       1 COA500      0.0000 
     15 O3B       -12.2680   33.1880    8.6440 O.3       1 COA500      0.0000 
     16 P3B       -13.4510   33.9360    7.8070 P.3       1 COA500      0.0000 
     17 O7A       -13.8310   35.1130    8.6900 O.co2     1 COA500      0.0000 
     18 O8A       -12.7860   34.2510    6.4710 O.co2     1 COA500      0.0000 
     19 O9A       -14.5920   32.9310    7.7020 O.co2     1 COA500      0.0000 
     20 C4B       -11.5640   32.5410   10.8880 C.3       1 COA500      0.0000 
     21 O4B       -10.8280   31.3140   10.9760 O.3       1 COA500      0.0000 
     22 C5B       -12.2170   32.8680   12.2320 C.3       1 COA500      0.0000 
     23 O5B       -13.0060   31.7440   12.6490 O.3       1 COA500      0.0000 
     24 P1A       -13.3740   31.4230   14.2040 P.3       1 COA500      0.0000 
     25 O1A       -12.7520   32.4690   15.0990 O.co2     1 COA500      0.0000 
     26 O2A       -14.8850   31.1990   14.2760 O.co2     1 COA500      0.0000 
     27 O3A       -12.6590   29.9660   14.4070 O.3       1 COA500      0.0000 
     28 P2A       -13.2120   28.7830   15.3990 P.3       1 COA500      0.0000 
     29 O4A       -13.6620   29.4800   16.6860 O.co2     1 COA500      0.0000 
     30 O5A       -14.2470   27.9720   14.6220 O.co2     1 COA500      0.0000 
     31 O6A       -11.8360   27.8830   15.6540 O.3       1 COA500      0.0000 
     32 CBP       -10.3270   25.8000   15.6820 C.3       1 COA500      0.0000 
     33 CCP       -11.7390   26.4260   15.6870 C.3       1 COA500      0.0000 
     34 CDP        -9.4300   26.7890   16.4240 C.3       1 COA500      0.0000 
     35 CEP        -9.8620   25.8440   14.2290 C.3       1 COA500      0.0000 
     36 CAP       -10.3830   24.3670   16.3830 C.3       1 COA500      0.0000 
     37 OAP        -9.8770   24.3810   17.7610 O.3       1 COA500      0.0000 
     38 C9P        -9.8130   23.0720   15.7400 C.2       1 COA500      0.0000 
     39 O9P       -10.4950   22.3680   14.8170 O.2       1 COA500      0.0000 
     40 N8P        -8.6600   22.4800   16.1120 N.am      1 COA500      0.0000 
     41 C7P        -7.5650   22.7800   17.0360 C.3       1 COA500      0.0000 
     42 C6P        -6.3770   22.7770   16.0870 C.3       1 COA500      0.0000 
     43 C5P        -5.9660   24.1980   15.7310 C.2       1 COA500      0.0000 
     44 O5P        -6.7970   25.0280   15.3680 O.2       1 COA500      0.0000 
     45 N4P        -4.6590   24.4920   15.8030 N.am      1 COA500      0.0000 
     46 C3P        -4.0400   25.7750   15.4840 C.3       1 COA500      0.0000 
     47 C2P        -2.5820   25.6210   15.8570 C.3       1 COA500      0.0000 
     48 S1P        -2.3800   25.5260   17.6840 S.3       1 COA500      0.0000 
     49 H          -9.4263   26.9370    6.7789 H         1 COA500      0.0000 
     50 H         -10.8918   24.3757   11.1156 H         1 COA500      0.0000 
     51 H         -10.2630   23.6415    9.6019 H         1 COA500      0.0000 
     52 H         -12.0617   28.9317   12.2472 H         1 COA500      0.0000 
     53 H         -10.5378   30.5334    9.0730 H         1 COA500      0.0000 
     54 H         -13.3231   30.4053   10.0909 H         1 COA500      0.0000 
     55 H         -13.5597   32.6094   10.1892 H         1 COA500      0.0000 
     56 H         -10.9084   33.3539   10.6120 H         1 COA500      0.0000 
     57 H         -12.8269   33.7632   12.1000 H         1 COA500      0.0000 
     58 H         -11.4224   33.0911   12.9459 H         1 COA500      0.0000 
     59 H         -12.2988   25.9795   14.8190 H         1 COA500      0.0000 
     60 H         -12.2740   26.0213   16.5904 H         1 COA500      0.0000 
     61 H         -11.5175   24.1431   16.5108 H         1 COA500      0.0000 
     62 H          -8.4543   21.4834   15.5886 H         1 COA500      0.0000 
     63 H          -7.4397   22.0110   17.7519 H         1 COA500      0.0000 
     64 H          -7.6683   23.7438   17.4602 H         1 COA500      0.0000 
     65 H          -6.6437   22.2403   15.1764 H         1 COA500      0.0000 
     66 H          -5.5378   22.2672   16.5607 H         1 COA500      0.0000 
     67 H          -3.9635   23.7406   16.1216 H         1 COA500      0.0000 
     68 H          -4.4694   26.5701   16.0683 H         1 COA500      0.0000 
     69 H          -4.1121   25.9909   14.4322 H         1 COA500      0.0000 
     70 H          -1.9753   26.4640   15.6192 H         1 COA500      0.0000 
     71 H          -2.1427   24.7014   15.5460 H         1 COA500      0.0000 
     72 H          -8.4839   26.4687   16.4718 H         1 COA500      0.0000 
     73 H          -9.4144   27.6836   15.9773 H         1 COA500      0.0000 
     74 H          -9.7374   26.9361   17.3641 H         1 COA500      0.0000 
     75 H          -8.9484   25.4523   14.1194 H         1 COA500      0.0000 
     76 H         -10.4747   25.3316   13.6273 H         1 COA500      0.0000 
     77 H          -9.8234   26.7802   13.8796 H         1 COA500      0.0000 
     78 H         -13.4702   31.2627    7.7232 H         1 COA500      0.0000 
     79 H         -10.1707   23.5094   18.1533 H         1 COA500      0.0000 
@<TRIPOS>BOND
     1    2    1 ar   
     2    6    1 ar   
     3    3    2 ar   
     4   49    2 1    
     5    4    3 ar   
     6    5    4 ar   
     7   10    4 1    
     8    6    5 ar   
     9    8    5 1    
    10    7    6 1    
    11   50    7 1    
    12   51    7 1    
    13    9    8 2    
    14   10    9 1    
    15   52    9 1    
    16   11   10 1    
    17   12   11 1    
    18   21   11 1    
    19   53   11 1    
    20   13   12 1    
    21   14   12 1    
    22   54   12 1    
    23   78   13 1    
    24   15   14 1    
    25   20   14 1    
    26   55   14 1    
    27   16   15 1    
    28   17   16 ar   
    29   18   16 ar   
    30   19   16 ar   
    31   21   20 1    
    32   22   20 1    
    33   56   20 1    
    34   23   22 1    
    35   57   22 1    
    36   58   22 1    
    37   24   23 1    
    38   25   24 ar   
    39   26   24 ar   
    40   27   24 1    
    41   28   27 1    
    42   29   28 ar   
    43   30   28 ar   
    44   31   28 1    
    45   33   31 1    
    46   33   32 1    
    47   34   32 1    
    48   35   32 1    
    49   36   32 1    
    50   59   33 1    
    51   60   33 1    
    52   72   34 1    
    53   73   34 1    
    54   74   34 1    
    55   75   35 1    
    56   76   35 1    
    57   77   35 1    
    58   37   36 1    
    59   38   36 1    
    60   61   36 1    
    61   79   37 1    
    62   39   38 2    
    63   40   38 am   
    64   41   40 1    
    65   62   40 1    
    66   42   41 1    
    67   63   41 1    
    68   64   41 1    
    69   43   42 1    
    70   65   42 1    
    71   66   42 1    
    72   44   43 2    
    73   45   43 am   
    74   46   45 1    
    75   67   45 1    
    76   47   46 1    
    77   68   46 1    
    78   69   46 1    
    79   48   47 1    
    80   70   47 1    
    81   71   47 1    
@<TRIPOS>SUBSTRUCTURE
     1 COA500      1 GROUP   
@<TRIPOS>SET

