#    Name: 4izy_1J2_1_INTS_M
#    Modification time : Tue Mar 25 04:56:29 2014

@<TRIPOS>MOLECULE
4izy_1J2_1_INTS_M
   76     0     9     0     0
SMALL
NO_CHARGES


@<TRIPOS>ATOM
      1 N         -12.5685   12.4525  -17.6340 N.am      2 SEC2        0.0000 
      2 N         -12.8530   11.1450  -18.2320 N.am      8 SEL2        0.0000 
      3 N         -12.2840   13.7600  -17.0360 N.am      5 SEP2        0.0000 
      4 CA        -12.8940   10.7635  -21.3665 C.3       3 GLC5        0.0000 
      5 CA        -12.1860   10.6390  -19.2580 C.3       9 GLL5        0.0000 
      6 CA        -13.6020   10.8880  -23.4750 C.3       6 GLP5        0.0000 
      7 CA        -12.9890   12.2845  -20.0350 C.3       3 GLC5        0.0000 
      8 CA        -13.7920   13.9300  -20.8120 C.3       6 GLP5        0.0000 
      9 CA        -11.3570   11.5615  -17.5825 C.3       3 GLC5        0.0000 
     10 CA        -10.5280   12.4840  -15.9070 C.3       6 GLP5        0.0000 
     11 CA        -16.0770    8.4975  -17.4765 C.3       3 GLC5        0.0000 
     12 CA        -14.2520    9.2410  -18.1980 C.3       9 GLL5        0.0000 
     13 CA        -17.9020    7.7540  -16.7550 C.3       6 GLP5        0.0000 
     14 CA        -14.1470   12.5295  -17.7510 C.3       3 GLC5        0.0000 
     15 CA        -13.8800   10.4770  -17.6930 C.3       9 GLL5        0.0000 
     16 CA        -14.4140   14.5820  -17.8090 C.3       6 GLP5        0.0000 
     17 CA        -12.6795   11.2925  -16.2330 C.3       3 GLC5        0.0000 
     18 CA        -11.4790   12.1080  -14.7730 C.3       6 GLP5        0.0000 
     19 CA        -16.2730    7.1555  -17.9695 C.3       3 GLC5        0.0000 
     20 CA        -14.6440    6.5570  -19.1840 C.3       9 GLL5        0.0000 
     21 CA        -13.8350    6.5035  -17.6610 C.3       3 GLC5        0.0000 
     22 CA        -13.0260    6.4500  -16.1380 C.3       6 GLP5        0.0000 
     23 CA        -13.1270    9.1645  -22.7835 C.3       3 GLC5        0.0000 
     24 CA        -12.6520    7.4410  -22.0920 C.3       9 GLL5        0.0000 
     25 CA        -13.0645    8.3950  -24.0055 C.3       3 GLC5        0.0000 
     26 CA        -12.4140    6.6560  -23.2050 C.3       9 GLL5        0.0000 
     27 CA        -13.7150   10.1340  -24.8060 C.3       6 GLP5        0.0000 
     28 O         -10.7135   12.6415  -19.3465 O.2       1 ALC1        0.0000 
     29 O         -11.1270   11.3540  -19.7940 O.2       7 ALL1        0.0000 
     30 O         -10.3000   13.9290  -18.8990 O.2       4 ALP1        0.0000 
     31 CA         -9.1600    9.0905  -18.4570 C.3       3 GLC5        0.0000 
     32 CA         -9.2290    9.8420  -20.2290 C.3       9 GLL5        0.0000 
     33 CA         -9.0910    8.3390  -16.6850 C.3       6 GLP5        0.0000 
     34 CA         -6.9485    8.1490  -19.9565 C.3       3 GLC5        0.0000 
     35 CA         -8.3150    9.2560  -21.3140 C.3       9 GLL5        0.0000 
     36 CA         -5.5820    7.0420  -18.5990 C.3       6 GLP5        0.0000 
     37 N         -18.2175    0.7040  -20.8950 N.am      2 SEC2        0.0000 
     38 N         -17.5430   -0.0820  -21.9320 N.am      8 SEL2        0.0000 
     39 N         -18.8920    1.4900  -19.8580 N.am      5 SEP2        0.0000 
     40 N         -17.6270   -1.8670  -24.3965 N.am      2 SEC2        0.0000 
     41 N         -16.5330   -1.0260  -23.9560 N.am      8 SEL2        0.0000 
     42 N         -18.7210   -2.7080  -24.8370 N.am      5 SEP2        0.0000 
     43 N         -18.0790   -0.5320  -24.4115 N.am      2 SEC2        0.0000 
     44 N         -19.6250   -0.0380  -24.8670 N.am      5 SEP2        0.0000 
     45 CA        -17.5245   -2.1410  -22.0700 C.3       3 GLC5        0.0000 
     46 CA        -15.5400   -1.7900  -21.6320 C.3       9 GLL5        0.0000 
     47 CA        -19.5090   -2.4920  -22.5080 C.3       6 GLP5        0.0000 
     48 CA        -14.4110    9.6935  -15.9703 C.3       3 GLC5        0.0000 
     49 CA        -14.7560    9.5280  -13.9950 C.3       6 GLP5        0.0000 
     50 CA        -15.3266   10.4964  -19.1184 C.3       3 GLC5        0.0000 
     51 CA        -16.7650   11.2600  -20.0170 C.3       6 GLP5        0.0000 
     52 CA        -13.4571    8.0914  -17.1789 C.3       3 GLC5        0.0000 
     53 CA        -14.8033    7.7470  -22.2402 C.3       3 GLC5        0.0000 
     54 CA        -13.4450    6.9550  -21.0490 C.3       9 GLL5        0.0000 
     55 CA        -16.5580    8.2960  -22.9100 C.3       6 GLP5        0.0000 
     56 CA        -12.6470    5.7836  -19.2366 C.3       3 GLC5        0.0000 
     57 CA        -11.3810    5.3130  -17.6770 C.3       6 GLP5        0.0000 
     58 CA        -12.9395    5.9888  -25.1267 C.3       3 GLC5        0.0000 
     59 CA        -13.1960    5.9640  -26.9960 C.3       6 GLP5        0.0000 
     60 CA        -14.6955    6.5593  -23.5627 C.3       3 GLC5        0.0000 
     61 CA        -12.9520    5.3710  -23.3100 C.3       9 GLL5        0.0000 
     62 CA        -16.7080    7.1050  -23.8680 C.3       6 GLP5        0.0000 
     63 CA        -15.6043    5.5279  -22.2604 C.3       3 GLC5        0.0000 
     64 CA        -13.7500    4.8520  -22.2960 C.3       9 GLL5        0.0000 
     65 CA        -17.1430    5.8530  -23.1010 C.3       6 GLP5        0.0000 
     66 CA        -11.7858   11.1015  -22.3697 C.3       3 GLC5        0.0000 
     67 CA        -10.2970   10.7570  -20.8520 C.3       9 GLL5        0.0000 
     68 CA         -7.0375   10.9418  -20.1539 C.3       3 GLC5        0.0000 
     69 CA         -5.8520   11.9220  -18.8490 C.3       6 GLP5        0.0000 
     70 CA        -14.9987    2.5762  -25.6660 C.3       3 GLC5        0.0000 
     71 CA        -14.3770    2.9510  -23.7460 C.3       9 GLL5        0.0000 
     72 CA        -15.0810    2.7470  -27.5900 C.3       6 GLP5        0.0000 
     73 CA        -16.0297    4.1292  -23.4215 C.3       3 GLC5        0.0000 
     74 CA        -15.2428    0.1910  -24.9602 C.3       3 GLC5        0.0000 
     75 CA        -15.4560    1.8600  -23.7380 C.3       9 GLL5        0.0000 
     76 CA        -15.2050   -0.9470  -26.7140 C.3       6 GLP5        0.0000 
@<TRIPOS>BOND
@<TRIPOS>SUBSTRUCTURE
     1 ALC1       28 GROUP        1 X    ALC  0     ROOT ALC X 1
     2 SEC2        1 GROUP        1 X    SEC  0     **** SEC X 2
     3 GLC5        4 GROUP        1 X    GLC  0     **** GLC X 6
     4 ALP1       30 GROUP        1 Y    ALP  0     ROOT ALP Y 8
     5 SEP2        3 GROUP        1 Y    SEP  0     **** SEP Y 9
     6 GLP5        6 GROUP        1 Y    GLP  0     **** GLP Y 13
     7 ALL1       29 GROUP        1 Z    ALL  0     ROOT ALL Z 15
     8 SEL2        2 GROUP        1 Z    SEL  0     **** SEL Z 16
     9 GLL5        5 GROUP        1 Z    GLL  0     **** GLL Z 20
@<TRIPOS>SET

