#    Name: 4izy_1J2_1_ligand
#    Modification time : Tue Mar 25 04:56:29 2014

@<TRIPOS>MOLECULE
4izy_1J2_1_ligand
   64    68     1     0     0
SMALL
NO_CHARGES


@<TRIPOS>ATOM
      1 N1        -12.8530   11.1450  -18.2320 N.ar      1 1J2401      0.0000 
      2 C2        -12.1860   10.6390  -19.2580 C.ar      1 1J2401      0.0000 
      3 N3        -12.5180    9.4570  -19.7740 N.ar      1 1J2401      0.0000 
      4 C4        -13.5410    8.7360  -19.2950 C.ar      1 1J2401      0.0000 
      5 C5        -14.2520    9.2410  -18.1980 C.ar      1 1J2401      0.0000 
      6 C6        -13.8800   10.4770  -17.6930 C.ar      1 1J2401      0.0000 
      7 N7        -13.8620    7.4820  -19.8350 N.pl3     1 1J2401      0.0000 
      8 C8        -14.7660    5.4490  -19.9270 C.2       1 1J2401      0.0000 
      9 C9        -14.6440    6.5570  -19.1840 C.2       1 1J2401      0.0000 
     10 C10       -13.9960    5.6580  -21.1600 C.ar      1 1J2401      0.0000 
     11 C11       -13.4450    6.9550  -21.0490 C.ar      1 1J2401      0.0000 
     12 C12       -12.6520    7.4410  -22.0920 C.ar      1 1J2401      0.0000 
     13 C13       -12.4140    6.6560  -23.2050 C.ar      1 1J2401      0.0000 
     14 C14       -12.9520    5.3710  -23.3100 C.ar      1 1J2401      0.0000 
     15 C15       -13.7500    4.8520  -22.2960 C.ar      1 1J2401      0.0000 
     16 N16       -14.3100    3.5500  -22.3910 N.3       1 1J2401      0.0000 
     17 N17       -11.1270   11.3540  -19.7940 N.pl3     1 1J2401      0.0000 
     18 C18       -10.2970   10.7570  -20.8520 C.3       1 1J2401      0.0000 
     19 C19        -9.2290    9.8420  -20.2290 C.3       1 1J2401      0.0000 
     20 C20        -8.3150    9.2560  -21.3140 C.3       1 1J2401      0.0000 
     21 C21        -7.6740   10.3740  -22.1460 C.3       1 1J2401      0.0000 
     22 C22        -8.7600   11.2550  -22.7690 C.3       1 1J2401      0.0000 
     23 C23        -9.6420   11.8730  -21.6770 C.3       1 1J2401      0.0000 
     24 O24        -6.9330    9.7520  -23.1920 O.3       1 1J2401      0.0000 
     25 C25       -14.3770    2.9510  -23.7460 C.3       1 1J2401      0.0000 
     26 C26       -15.4560    1.8600  -23.7380 C.3       1 1J2401      0.0000 
     27 C27       -15.1050    0.7980  -22.6750 C.3       1 1J2401      0.0000 
     28 C28       -14.9240    1.4650  -21.2930 C.3       1 1J2401      0.0000 
     29 C29       -13.8610    2.5770  -21.3760 C.3       1 1J2401      0.0000 
     30 S30       -16.3770   -0.5160  -22.6330 S.o2      1 1J2401      0.0000 
     31 O31       -17.5430   -0.0820  -21.9320 O.2       1 1J2401      0.0000 
     32 O32       -16.5330   -1.0260  -23.9560 O.2       1 1J2401      0.0000 
     33 C33       -15.5400   -1.7900  -21.6320 C.3       1 1J2401      0.0000 
     34 H         -15.0150    8.7122  -17.7908 H         1 1J2401      0.0000 
     35 H         -14.4145   10.8688  -16.8916 H         1 1J2401      0.0000 
     36 H         -15.2357    4.6521  -19.7592 H         1 1J2401      0.0000 
     37 H         -15.0433    6.7053  -18.3077 H         1 1J2401      0.0000 
     38 H         -12.2478    8.3849  -22.0253 H         1 1J2401      0.0000 
     39 H         -11.8277    7.0211  -23.9774 H         1 1J2401      0.0000 
     40 H         -12.7539    4.8039  -24.1486 H         1 1J2401      0.0000 
     41 H         -10.8929   12.2926  -19.4823 H         1 1J2401      0.0000 
     42 H         -10.9094   10.1630  -21.5122 H         1 1J2401      0.0000 
     43 H          -9.7203    9.0314  -19.6979 H         1 1J2401      0.0000 
     44 H          -8.6305   10.4184  -19.5290 H         1 1J2401      0.0000 
     45 H          -8.9011    8.6147  -21.9671 H         1 1J2401      0.0000 
     46 H          -7.5327    8.6670  -20.8425 H         1 1J2401      0.0000 
     47 H          -7.0600   10.9634  -21.5157 H         1 1J2401      0.0000 
     48 H          -9.3777   10.6518  -23.4283 H         1 1J2401      0.0000 
     49 H          -8.2924   12.0499  -23.3430 H         1 1J2401      0.0000 
     50 H          -9.0315   12.4867  -21.0277 H         1 1J2401      0.0000 
     51 H         -10.4127   12.4768  -22.1377 H         1 1J2401      0.0000 
     52 H         -13.4299    2.4985  -24.0116 H         1 1J2401      0.0000 
     53 H         -14.6464    3.6982  -24.4818 H         1 1J2401      0.0000 
     54 H         -15.4986    1.3883  -24.7092 H         1 1J2401      0.0000 
     55 H         -16.4123    2.3009  -23.4958 H         1 1J2401      0.0000 
     56 H         -14.2237    0.2607  -22.9576 H         1 1J2401      0.0000 
     57 H         -14.6049    0.7177  -20.5778 H         1 1J2401      0.0000 
     58 H         -15.8672    1.8944  -20.9803 H         1 1J2401      0.0000 
     59 H         -13.7766    3.0415  -20.4044 H         1 1J2401      0.0000 
     60 H         -12.9197    2.1287  -21.6585 H         1 1J2401      0.0000 
     61 H         -14.7894   -2.2216  -22.1323 H         1 1J2401      0.0000 
     62 H         -15.1517   -1.4077  -20.7935 H         1 1J2401      0.0000 
     63 H         -16.1675   -2.5191  -21.3586 H         1 1J2401      0.0000 
     64 H          -5.9950    9.7005  -22.8492 H         1 1J2401      0.0000 
@<TRIPOS>BOND
     1    2    1 ar   
     2    6    1 ar   
     3    3    2 ar   
     4   17    2 1    
     5    4    3 ar   
     6    5    4 ar   
     7    7    4 1    
     8    6    5 ar   
     9   34    5 1    
    10   35    6 1    
    11    9    7 1    
    12   11    7 1    
    13    9    8 2    
    14   10    8 1    
    15   36    8 1    
    16   37    9 1    
    17   11   10 ar   
    18   15   10 ar   
    19   12   11 ar   
    20   13   12 ar   
    21   38   12 1    
    22   14   13 ar   
    23   39   13 1    
    24   15   14 ar   
    25   40   14 1    
    26   16   15 1    
    27   25   16 1    
    28   29   16 1    
    29   18   17 1    
    30   41   17 1    
    31   19   18 1    
    32   23   18 1    
    33   42   18 1    
    34   20   19 1    
    35   43   19 1    
    36   44   19 1    
    37   21   20 1    
    38   45   20 1    
    39   46   20 1    
    40   22   21 1    
    41   24   21 1    
    42   47   21 1    
    43   23   22 1    
    44   48   22 1    
    45   49   22 1    
    46   50   23 1    
    47   51   23 1    
    48   64   24 1    
    49   26   25 1    
    50   52   25 1    
    51   53   25 1    
    52   27   26 1    
    53   54   26 1    
    54   55   26 1    
    55   28   27 1    
    56   30   27 1    
    57   56   27 1    
    58   29   28 1    
    59   57   28 1    
    60   58   28 1    
    61   59   29 1    
    62   60   29 1    
    63   31   30 2    
    64   32   30 2    
    65   33   30 1    
    66   61   33 1    
    67   62   33 1    
    68   63   33 1    
@<TRIPOS>SUBSTRUCTURE
     1 1J2401      1 GROUP   
@<TRIPOS>SET

