#    Name: 1gkz_ADP_1_INTS_M
#    Modification time : Tue Mar 25 03:16:21 2014

@<TRIPOS>MOLECULE
1gkz_ADP_1_INTS_M
   53     0    12     0     0
SMALL
NO_CHARGES


@<TRIPOS>ATOM
      1 N          95.9700  124.5980   29.7370 N.am      2 SEC2        0.0000 
      2 N          96.1960  123.8220   30.8000 N.am     10 SEL2        0.0000 
      3 N          95.7440  125.3740   28.6740 N.am      6 SEP2        0.0000 
      4 Zn         95.4415  122.2895   33.8045 Zn        3 ZIC7        0.0000 
      5 Zn         95.2180  122.5240   32.7790 Zn       11 ZIL7        0.0000 
      6 Zn         95.6650  122.0550   34.8300 Zn        7 ZIP7        0.0000 
      7 N          95.5900  126.1800   32.8285 N.am      2 SEC2        0.0000 
      8 N          94.9760  124.8370   32.8370 N.am     10 SEL2        0.0000 
      9 N          96.2040  127.5230   32.8200 N.am      6 SEP2        0.0000 
     10 Zn         96.6305  122.1570   34.7675 Zn        3 ZIC7        0.0000 
     11 Zn         97.5960  122.2590   34.7050 Zn       11 ZIL7        0.0000 
     12 N          97.5390  120.7775   35.1215 N.am      2 SEC2        0.0000 
     13 N          97.5960  122.2590   34.7050 N.am     10 SEL2        0.0000 
     14 N          97.4820  119.2960   35.5380 N.am      6 SEP2        0.0000 
     15 N          98.7130  122.6975   35.9310 N.am      2 SEC2        0.0000 
     16 N          99.8300  123.1360   37.1570 N.am      6 SEP2        0.0000 
     17 N          99.6065  123.5260   35.6480 N.am      2 SEC2        0.0000 
     18 N          99.3830  123.9160   34.1390 N.am     10 SEL2        0.0000 
     19 CA        101.5210  121.8370   31.1270 C.3       4 GLC5        0.0000 
     20 CA         99.5140  122.4930   31.4450 C.3      12 GLL5        0.0000 
     21 CA        103.5280  121.1810   30.8090 C.3       8 GLP5        0.0000 
     22 CA        100.6165  121.3145   32.8275 C.3       4 GLC5        0.0000 
     23 CA        101.7190  120.1360   34.2100 C.3       8 GLP5        0.0000 
     24 CA        101.2115  121.1030   29.8570 C.3       4 GLC5        0.0000 
     25 CA         99.3320  121.5800   30.2480 C.3      12 GLL5        0.0000 
     26 CA        103.0910  120.6260   29.4660 C.3       8 GLP5        0.0000 
     27 N          95.7285  121.4305   28.7535 N.am      2 SEC2        0.0000 
     28 N          97.1890  122.0900   29.2550 N.am     10 SEL2        0.0000 
     29 N          94.2680  120.7710   28.2520 N.am      6 SEP2        0.0000 
     30 N          97.2355  122.9885   28.0460 N.am      2 SEC2        0.0000 
     31 N          97.2820  123.8870   26.8370 N.am      6 SEP2        0.0000 
     32 CA        101.2300  119.9400   29.6785 C.3       4 GLC5        0.0000 
     33 CA         99.3690  119.2540   29.8910 C.3      12 GLL5        0.0000 
     34 CA         96.7995  114.4765   30.7410 C.3       4 GLC5        0.0000 
     35 CA         98.3960  114.9430   31.8650 C.3      12 GLL5        0.0000 
     36 CA         95.2030  114.0100   29.6170 C.3       8 GLP5        0.0000 
     37 CA         99.7330  113.3355   31.9700 C.3       4 GLC5        0.0000 
     38 CA        101.0700  111.7280   32.0750 C.3       8 GLP5        0.0000 
     39 O          97.8900  112.8060   33.0780 O.2       1 ALC1        0.0000 
     40 O          98.2230  114.2720   32.9870 O.2       9 ALL1        0.0000 
     41 O          97.5570  111.3400   33.1690 O.2       5 ALP1        0.0000 
     42 CA         96.8030  114.5105   29.5850 C.3       4 GLC5        0.0000 
     43 CA         98.4030  115.0110   29.5530 C.3      12 GLL5        0.0000 
     44 CA        100.3005  115.3565   29.6000 C.3       4 GLC5        0.0000 
     45 CA        102.1980  115.7020   29.6470 C.3       8 GLP5        0.0000 
     46 CA         97.6945  121.0905   27.6285 C.3       4 GLC5        0.0000 
     47 CA         98.1890  119.8430   29.1280 C.3      12 GLL5        0.0000 
     48 CA         97.3360  121.7120   25.7100 C.3       8 GLP5        0.0000 
     49 CA         97.3067  116.5515   33.2745 C.3       4 GLC5        0.0000 
     50 CA         98.6490  116.2990   31.8630 C.3      12 GLL5        0.0000 
     51 CA         96.0910  117.4820   34.6850 C.3       8 GLP5        0.0000 
     52 CA        100.4199  115.9860   30.4482 C.3       4 GLC5        0.0000 
     53 CA         98.7610  116.9190   30.6350 C.3      12 GLL5        0.0000 
@<TRIPOS>BOND
@<TRIPOS>SUBSTRUCTURE
     1 ALC1       39 GROUP        1 X    ALC  0     ROOT ALC X 1
     2 SEC2        1 GROUP        1 X    SEC  0     **** SEC X 2
     3 ZIC7        4 GROUP        1 X    ZIC  0     **** ZIC X 5
     4 GLC5       19 GROUP        1 X    GLC  0     **** GLC X 6
     5 ALP1       41 GROUP        1 Y    ALP  0     ROOT ALP Y 8
     6 SEP2        3 GROUP        1 Y    SEP  0     **** SEP Y 9
     7 ZIP7        6 GROUP        1 Y    ZIP  0     **** ZIP Y 12
     8 GLP5       21 GROUP        1 Y    GLP  0     **** GLP Y 13
     9 ALL1       40 GROUP        1 Z    ALL  0     ROOT ALL Z 15
    10 SEL2        2 GROUP        1 Z    SEL  0     **** SEL Z 16
    11 ZIL7        5 GROUP        1 Z    ZIL  0     **** ZIL Z 19
    12 GLL5       20 GROUP        1 Z    GLL  0     **** GLL Z 20
@<TRIPOS>SET

