#    Name: 1gkz_ADP_1_ligand
#    Modification time : Tue Mar 25 03:16:21 2014

@<TRIPOS>MOLECULE
1gkz_ADP_1_ligand
   39    41     1     0     0
SMALL
NO_CHARGES


@<TRIPOS>ATOM
      1 PB         95.8590  123.7770   32.2530 P.3       1 ADP601      0.0000 
      2 O1B        96.1960  123.8220   30.8000 O.co2     1 ADP601      0.0000 
      3 O2B        95.2180  122.5240   32.7790 O.co2     1 ADP601      0.0000 
      4 O3B        94.9760  124.8370   32.8370 O.co2     1 ADP601      0.0000 
      5 PA         98.2800  123.0980   33.7170 P.3       1 ADP601      0.0000 
      6 O1A        97.5960  122.2590   34.7050 O.co2     1 ADP601      0.0000 
      7 O2A        99.3830  123.9160   34.1390 O.co2     1 ADP601      0.0000 
      8 O3A        97.2480  124.0660   32.9850 O.3       1 ADP601      0.0000 
      9 O5'        98.6100  122.1210   32.4910 O.3       1 ADP601      0.0000 
     10 C5'        99.5140  122.4930   31.4450 C.3       1 ADP601      0.0000 
     11 C4'        99.3320  121.5800   30.2480 C.3       1 ADP601      0.0000 
     12 O4'       100.0660  120.3450   30.4830 O.3       1 ADP601      0.0000 
     13 C3'        97.9170  121.0950   29.9660 C.3       1 ADP601      0.0000 
     14 O3'        97.1890  122.0900   29.2550 O.3       1 ADP601      0.0000 
     15 C2'        98.1890  119.8430   29.1280 C.3       1 ADP601      0.0000 
     16 O2'        98.7090  120.1120   27.8240 O.3       1 ADP601      0.0000 
     17 C1'        99.3690  119.2540   29.8910 C.3       1 ADP601      0.0000 
     18 N9         99.0610  118.2410   30.9060 N.pl3     1 ADP601      0.0000 
     19 C8         99.0510  118.3500   32.2830 C.2       1 ADP601      0.0000 
     20 N7         98.8260  117.2030   32.8970 N.2       1 ADP601      0.0000 
     21 C5         98.6490  116.2990   31.8630 C.ar      1 ADP601      0.0000 
     22 C6         98.3960  114.9430   31.8650 C.ar      1 ADP601      0.0000 
     23 N6         98.2230  114.2720   32.9870 N.pl3     1 ADP601      0.0000 
     24 N1         98.2990  114.2930   30.6600 N.ar      1 ADP601      0.0000 
     25 C2         98.4030  115.0110   29.5530 C.ar      1 ADP601      0.0000 
     26 N3         98.6300  116.3350   29.4240 N.ar      1 ADP601      0.0000 
     27 C4         98.7610  116.9190   30.6350 C.ar      1 ADP601      0.0000 
     28 H         100.5599  122.4200   31.7728 H         1 ADP601      0.0000 
     29 H          99.3424  123.5263   31.1141 H         1 ADP601      0.0000 
     30 H          99.7196  122.0454   29.3589 H         1 ADP601      0.0000 
     31 H          97.4856  120.7973   30.8804 H         1 ADP601      0.0000 
     32 H          97.4050  119.1874   29.1783 H         1 ADP601      0.0000 
     33 H         100.0412  118.8027   29.1257 H         1 ADP601      0.0000 
     34 H          99.2023  119.2244   32.7385 H         1 ADP601      0.0000 
     35 H          98.0397  113.2937   32.8908 H         1 ADP601      0.0000 
     36 H          98.2910  114.8025   33.8319 H         1 ADP601      0.0000 
     37 H          98.2900  114.4603   28.6003 H         1 ADP601      0.0000 
     38 H          97.2544  122.9121   29.8207 H         1 ADP601      0.0000 
     39 H          98.9301  119.2141   27.4434 H         1 ADP601      0.0000 
@<TRIPOS>BOND
     1    2    1 ar   
     2    3    1 ar   
     3    4    1 ar   
     4    8    1 1    
     5    6    5 ar   
     6    7    5 ar   
     7    8    5 1    
     8    9    5 1    
     9   10    9 1    
    10   11   10 1    
    11   28   10 1    
    12   29   10 1    
    13   12   11 1    
    14   13   11 1    
    15   30   11 1    
    16   17   12 1    
    17   14   13 1    
    18   15   13 1    
    19   31   13 1    
    20   38   14 1    
    21   16   15 1    
    22   17   15 1    
    23   32   15 1    
    24   39   16 1    
    25   18   17 1    
    26   33   17 1    
    27   19   18 1    
    28   27   18 1    
    29   20   19 2    
    30   34   19 1    
    31   21   20 1    
    32   22   21 ar   
    33   27   21 ar   
    34   23   22 1    
    35   24   22 ar   
    36   35   23 1    
    37   36   23 1    
    38   25   24 ar   
    39   26   25 ar   
    40   37   25 1    
    41   27   26 ar   
@<TRIPOS>SUBSTRUCTURE
     1 ADP601      1 GROUP   
@<TRIPOS>SET

