#    Name: 2b4q_NAP_1_INTS_M
#    Modification time : Mon Mar 24 19:52:11 2014

@<TRIPOS>MOLECULE
2b4q_NAP_1_INTS_M
  121     0    12     0     0
SMALL
NO_CHARGES


@<TRIPOS>ATOM
      1 NZ        -14.4175   84.7420    4.2615 N.4       3 LYC4        0.0000 
      2 NZ        -13.0830   85.0300    4.5730 N.4      11 LYL4        0.0000 
      3 NZ        -16.8900   85.0610    3.6270 N.4       7 LYP4        0.0000 
      4 N         -14.4175   84.7420    4.2615 N.am      2 SEC2        0.0000 
      5 N         -13.0830   85.0300    4.5730 N.am     10 SEL2        0.0000 
      6 N         -15.7520   84.4540    3.9500 N.am      6 SEP2        0.0000 
      7 N         -15.2405   84.9180    5.2330 N.am      2 SEC2        0.0000 
      8 N         -14.7290   85.3820    6.5160 N.am     10 SEL2        0.0000 
      9 CA        -14.9970   84.3175    6.3285 C.3       4 GLC5        0.0000 
     10 CA        -15.2670   86.0870    7.6310 C.3      12 GLL5        0.0000 
     11 CA        -14.7270   82.5480    5.0260 C.3       8 GLP5        0.0000 
     12 CA        -15.9955   83.4940    6.2315 C.3       4 GLC5        0.0000 
     13 CA        -17.2640   84.4400    7.4370 C.3      12 GLL5        0.0000 
     14 N         -17.1725   81.6565    8.7230 N.am      2 SEC2        0.0000 
     15 N         -17.4430   83.1920    8.0900 N.am     10 SEL2        0.0000 
     16 N         -16.9020   80.1210    9.3560 N.am      6 SEP2        0.0000 
     17 O         -17.8665   82.0685    7.4870 O.2       1 ALC1        0.0000 
     18 O         -17.4430   83.1920    8.0900 O.2       9 ALL1        0.0000 
     19 O         -18.2900   80.9450    6.8840 O.2       5 ALP1        0.0000 
     20 CA        -19.8360   83.6325    7.8215 C.3       4 GLC5        0.0000 
     21 CA        -18.5860   85.1620    7.1440 C.3      12 GLL5        0.0000 
     22 CA        -21.0860   82.1030    8.4990 C.3       8 GLP5        0.0000 
     23 CA        -18.7150   87.0745   10.2460 C.3       4 GLC5        0.0000 
     24 CA        -18.7550   85.9940    8.3980 C.3      12 GLL5        0.0000 
     25 CA        -18.6750   88.1550   12.0940 C.3       8 GLP5        0.0000 
     26 CA        -22.8060   88.0930    7.4185 C.3       4 GLC5        0.0000 
     27 CA        -21.5540   88.3730    8.6770 C.3      12 GLL5        0.0000 
     28 CA        -24.0580   87.8130    6.1600 C.3       8 GLP5        0.0000 
     29 CA        -20.6225   90.1600    8.9195 C.3       4 GLC5        0.0000 
     30 CA        -19.6910   91.9470    9.1620 C.3       8 GLP5        0.0000 
     31 CA        -23.5430   87.6565    8.1815 C.3       4 GLC5        0.0000 
     32 CA        -22.7780   88.7030    9.3100 C.3      12 GLL5        0.0000 
     33 CA        -24.3080   86.6100    7.0530 C.3       8 GLP5        0.0000 
     34 CA        -24.7935   87.8965    9.8800 C.3       4 GLC5        0.0000 
     35 CA        -26.8090   87.0900   10.4500 C.3       8 GLP5        0.0000 
     36 CA        -23.2090   88.8920   11.3580 C.3       4 GLC5        0.0000 
     37 CA        -23.6400   89.0810   13.4060 C.3       8 GLP5        0.0000 
     38 CA        -21.9150   90.2720   10.2860 C.3       4 GLC5        0.0000 
     39 CA        -21.0520   91.8410   11.2620 C.3       8 GLP5        0.0000 
     40 O         -25.0570   89.6735    8.8620 O.2       1 ALC1        0.0000 
     41 O         -23.4350   89.8190    8.9760 O.2       9 ALL1        0.0000 
     42 O         -26.6790   89.5280    8.7480 O.2       5 ALP1        0.0000 
     43 N         -24.3605   88.1650   11.0630 N.am      2 SEC2        0.0000 
     44 N         -23.3160   87.8450   10.3000 N.am     10 SEL2        0.0000 
     45 N         -25.4050   88.4850   11.8260 N.am      6 SEP2        0.0000 
     46 CA        -22.3575   84.6825   10.0760 C.3       4 GLC5        0.0000 
     47 CA        -22.6440   86.6630   10.6620 C.3      12 GLL5        0.0000 
     48 CA        -22.0710   82.7020    9.4900 C.3       8 GLP5        0.0000 
     49 CA        -23.4760   86.6365    8.8575 C.3       4 GLC5        0.0000 
     50 CA        -24.7265   86.8765   10.5560 C.3       4 GLC5        0.0000 
     51 CA        -22.4155   86.9525   12.4890 C.3       4 GLC5        0.0000 
     52 CA        -22.1870   87.2420   14.3160 C.3       8 GLP5        0.0000 
     53 CA        -20.6595   87.4090   11.3780 C.3       4 GLC5        0.0000 
     54 CA        -22.6000   86.8960    8.0540 C.3       4 GLC5        0.0000 
     55 CA        -20.8920   87.1820    9.0550 C.3      12 GLL5        0.0000 
     56 N         -10.0415   85.0240    8.3555 N.am      2 SEC2        0.0000 
     57 N         -10.0930   86.5710    7.7310 N.am     10 SEL2        0.0000 
     58 N          -9.9900   83.4770    8.9800 N.am      6 SEP2        0.0000 
     59 CA        -10.3410   86.1810   10.3995 C.3       4 GLC5        0.0000 
     60 CA        -11.6420   87.5250    9.9630 C.3      12 GLL5        0.0000 
     61 CA         -9.0400   84.8370   10.8360 C.3       8 GLP5        0.0000 
     62 CA        -10.7550   88.8335   12.5140 C.3       4 GLC5        0.0000 
     63 CA        -11.8000   88.7580   10.8690 C.3      12 GLL5        0.0000 
     64 CA         -9.7100   88.9090   14.1590 C.3       8 GLP5        0.0000 
     65 CA        -14.3015   90.7835   10.2830 C.3       4 GLC5        0.0000 
     66 CA        -12.5940   89.9320   10.2680 C.3      12 GLL5        0.0000 
     67 CA        -16.0090   91.6350   10.2980 C.3       8 GLP5        0.0000 
     68 N         -12.7895   91.8155   12.1830 N.am      2 SEC2        0.0000 
     69 N         -13.3590   90.5140   11.3100 N.am     10 SEL2        0.0000 
     70 N         -12.2200   93.1170   13.0560 N.am      6 SEP2        0.0000 
     71 O         -13.9100   89.5565   11.9045 O.2       1 ALC1        0.0000 
     72 O         -13.3590   90.5140   11.3100 O.2       9 ALL1        0.0000 
     73 O         -14.4610   88.5990   12.4990 O.2       5 ALP1        0.0000 
     74 CA        -10.6980   92.9550    9.4535 C.3       4 GLC5        0.0000 
     75 CA        -11.5380   90.8970    9.7960 C.3      12 GLL5        0.0000 
     76 CA         -9.8580   95.0130    9.1110 C.3       8 GLP5        0.0000 
     77 N         -10.7360   93.0115    9.6925 N.am      2 SEC2        0.0000 
     78 N         -11.9630   92.2410    9.7930 N.am     10 SEL2        0.0000 
     79 N          -9.5090   93.7820    9.5920 N.am      6 SEP2        0.0000 
     80 N         -12.0915   92.6790   11.4245 N.am      2 SEC2        0.0000 
     81 CA        -10.0370   89.7605   12.4545 C.3       4 GLC5        0.0000 
     82 CA        -10.3640   90.6120   10.7500 C.3      12 GLL5        0.0000 
     83 N          -4.4210   88.7790    7.0585 N.am      2 SEC2        0.0000 
     84 N          -5.5140   89.7230    7.2230 N.am     10 SEL2        0.0000 
     85 N          -3.3280   87.8350    6.8940 N.am      6 SEP2        0.0000 
     86 O          -6.2540   87.7830    5.9605 O.2       1 ALC1        0.0000 
     87 O          -7.4080   88.6610    6.8690 O.2       9 ALL1        0.0000 
     88 O          -5.1000   86.9050    5.0520 O.2       5 ALP1        0.0000 
     89 CA         -5.5240   90.2940   10.9775 C.3       4 GLC5        0.0000 
     90 CA         -6.3560   91.2740    9.4490 C.3      12 GLL5        0.0000 
     91 CA         -4.6920   89.3140   12.5060 C.3       8 GLP5        0.0000 
     92 NZ        -18.1455   84.2320    4.0540 N.4       3 LYC4        0.0000 
     93 NZ        -19.4010   83.4030    4.4810 N.4      11 LYL4        0.0000 
     94 N         -22.8730   83.0460    5.3875 N.am      2 SEC2        0.0000 
     95 N         -21.6840   83.5910    5.4260 N.am     10 SEL2        0.0000 
     96 N         -24.0620   82.5010    5.3490 N.am      6 SEP2        0.0000 
     97 NZ        -19.2025   85.0070    3.9510 N.4       3 LYC4        0.0000 
     98 NZ        -20.4920   85.6540    4.7510 N.4      11 LYL4        0.0000 
     99 NZ        -20.8045   87.0665    4.4060 N.4       3 LYC4        0.0000 
    100 NZ        -22.2810   88.6710    4.6720 N.4       7 LYP4        0.0000 
    101 N         -19.2025   85.0070    3.9510 N.am      2 SEC2        0.0000 
    102 N         -20.4920   85.6540    4.7510 N.am     10 SEL2        0.0000 
    103 N         -17.9130   84.3600    3.1510 N.am      6 SEP2        0.0000 
    104 N         -21.6395   86.6835    5.0975 N.am      2 SEC2        0.0000 
    105 N         -22.7870   87.7130    5.4440 N.am      6 SEP2        0.0000 
    106 N         -20.8045   87.0665    4.4060 N.am      2 SEC2        0.0000 
    107 N         -21.1170   88.4790    4.0610 N.am      6 SEP2        0.0000 
    108 CA        -19.9490   87.9663   10.4800 C.3       4 GLC5        0.0000 
    109 CA        -11.3025   92.5353   11.3165 C.3       4 GLC5        0.0000 
    110 CA        -11.6540   94.3160   12.3600 C.3       8 GLP5        0.0000 
    111 CA         -7.5830   88.5045    9.6585 C.3       4 GLC5        0.0000 
    112 CA         -8.4630   90.1600    9.1200 C.3      12 GLL5        0.0000 
    113 CA         -7.3760   86.7730   10.4130 C.3       8 GLP5        0.0000 
    114 CA         -7.4620   93.3870   11.4550 C.3       4 GLC5        0.0000 
    115 CA         -8.2060   91.8030   10.8960 C.3      12 GLL5        0.0000 
    116 CA         -7.3840   94.8680   12.1960 C.3       8 GLP5        0.0000 
    117 CA         -6.7805   91.2880   12.3545 C.3       4 GLC5        0.0000 
    118 CA         -6.8740   92.0090   10.5320 C.3      12 GLL5        0.0000 
    119 CA         -6.0210   90.6700   13.9950 C.3       8 GLP5        0.0000 
    120 CA        -17.6499   84.7089    9.5241 C.3       4 GLC5        0.0000 
    121 CA        -17.5290   84.1660   11.2260 C.3       8 GLP5        0.0000 
@<TRIPOS>BOND
@<TRIPOS>SUBSTRUCTURE
     1 ALC1       17 GROUP        1 X    ALC  0     ROOT ALC X 1
     2 SEC2        4 GROUP        1 X    SEC  0     **** SEC X 2
     3 LYC4        1 GROUP        1 X    LYC  0     **** LYC X 4
     4 GLC5        9 GROUP        1 X    GLC  0     **** GLC X 6
     5 ALP1       19 GROUP        1 Y    ALP  0     ROOT ALP Y 8
     6 SEP2        6 GROUP        1 Y    SEP  0     **** SEP Y 9
     7 LYP4        3 GROUP        1 Y    LYP  0     **** LYP Y 11
     8 GLP5       11 GROUP        1 Y    GLP  0     **** GLP Y 13
     9 ALL1       18 GROUP        1 Z    ALL  0     ROOT ALL Z 15
    10 SEL2        5 GROUP        1 Z    SEL  0     **** SEL Z 16
    11 LYL4        2 GROUP        1 Z    LYL  0     **** LYL Z 18
    12 GLL5       10 GROUP        1 Z    GLL  0     **** GLL Z 20
@<TRIPOS>SET

