#    Name: 2b4q_NAP_1_ligand
#    Modification time : Mon Mar 24 19:52:11 2014

@<TRIPOS>MOLECULE
2b4q_NAP_1_ligand
   73    77     1     0     0
SMALL
NO_CHARGES


@<TRIPOS>ATOM
      1 PA        -13.4450   85.9390    5.6860 P.3       1 NAP1901     0.0000 
      2 O1A       -13.7420   87.2820    5.1470 O.co2     1 NAP1901     0.0000 
      3 O2A       -13.0830   85.0300    4.5730 O.co2     1 NAP1901     0.0000 
      4 O5B       -14.7290   85.3820    6.5160 O.3       1 NAP1901     0.0000 
      5 C5B       -15.2670   86.0870    7.6310 C.3       1 NAP1901     0.0000 
      6 C4B       -16.4780   85.4110    8.3100 C.3       1 NAP1901     0.0000 
      7 O4B       -17.4130   86.4240    8.6900 O.3       1 NAP1901     0.0000 
      8 C3B       -17.2640   84.4400    7.4370 C.3       1 NAP1901     0.0000 
      9 O3B       -17.4430   83.1920    8.0900 O.3       1 NAP1901     0.0000 
     10 C2B       -18.5860   85.1620    7.1440 C.3       1 NAP1901     0.0000 
     11 O2B       -19.6960   84.3280    6.8420 O.3       1 NAP1901     0.0000 
     12 C1B       -18.7550   85.9940    8.3980 C.3       1 NAP1901     0.0000 
     13 N9A       -19.7490   87.1050    8.2970 N.pl3     1 NAP1901     0.0000 
     14 C8A       -19.7150   88.2290    7.4850 C.2       1 NAP1901     0.0000 
     15 N7A       -20.8150   88.9840    7.7240 N.2       1 NAP1901     0.0000 
     16 C5A       -21.5540   88.3730    8.6770 C.ar      1 NAP1901     0.0000 
     17 C6A       -22.7780   88.7030    9.3100 C.ar      1 NAP1901     0.0000 
     18 N6A       -23.4350   89.8190    8.9760 N.pl3     1 NAP1901     0.0000 
     19 N1A       -23.3160   87.8450   10.3000 N.ar      1 NAP1901     0.0000 
     20 C2A       -22.6440   86.6630   10.6620 C.ar      1 NAP1901     0.0000 
     21 N3A       -21.4260   86.3430   10.0230 N.ar      1 NAP1901     0.0000 
     22 C4A       -20.8920   87.1820    9.0550 C.ar      1 NAP1901     0.0000 
     23 O3        -12.2710   85.9010    6.8030 O.3       1 NAP1901     0.0000 
     24 PN        -11.4190   87.1450    7.3720 P.3       1 NAP1901     0.0000 
     25 O1N       -11.4230   88.2640    6.4030 O.co2     1 NAP1901     0.0000 
     26 O2N       -10.0930   86.5710    7.7310 O.co2     1 NAP1901     0.0000 
     27 O5D       -12.2200   87.6460    8.6860 O.3       1 NAP1901     0.0000 
     28 C5D       -11.6420   87.5250    9.9630 C.3       1 NAP1901     0.0000 
     29 C4D       -11.8000   88.7580   10.8690 C.3       1 NAP1901     0.0000 
     30 O4D       -10.4960   89.2510   11.1320 O.3       1 NAP1901     0.0000 
     31 C3D       -12.5940   89.9320   10.2680 C.3       1 NAP1901     0.0000 
     32 O3D       -13.3590   90.5140   11.3100 O.3       1 NAP1901     0.0000 
     33 C2D       -11.5380   90.8970    9.7960 C.3       1 NAP1901     0.0000 
     34 O2D       -11.9630   92.2410    9.7930 O.3       1 NAP1901     0.0000 
     35 C1D       -10.3640   90.6120   10.7500 C.3       1 NAP1901     0.0000 
     36 N1N        -8.9920   90.8910   10.2020 N.pl3     1 NAP1901     0.0000 
     37 C2N        -8.4630   90.1600    9.1200 C.ar      1 NAP1901     0.0000 
     38 C3N        -7.1170   90.3120    8.6880 C.ar      1 NAP1901     0.0000 
     39 C7N        -6.6710   89.5150    7.5200 C.2       1 NAP1901     0.0000 
     40 O7N        -5.5140   89.7230    7.2230 O.2       1 NAP1901     0.0000 
     41 N7N        -7.4080   88.6610    6.8690 N.am      1 NAP1901     0.0000 
     42 C4N        -6.3560   91.2740    9.4490 C.ar      1 NAP1901     0.0000 
     43 C5N        -6.8740   92.0090   10.5320 C.ar      1 NAP1901     0.0000 
     44 C6N        -8.2060   91.8030   10.8960 C.ar      1 NAP1901     0.0000 
     45 P2B       -20.3310   84.2560    5.3550 P.3       1 NAP1901     0.0000 
     46 O1X       -19.4010   83.4030    4.4810 O.co2     1 NAP1901     0.0000 
     47 O2X       -21.6840   83.5910    5.4260 O.co2     1 NAP1901     0.0000 
     48 O3X       -20.4920   85.6540    4.7510 O.co2     1 NAP1901     0.0000 
     49 H         -15.5930   87.1169    7.3440 H         1 NAP1901     0.0000 
     50 H         -14.4971   86.2411    8.4265 H         1 NAP1901     0.0000 
     51 H         -16.1357   84.8847    9.1889 H         1 NAP1901     0.0000 
     52 H         -16.7323   84.3525    6.5012 H         1 NAP1901     0.0000 
     53 H         -18.3593   85.8770    6.3405 H         1 NAP1901     0.0000 
     54 H         -19.0671   85.2902    9.1910 H         1 NAP1901     0.0000 
     55 H         -19.0132   88.4255    6.8569 H         1 NAP1901     0.0000 
     56 H         -24.3810   89.6993    8.6746 H         1 NAP1901     0.0000 
     57 H         -22.9214   90.6731    9.0576 H         1 NAP1901     0.0000 
     58 H         -23.0275   86.0472   11.3724 H         1 NAP1901     0.0000 
     59 H         -10.5436   87.3117    9.9026 H         1 NAP1901     0.0000 
     60 H         -12.0658   86.6561   10.5295 H         1 NAP1901     0.0000 
     61 H         -12.2736   88.4566   11.7883 H         1 NAP1901     0.0000 
     62 H         -13.1521   89.5802    9.4625 H         1 NAP1901     0.0000 
     63 H         -11.2136   90.5497    8.8125 H         1 NAP1901     0.0000 
     64 H         -10.5266   91.2450   11.6393 H         1 NAP1901     0.0000 
     65 H          -9.0711   89.4875    8.6186 H         1 NAP1901     0.0000 
     66 H          -6.9544   88.1606    6.1315 H         1 NAP1901     0.0000 
     67 H          -8.3596   88.5843    7.1666 H         1 NAP1901     0.0000 
     68 H          -5.3599   91.4238    9.1672 H         1 NAP1901     0.0000 
     69 H          -6.2907   92.6695   11.0313 H         1 NAP1901     0.0000 
     70 H          -8.6061   92.3319   11.6846 H         1 NAP1901     0.0000 
     71 H         -17.7434   82.5648    7.3714 H         1 NAP1901     0.0000 
     72 H         -14.1390   89.9003   11.4321 H         1 NAP1901     0.0000 
     73 H         -12.8248   92.2409   10.3002 H         1 NAP1901     0.0000 
@<TRIPOS>BOND
     1    2    1 ar   
     2    3    1 ar   
     3    4    1 1    
     4   23    1 1    
     5    5    4 1    
     6    6    5 1    
     7   49    5 1    
     8   50    5 1    
     9    7    6 1    
    10    8    6 1    
    11   51    6 1    
    12   12    7 1    
    13    9    8 1    
    14   10    8 1    
    15   52    8 1    
    16   71    9 1    
    17   11   10 1    
    18   12   10 1    
    19   53   10 1    
    20   45   11 1    
    21   13   12 1    
    22   54   12 1    
    23   14   13 1    
    24   22   13 1    
    25   15   14 2    
    26   55   14 1    
    27   16   15 1    
    28   17   16 ar   
    29   22   16 ar   
    30   18   17 1    
    31   19   17 ar   
    32   56   18 1    
    33   57   18 1    
    34   20   19 ar   
    35   21   20 ar   
    36   58   20 1    
    37   22   21 ar   
    38   24   23 1    
    39   25   24 ar   
    40   26   24 ar   
    41   27   24 1    
    42   28   27 1    
    43   29   28 1    
    44   59   28 1    
    45   60   28 1    
    46   30   29 1    
    47   31   29 1    
    48   61   29 1    
    49   35   30 1    
    50   32   31 1    
    51   33   31 1    
    52   62   31 1    
    53   72   32 1    
    54   34   33 1    
    55   35   33 1    
    56   63   33 1    
    57   73   34 1    
    58   36   35 1    
    59   64   35 1    
    60   37   36 ar   
    61   44   36 ar   
    62   38   37 ar   
    63   65   37 1    
    64   39   38 1    
    65   42   38 ar   
    66   40   39 2    
    67   41   39 am   
    68   66   41 1    
    69   67   41 1    
    70   43   42 ar   
    71   68   42 1    
    72   44   43 ar   
    73   69   43 1    
    74   70   44 1    
    75   46   45 ar   
    76   47   45 ar   
    77   48   45 ar   
@<TRIPOS>SUBSTRUCTURE
     1 NAP1901     1 GROUP   
@<TRIPOS>SET

