#    Name: 2v59_LZK_1_INTS_M
#    Modification time : Tue Mar 25 01:01:49 2014

@<TRIPOS>MOLECULE
2v59_LZK_1_INTS_M
   51     0     9     0     0
SMALL
NO_CHARGES


@<TRIPOS>ATOM
      1 O           2.8015  -28.4420   23.8875 O.2       1 ALC1        0.0000 
      2 O           1.7550  -27.6250   24.7720 O.2       7 ALL1        0.0000 
      3 O           3.8480  -29.2590   23.0030 O.2       4 ALP1        0.0000 
      4 O           0.4985  -28.2175   25.1040 O.2       1 ALC1        0.0000 
      5 O          -0.7580  -28.8100   25.4360 O.2       4 ALP1        0.0000 
      6 CA          1.1835  -26.7805   23.1145 C.3       3 GLC5        0.0000 
      7 CA          2.0570  -26.3060   24.8230 C.3       9 GLL5        0.0000 
      8 CA          0.3100  -27.2550   21.4060 C.3       6 GLP5        0.0000 
      9 CA          3.1570  -26.4990   22.9255 C.3       3 GLC5        0.0000 
     10 CA          4.2570  -26.6920   21.0280 C.3       6 GLP5        0.0000 
     11 CA         -0.1780  -26.5080   24.8675 C.3       3 GLC5        0.0000 
     12 CA         -2.4130  -26.7100   24.9120 C.3       6 GLP5        0.0000 
     13 CA          1.1185  -25.9935   26.8410 C.3       3 GLC5        0.0000 
     14 CA          0.1800  -25.6810   28.8590 C.3       6 GLP5        0.0000 
     15 CA          3.1040  -26.0630   26.1475 C.3       3 GLC5        0.0000 
     16 CA          4.1510  -25.8200   27.4720 C.3       6 GLP5        0.0000 
     17 N           4.1830  -26.4180   23.1780 N.am      2 SEC2        0.0000 
     18 N           3.1760  -25.8710   24.2040 N.am      8 SEL2        0.0000 
     19 N           5.1900  -26.9650   22.1520 N.am      5 SEP2        0.0000 
     20 N          -0.0245  -25.6605   26.1920 N.am      2 SEC2        0.0000 
     21 N           1.2530  -25.4350   25.4900 N.am      8 SEL2        0.0000 
     22 N          -1.3020  -25.8860   26.8940 N.am      5 SEP2        0.0000 
     23 CA          0.8655  -24.9030   27.2050 C.3       3 GLC5        0.0000 
     24 CA          1.5510  -24.1250   25.5510 C.3       9 GLL5        0.0000 
     25 CA          3.8865  -25.6290   22.6340 C.3       3 GLC5        0.0000 
     26 CA          3.5160  -24.5660   24.2400 C.3       9 GLL5        0.0000 
     27 CA          4.5010  -22.5520   21.4955 C.3       3 GLC5        0.0000 
     28 CA          5.0080  -22.8470   23.6290 C.3       9 GLL5        0.0000 
     29 CA          3.9940  -22.2570   19.3620 C.3       6 GLP5        0.0000 
     30 CA          8.9645  -20.7900   27.2355 C.3       3 GLC5        0.0000 
     31 CA          8.0100  -20.7950   25.6930 C.3       9 GLL5        0.0000 
     32 CA          9.9190  -20.7850   28.7780 C.3       6 GLP5        0.0000 
     33 CA          8.2560  -23.0235   25.5720 C.3       3 GLC5        0.0000 
     34 CA          8.5020  -25.2520   25.4510 C.3       6 GLP5        0.0000 
     35 CA          6.4795  -16.3135   25.5290 C.3       3 GLC5        0.0000 
     36 CA          5.3220  -17.7690   24.3230 C.3       9 GLL5        0.0000 
     37 CA          7.6370  -14.8580   26.7350 C.3       6 GLP5        0.0000 
     38 CA          6.2090  -17.4865   22.3885 C.3       3 GLC5        0.0000 
     39 CA          7.0960  -17.2040   20.4540 C.3       6 GLP5        0.0000 
     40 CA          3.4861  -25.0245   26.1046 C.3       3 GLC5        0.0000 
     41 CA          2.7020  -23.6590   24.9180 C.3       9 GLL5        0.0000 
     42 CA          4.6260  -22.9743   26.3223 C.3       3 GLC5        0.0000 
     43 CA          3.0590  -22.3150   24.9540 C.3       9 GLL5        0.0000 
     44 CA          5.6090  -23.8380   28.0160 C.3       6 GLP5        0.0000 
     45 CA          3.4545  -20.6702   26.0162 C.3       3 GLC5        0.0000 
     46 CA          3.2660  -19.2300   27.4040 C.3       6 GLP5        0.0000 
     47 CA          4.2385  -19.7462   26.0108 C.3       3 GLC5        0.0000 
     48 CA          4.6160  -20.4660   24.3160 C.3       9 GLL5        0.0000 
     49 CA          3.6102  -19.0427   25.5590 C.3       3 GLC5        0.0000 
     50 CA          3.7760  -19.5320   23.7100 C.3       9 GLL5        0.0000 
     51 CA          4.5035  -18.7338   26.0140 C.3       3 GLC5        0.0000 
@<TRIPOS>BOND
@<TRIPOS>SUBSTRUCTURE
     1 ALC1        1 GROUP        1 X    ALC  0     ROOT ALC X 1
     2 SEC2       17 GROUP        1 X    SEC  0     **** SEC X 2
     3 GLC5        6 GROUP        1 X    GLC  0     **** GLC X 6
     4 ALP1        3 GROUP        1 Y    ALP  0     ROOT ALP Y 8
     5 SEP2       19 GROUP        1 Y    SEP  0     **** SEP Y 9
     6 GLP5        8 GROUP        1 Y    GLP  0     **** GLP Y 13
     7 ALL1        2 GROUP        1 Z    ALL  0     ROOT ALL Z 15
     8 SEL2       18 GROUP        1 Z    SEL  0     **** SEL Z 16
     9 GLL5        7 GROUP        1 Z    GLL  0     **** GLL Z 20
@<TRIPOS>SET

