#    Name: 2v59_LZK_1_ligand
#    Modification time : Tue Mar 25 01:01:49 2014

@<TRIPOS>MOLECULE
2v59_LZK_1_ligand
   37    39     1     0     0
SMALL
NO_CHARGES


@<TRIPOS>ATOM
      1 N20         1.7550  -27.6250   24.7720 N.pl3     1 LZK1446     0.0000 
      2 C19         2.0570  -26.3060   24.8230 C.ar      1 LZK1446     0.0000 
      3 N17         3.1760  -25.8710   24.2040 N.ar      1 LZK1446     0.0000 
      4 N18         1.2530  -25.4350   25.4900 N.ar      1 LZK1446     0.0000 
      5 C16         1.5510  -24.1250   25.5510 C.ar      1 LZK1446     0.0000 
      6 C11         2.7020  -23.6590   24.9180 C.ar      1 LZK1446     0.0000 
      7 C15         3.5160  -24.5660   24.2400 C.ar      1 LZK1446     0.0000 
      8 N12         4.6420  -24.1490   23.6170 N.ar      1 LZK1446     0.0000 
      9 C6          5.0080  -22.8470   23.6290 C.ar      1 LZK1446     0.0000 
     10 N13         6.1470  -22.4920   22.9830 N.pl3     1 LZK1446     0.0000 
     11 C5          3.0590  -22.3150   24.9540 C.ar      1 LZK1446     0.0000 
     12 C2          4.2270  -21.9060   24.3030 C.ar      1 LZK1446     0.0000 
     13 C1          4.6160  -20.4660   24.3160 C.ar      1 LZK1446     0.0000 
     14 C4          5.8060  -20.0590   24.9190 C.ar      1 LZK1446     0.0000 
     15 O1          6.6120  -20.9990   25.5160 O.3       1 LZK1446     0.0000 
     16 C45         8.0100  -20.7950   25.6930 C.3       1 LZK1446     0.0000 
     17 C3          3.7760  -19.5320   23.7100 C.ar      1 LZK1446     0.0000 
     18 O7          2.6070  -19.9620   23.1190 O.3       1 LZK1446     0.0000 
     19 C43         1.5660  -19.0770   22.6980 C.3       1 LZK1446     0.0000 
     20 C7          4.1330  -18.1790   23.7180 C.ar      1 LZK1446     0.0000 
     21 C14         5.3220  -17.7690   24.3230 C.ar      1 LZK1446     0.0000 
     22 C9          6.1600  -18.7060   24.9250 C.ar      1 LZK1446     0.0000 
     23 H           2.3935  -28.2033   24.2641 H         1 LZK1446     0.0000 
     24 H           0.9203  -27.9040   25.2468 H         1 LZK1446     0.0000 
     25 H           0.9503  -23.4560   26.0538 H         1 LZK1446     0.0000 
     26 H           6.3801  -21.5198   23.0041 H         1 LZK1446     0.0000 
     27 H           6.6527  -23.2340   22.5428 H         1 LZK1446     0.0000 
     28 H           2.4797  -21.6355   25.4470 H         1 LZK1446     0.0000 
     29 H           3.5161  -17.4857   23.2762 H         1 LZK1446     0.0000 
     30 H           5.5794  -16.7740   24.3242 H         1 LZK1446     0.0000 
     31 H           7.0327  -18.4068   25.3709 H         1 LZK1446     0.0000 
     32 H           8.4449  -21.5743   26.1442 H         1 LZK1446     0.0000 
     33 H           8.4794  -20.6624   24.8200 H         1 LZK1446     0.0000 
     34 H           8.1997  -19.9887   26.2533 H         1 LZK1446     0.0000 
     35 H           1.8891  -18.4217   22.0152 H         1 LZK1446     0.0000 
     36 H           0.7999  -19.5727   22.2889 H         1 LZK1446     0.0000 
     37 H           1.1977  -18.5469   23.4618 H         1 LZK1446     0.0000 
@<TRIPOS>BOND
     1    2    1 1    
     2   23    1 1    
     3   24    1 1    
     4    3    2 ar   
     5    4    2 ar   
     6    7    3 ar   
     7    5    4 ar   
     8    6    5 ar   
     9   25    5 1    
    10    7    6 ar   
    11   11    6 ar   
    12    8    7 ar   
    13    9    8 ar   
    14   10    9 1    
    15   12    9 ar   
    16   26   10 1    
    17   27   10 1    
    18   12   11 ar   
    19   28   11 1    
    20   13   12 1    
    21   14   13 ar   
    22   17   13 ar   
    23   15   14 1    
    24   22   14 ar   
    25   16   15 1    
    26   32   16 1    
    27   33   16 1    
    28   34   16 1    
    29   18   17 1    
    30   20   17 ar   
    31   19   18 1    
    32   35   19 1    
    33   36   19 1    
    34   37   19 1    
    35   21   20 ar   
    36   29   20 1    
    37   22   21 ar   
    38   30   21 1    
    39   31   22 1    
@<TRIPOS>SUBSTRUCTURE
     1 LZK1446     1 GROUP   
@<TRIPOS>SET

