#    Name: 2w6p_OA4_1_INTS_M
#    Modification time : Tue Mar 25 03:43:22 2014

@<TRIPOS>MOLECULE
2w6p_OA4_1_INTS_M
   53     0     9     0     0
SMALL
NO_CHARGES


@<TRIPOS>ATOM
      1 CA          0.8925  -25.1180   27.5565 C.3       3 GLC5        0.0000 
      2 CA          1.9130  -24.3210   25.7360 C.3       9 GLL5        0.0000 
      3 CA         -0.1280  -25.9150   29.3770 C.3       6 GLP5        0.0000 
      4 N           0.0550  -25.8905   26.3665 N.am      2 SEC2        0.0000 
      5 N           1.5130  -25.5850   25.4710 N.am      8 SEL2        0.0000 
      6 N          -1.4030  -26.1960   27.2620 N.am      5 SEP2        0.0000 
      7 CA          1.1435  -26.9155   23.1945 C.3       3 GLC5        0.0000 
      8 CA          2.2700  -26.4180   24.7280 C.3       9 GLL5        0.0000 
      9 CA          0.0170  -27.4130   21.6610 C.3       6 GLP5        0.0000 
     10 CA          3.1000  -26.8160   22.9660 C.3       3 GLC5        0.0000 
     11 CA          3.9300  -27.2140   21.2040 C.3       6 GLP5        0.0000 
     12 CA          3.1785  -26.3285   26.1980 C.3       3 GLC5        0.0000 
     13 CA          4.0870  -26.2390   27.6680 C.3       6 GLP5        0.0000 
     14 N           4.1385  -26.7480   23.2925 N.am      2 SEC2        0.0000 
     15 N           3.4480  -26.0070   24.2230 N.am      8 SEL2        0.0000 
     16 N           4.8290  -27.4890   22.3620 N.am      5 SEP2        0.0000 
     17 CA          4.8610  -24.0610   21.7575 C.3       3 GLC5        0.0000 
     18 CA          5.1270  -24.4250   23.9150 C.3       9 GLL5        0.0000 
     19 CA          4.5950  -23.6970   19.6000 C.3       6 GLP5        0.0000 
     20 CA          4.6070  -25.3320   25.7915 C.3       3 GLC5        0.0000 
     21 O           2.8180  -28.7225   23.9135 O.2       1 ALC1        0.0000 
     22 O           1.8390  -27.6700   24.4780 O.2       7 ALL1        0.0000 
     23 O           3.7970  -29.7750   23.3490 O.2       4 ALP1        0.0000 
     24 O           0.6290  -28.3150   24.9165 O.2       1 ALC1        0.0000 
     25 O          -0.5810  -28.9600   25.3550 O.2       4 ALP1        0.0000 
     26 CA          9.2190  -20.1250   26.8430 C.3       3 GLC5        0.0000 
     27 CA          7.6540  -19.7410   25.7260 C.3       9 GLL5        0.0000 
     28 CA         10.7840  -20.5090   27.9600 C.3       6 GLP5        0.0000 
     29 CA          7.3830  -16.7900   26.2165 C.3       3 GLC5        0.0000 
     30 CA          7.0590  -18.5320   25.3870 C.3       9 GLL5        0.0000 
     31 CA          7.7070  -15.0480   27.0460 C.3       6 GLP5        0.0000 
     32 CA          2.5715  -22.1380   28.1165 C.3       3 GLC5        0.0000 
     33 CA          2.9910  -21.5090   26.2790 C.3       9 GLL5        0.0000 
     34 CA          2.1520  -22.7670   29.9540 C.3       6 GLP5        0.0000 
     35 CA          2.8025  -19.8885   26.8755 C.3       3 GLC5        0.0000 
     36 CA          2.6140  -18.2680   27.4720 C.3       6 GLP5        0.0000 
     37 CA          8.3975  -20.9965   27.1595 C.3       3 GLC5        0.0000 
     38 CA          6.9440  -20.9270   25.5530 C.3       9 GLL5        0.0000 
     39 CA          9.8510  -21.0660   28.7660 C.3       6 GLP5        0.0000 
     40 CA          4.2213  -25.9027   22.6965 C.3       3 GLC5        0.0000 
     41 CA          3.4040  -25.2755   26.4809 C.3       3 GLC5        0.0000 
     42 CA          3.8980  -24.7580   24.4630 C.3       9 GLL5        0.0000 
     43 CA          6.8683  -24.6855   24.8032 C.3       3 GLC5        0.0000 
     44 CA          8.3480  -25.5760   25.5870 C.3       6 GLP5        0.0000 
     45 CA          5.4588  -23.5053   26.3620 C.3       3 GLC5        0.0000 
     46 CA          5.6500  -23.1650   24.1240 C.3       9 GLL5        0.0000 
     47 CA          5.6170  -24.3150   28.2210 C.3       6 GLP5        0.0000 
     48 CA          4.4832  -23.1730   27.0437 C.3       3 GLC5        0.0000 
     49 CA          3.7080  -22.5530   25.4540 C.3       9 GLL5        0.0000 
     50 CA          6.8625  -18.1463   23.1623 C.3       3 GLC5        0.0000 
     51 CA          5.7630  -18.5070   24.8820 C.3       9 GLL5        0.0000 
     52 CA          7.3140  -17.7730   21.1900 C.3       6 GLP5        0.0000 
     53 CA          4.0105  -18.6843   26.1333 C.3       3 GLC5        0.0000 
@<TRIPOS>BOND
@<TRIPOS>SUBSTRUCTURE
     1 ALC1       21 GROUP        1 X    ALC  0     ROOT ALC X 1
     2 SEC2        4 GROUP        1 X    SEC  0     **** SEC X 2
     3 GLC5        1 GROUP        1 X    GLC  0     **** GLC X 6
     4 ALP1       23 GROUP        1 Y    ALP  0     ROOT ALP Y 8
     5 SEP2        6 GROUP        1 Y    SEP  0     **** SEP Y 9
     6 GLP5        3 GROUP        1 Y    GLP  0     **** GLP Y 13
     7 ALL1       22 GROUP        1 Z    ALL  0     ROOT ALL Z 15
     8 SEL2        5 GROUP        1 Z    SEL  0     **** SEL Z 16
     9 GLL5        2 GROUP        1 Z    GLL  0     **** GLL Z 20
@<TRIPOS>SET

