#    Name: 2w6p_OA4_1_ligand
#    Modification time : Tue Mar 25 03:43:23 2014

@<TRIPOS>MOLECULE
2w6p_OA4_1_ligand
   32    34     1     0     0
SMALL
NO_CHARGES


@<TRIPOS>ATOM
      1 C1          3.8980  -24.7580   24.4630 C.ar      1 OA41447     0.0000 
      2 C2          3.1600  -23.8480   25.2400 C.ar      1 OA41447     0.0000 
      3 C3          1.9130  -24.3210   25.7360 C.ar      1 OA41447     0.0000 
      4 N4          1.5130  -25.5850   25.4710 N.ar      1 OA41447     0.0000 
      5 C5          2.2700  -26.4180   24.7280 C.ar      1 OA41447     0.0000 
      6 N6          3.4480  -26.0070   24.2230 N.ar      1 OA41447     0.0000 
      7 N7          1.0210  -23.6410   26.4960 N.pl3     1 OA41447     0.0000 
      8 C8          5.1270  -24.4250   23.9150 C.ar      1 OA41447     0.0000 
      9 C9          5.6500  -23.1650   24.1240 C.ar      1 OA41447     0.0000 
     10 C12         4.9510  -22.2260   24.8820 C.ar      1 OA41447     0.0000 
     11 C13         3.7080  -22.5530   25.4540 C.ar      1 OA41447     0.0000 
     12 N14         1.8390  -27.6700   24.4780 N.pl3     1 OA41447     0.0000 
     13 C26         7.6540  -19.7410   25.7260 C.ar      1 OA41447     0.0000 
     14 C27         7.0590  -18.5320   25.3870 C.ar      1 OA41447     0.0000 
     15 C10         2.9910  -21.5090   26.2790 C.3       1 OA41447     0.0000 
     16 C22         5.7630  -18.5070   24.8820 C.ar      1 OA41447     0.0000 
     17 C23         5.0510  -19.6940   24.7070 C.ar      1 OA41447     0.0000 
     18 CAP         5.6390  -20.9100   25.0510 C.ar      1 OA41447     0.0000 
     19 C25         6.9440  -20.9270   25.5530 C.ar      1 OA41447     0.0000 
     20 H           5.6447  -25.1157   23.3556 H         1 OA41447     0.0000 
     21 H           6.5649  -22.9095   23.7190 H         1 OA41447     0.0000 
     22 H           0.9368  -27.9052   24.8395 H         1 OA41447     0.0000 
     23 H           2.4597  -28.2525   23.9532 H         1 OA41447     0.0000 
     24 H           8.6074  -19.7618   26.1004 H         1 OA41447     0.0000 
     25 H           7.5784  -17.6513   25.5097 H         1 OA41447     0.0000 
     26 H           5.3250  -17.6079   24.6353 H         1 OA41447     0.0000 
     27 H           4.0992  -19.6713   24.3269 H         1 OA41447     0.0000 
     28 H           7.3831  -21.8276   25.7969 H         1 OA41447     0.0000 
     29 H           2.8393  -21.8175   27.2181 H         1 OA41447     0.0000 
     30 H           3.5101  -20.6559   26.3310 H         1 OA41447     0.0000 
     31 H           2.0950  -21.2840   25.8961 H         1 OA41447     0.0000 
     32 H           0.3319  -24.3182   26.7543 H         1 OA41447     0.0000 
@<TRIPOS>BOND
     1    2    1 ar   
     2    6    1 ar   
     3    8    1 ar   
     4    3    2 ar   
     5   11    2 ar   
     6    4    3 ar   
     7    7    3 1    
     8    5    4 ar   
     9    6    5 ar   
    10   12    5 1    
    11   32    7 1    
    12    9    8 ar   
    13   20    8 1    
    14   10    9 ar   
    15   21    9 1    
    16   11   10 ar   
    17   18   10 1    
    18   15   11 1    
    19   22   12 1    
    20   23   12 1    
    21   14   13 ar   
    22   19   13 ar   
    23   24   13 1    
    24   16   14 ar   
    25   25   14 1    
    26   29   15 1    
    27   30   15 1    
    28   31   15 1    
    29   17   16 ar   
    30   26   16 1    
    31   18   17 ar   
    32   27   17 1    
    33   19   18 ar   
    34   28   19 1    
@<TRIPOS>SUBSTRUCTURE
     1 OA41447     1 GROUP   
@<TRIPOS>SET

