#    Name: 4dna_FAD_2_INTS_M
#    Modification time : Tue Mar 25 09:58:54 2014

@<TRIPOS>MOLECULE
4dna_FAD_2_INTS_M
  123     0     9     0     0
SMALL
NO_CHARGES


@<TRIPOS>ATOM
      1 N         -24.2045   -0.3760   15.3355 N.am      2 SEC2        0.0000 
      2 N         -23.6090   -1.6810   15.3300 N.am      8 SEL2        0.0000 
      3 N         -24.8000    0.9290   15.3410 N.am      5 SEP2        0.0000 
      4 N         -20.6155   -2.2905   18.2440 N.am      2 SEC2        0.0000 
      5 N         -22.0690   -1.7810   17.4510 N.am      8 SEL2        0.0000 
      6 N         -19.1620   -2.8000   19.0370 N.am      5 SEP2        0.0000 
      7 N         -22.0720   -0.2000   16.8470 N.am      2 SEC2        0.0000 
      8 N         -22.0750    1.3810   16.2430 N.am      5 SEP2        0.0000 
      9 CA        -22.0855   -5.1525   13.1160 C.3       3 GLC5        0.0000 
     10 CA        -21.5720   -3.2970   13.9350 C.3       9 GLL5        0.0000 
     11 CA        -22.5990   -7.0080   12.2970 C.3       6 GLP5        0.0000 
     12 CA        -23.4525   -4.2450   14.0700 C.3       3 GLC5        0.0000 
     13 CA        -25.3330   -5.1930   14.2050 C.3       6 GLP5        0.0000 
     14 O         -19.0505   -0.8585   12.4395 O.2       1 ALC1        0.0000 
     15 O         -20.4780   -0.1550   12.7090 O.2       7 ALL1        0.0000 
     16 O         -17.6230   -1.5620   12.1700 O.2       4 ALP1        0.0000 
     17 O         -19.3020   -0.1995   11.5930 O.2       1 ALC1        0.0000 
     18 O         -18.1260   -0.2440   10.4770 O.2       4 ALP1        0.0000 
     19 O         -19.4460   -0.3335   10.3285 O.2       1 ALC1        0.0000 
     20 O         -20.7660   -0.4230   10.1800 O.2       7 ALL1        0.0000 
     21 CA        -19.2650   -4.2085   11.4505 C.3       3 GLC5        0.0000 
     22 CA        -20.2510   -2.7020   10.7260 C.3       9 GLL5        0.0000 
     23 CA        -18.2790   -5.7150   12.1750 C.3       6 GLP5        0.0000 
     24 CA        -18.7150   -5.1780    5.4425 C.3       3 GLC5        0.0000 
     25 CA        -19.9010   -5.9160    6.9800 C.3       9 GLL5        0.0000 
     26 CA        -17.5290   -4.4400    3.9050 C.3       6 GLP5        0.0000 
     27 O         -19.8865   -7.8035    5.5520 O.2       1 ALC1        0.0000 
     28 O         -20.5930   -6.7280    6.1430 O.2       7 ALL1        0.0000 
     29 O         -19.1800   -8.8790    4.9610 O.2       4 ALP1        0.0000 
     30 N         -18.0120   -6.2990    5.7145 N.am      2 SEC2        0.0000 
     31 N         -18.5510   -5.8070    6.9350 N.am      8 SEL2        0.0000 
     32 N         -17.4730   -6.7910    4.4940 N.am      5 SEP2        0.0000 
     33 CA        -18.3195   -6.9235    8.2830 C.3       3 GLC5        0.0000 
     34 CA        -17.8550   -5.0060    7.7610 C.3       9 GLL5        0.0000 
     35 CA        -18.7840   -8.8410    8.8050 C.3       6 GLP5        0.0000 
     36 CA        -18.0670   -5.3605    9.9680 C.3       3 GLC5        0.0000 
     37 CA        -15.8855   -5.8075    7.7300 C.3       3 GLC5        0.0000 
     38 CA        -13.9160   -6.6090    7.6990 C.3       6 GLP5        0.0000 
     39 CA        -16.7285   -3.8920    8.5440 C.3       3 GLC5        0.0000 
     40 CA        -15.6020   -2.7780    9.3270 C.3       6 GLP5        0.0000 
     41 CA        -18.2725   -3.3295    6.8065 C.3       3 GLC5        0.0000 
     42 CA        -18.6900   -1.6530    5.8520 C.3       6 GLP5        0.0000 
     43 CA        -17.6920   -4.7230    5.8330 C.3       3 GLC5        0.0000 
     44 N         -17.7715   -2.9905    8.2165 N.am      2 SEC2        0.0000 
     45 N         -18.4450   -4.2490    8.6910 N.am      8 SEL2        0.0000 
     46 N         -17.0980   -1.7320    7.7420 N.am      5 SEP2        0.0000 
     47 CA        -19.0355   -4.9900   10.5135 C.3       3 GLC5        0.0000 
     48 CA        -19.7920   -4.2650    8.8520 C.3       9 GLL5        0.0000 
     49 CA        -17.6970   -3.5215    9.0895 C.3       3 GLC5        0.0000 
     50 N         -25.9670   -1.2880   25.1395 N.am      2 SEC2        0.0000 
     51 N         -26.5280   -0.1960   25.8780 N.am      8 SEL2        0.0000 
     52 N         -25.4060   -2.3800   24.4010 N.am      5 SEP2        0.0000 
     53 O         -26.8440    2.3125   27.1010 O.2       1 ALC1        0.0000 
     54 O         -27.2750    1.9320   25.8410 O.2       7 ALL1        0.0000 
     55 O         -26.4130    2.6930   28.3610 O.2       4 ALP1        0.0000 
     56 N         -28.7955    5.1525   25.2930 N.am      2 SEC2        0.0000 
     57 N         -28.0020    4.0640   25.8740 N.am      8 SEL2        0.0000 
     58 N         -29.5890    6.2410   24.7120 N.am      5 SEP2        0.0000 
     59 N         -29.0395    5.1075   23.8780 N.am      2 SEC2        0.0000 
     60 N         -28.4900    3.9740   23.0440 N.am      8 SEL2        0.0000 
     61 CA        -26.9660    4.8235   22.5495 C.3       3 GLC5        0.0000 
     62 CA        -28.7020    3.8750   21.7110 C.3       9 GLL5        0.0000 
     63 CA        -25.2300    5.7720   23.3880 C.3       6 GLP5        0.0000 
     64 CA        -29.1315    6.8765   22.1630 C.3       3 GLC5        0.0000 
     65 CA        -29.2060    4.9740   21.0090 C.3       9 GLL5        0.0000 
     66 CA        -29.0570    8.7790   23.3170 C.3       6 GLP5        0.0000 
     67 CA        -30.3620    6.5705   17.0865 C.3       3 GLC5        0.0000 
     68 CA        -29.9810    6.1030   18.9060 C.3       9 GLL5        0.0000 
     69 CA        -30.7430    7.0380   15.2670 C.3       6 GLP5        0.0000 
     70 CA        -30.9695    7.8640   18.7975 C.3       3 GLC5        0.0000 
     71 CA        -31.9580    9.6250   18.6890 C.3       6 GLP5        0.0000 
     72 CA        -30.0415    5.2740   16.3530 C.3       3 GLC5        0.0000 
     73 CA        -29.3400    3.5100   17.4390 C.3       9 GLL5        0.0000 
     74 CA        -30.5680    1.9330   16.9015 C.3       3 GLC5        0.0000 
     75 CA        -31.7960    0.3560   16.3640 C.3       6 GLP5        0.0000 
     76 CA        -24.3055    0.9645   21.1480 C.3       3 GLC5        0.0000 
     77 CA        -26.1040   -0.0930   20.8610 C.3       9 GLL5        0.0000 
     78 CA        -22.5070    2.0220   21.4350 C.3       6 GLP5        0.0000 
     79 CA        -25.3490    1.4725   22.1505 C.3       3 GLC5        0.0000 
     80 CA        -24.5940    3.0380   23.4400 C.3       6 GLP5        0.0000 
     81 O         -27.2530   -3.5410   20.2015 O.2       1 ALC1        0.0000 
     82 O         -26.9460   -2.3560   20.8670 O.2       7 ALL1        0.0000 
     83 O         -27.5600   -4.7260   19.5360 O.2       4 ALP1        0.0000 
     84 O         -27.2185   -2.7655   19.4185 O.2       1 ALC1        0.0000 
     85 O         -27.4910   -3.1750   17.9700 O.2       4 ALP1        0.0000 
     86 CA        -24.2710   -2.2730   22.2875 C.3       3 GLC5        0.0000 
     87 CA        -24.5920   -2.0380   20.2510 C.3       9 GLL5        0.0000 
     88 CA        -23.9500   -2.5080   24.3240 C.3       6 GLP5        0.0000 
     89 CA        -23.5085   -4.8960   20.7835 C.3       3 GLC5        0.0000 
     90 CA        -24.5820   -3.4290   19.6440 C.3       9 GLL5        0.0000 
     91 CA        -22.4350   -6.3630   21.9230 C.3       6 GLP5        0.0000 
     92 N         -20.3150   -5.0635   19.0405 N.am      2 SEC2        0.0000 
     93 N         -21.3420   -4.5490   18.0440 N.am      8 SEL2        0.0000 
     94 N         -19.2880   -5.5780   20.0370 N.am      5 SEP2        0.0000 
     95 N         -25.0670   -6.4995   18.1035 N.am      2 SEC2        0.0000 
     96 N         -23.6240   -5.8780   17.9390 N.am      8 SEL2        0.0000 
     97 N         -26.5100   -7.1210   18.2680 N.am      5 SEP2        0.0000 
     98 CA        -19.6845   -4.3160   12.8308 C.3       3 GLC5        0.0000 
     99 CA        -19.8555   -2.7130   15.0998 C.3       3 GLC5        0.0000 
    100 CA        -20.6080   -2.5370   13.0380 C.3       9 GLL5        0.0000 
    101 CA        -18.6210   -2.5090   16.7130 C.3       6 GLP5        0.0000 
    102 CA        -20.3425   -0.5713   14.3135 C.3       3 GLC5        0.0000 
    103 CA        -19.7530    0.7840   15.9060 C.3       6 GLP5        0.0000 
    104 CA        -20.3700   -1.7893    8.7125 C.3       3 GLC5        0.0000 
    105 CA        -21.2330   -1.5630   10.9100 C.3       9 GLL5        0.0000 
    106 CA        -19.9980   -1.4460    6.6070 C.3       6 GLP5        0.0000 
    107 CA        -19.5210   -7.1785    8.1442 C.3       3 GLC5        0.0000 
    108 CA        -20.6150   -5.1160    7.9870 C.3       9 GLL5        0.0000 
    109 CA        -20.0115   -3.1682    7.3874 C.3       3 GLC5        0.0000 
    110 CA        -20.9385   -6.3422    9.0934 C.3       3 GLC5        0.0000 
    111 CA        -21.8520   -7.7940   10.0190 C.3       6 GLP5        0.0000 
    112 CA        -27.7425    5.4982   19.4528 C.3       3 GLC5        0.0000 
    113 CA        -29.4330    4.9060   19.6350 C.3       9 GLL5        0.0000 
    114 CA        -25.7780    5.4920   19.6350 C.3       6 GLP5        0.0000 
    115 CA        -31.4106    4.9588   19.7610 C.3       3 GLC5        0.0000 
    116 CA        -33.1710    4.3960   19.9080 C.3       6 GLP5        0.0000 
    117 CA        -31.1360    3.4100   18.5563 C.3       3 GLC5        0.0000 
    118 CA        -29.1200    3.6360   18.9180 C.3       9 GLL5        0.0000 
    119 CA        -33.0420    3.2470   18.9340 C.3       6 GLP5        0.0000 
    120 CA        -27.3188    2.7677   17.9291 C.3       3 GLC5        0.0000 
    121 CA        -25.7150    2.4790   16.9600 C.3       6 GLP5        0.0000 
    122 CA        -27.2739    4.3968   19.9288 C.3       3 GLC5        0.0000 
    123 CA        -28.3900    2.6060   20.9940 C.3       9 GLL5        0.0000 
@<TRIPOS>BOND
@<TRIPOS>SUBSTRUCTURE
     1 ALC1       14 GROUP        1 X    ALC  0     ROOT ALC X 1
     2 SEC2        1 GROUP        1 X    SEC  0     **** SEC X 2
     3 GLC5        9 GROUP        1 X    GLC  0     **** GLC X 6
     4 ALP1       16 GROUP        1 Y    ALP  0     ROOT ALP Y 8
     5 SEP2        3 GROUP        1 Y    SEP  0     **** SEP Y 9
     6 GLP5       11 GROUP        1 Y    GLP  0     **** GLP Y 13
     7 ALL1       15 GROUP        1 Z    ALL  0     ROOT ALL Z 15
     8 SEL2        2 GROUP        1 Z    SEL  0     **** SEL Z 16
     9 GLL5       10 GROUP        1 Z    GLL  0     **** GLL Z 20
@<TRIPOS>SET

