#    Name: 4dna_FAD_2_ligand
#    Modification time : Tue Mar 25 09:58:54 2014

@<TRIPOS>MOLECULE
4dna_FAD_2_ligand
   84    89     1     0     0
SMALL
NO_CHARGES


@<TRIPOS>ATOM
      1 PA        -22.6230   -2.4260   16.1930 P.3       1 FAD500      0.0000 
      2 O1A       -23.6090   -1.6810   15.3300 O.co2     1 FAD500      0.0000 
      3 O2A       -22.0690   -1.7810   17.4510 O.co2     1 FAD500      0.0000 
      4 O5B       -21.3860   -2.9520   15.2970 O.3       1 FAD500      0.0000 
      5 C5B       -21.5720   -3.2970   13.9350 C.3       1 FAD500      0.0000 
      6 C4B       -20.6080   -2.5370   13.0380 C.3       1 FAD500      0.0000 
      7 O4B       -20.2140   -3.4010   11.9680 O.3       1 FAD500      0.0000 
      8 C3B       -21.2560   -1.3160   12.4040 C.3       1 FAD500      0.0000 
      9 O3B       -20.4780   -0.1550   12.7090 O.3       1 FAD500      0.0000 
     10 C2B       -21.2330   -1.5630   10.9100 C.3       1 FAD500      0.0000 
     11 O2B       -20.7660   -0.4230   10.1800 O.3       1 FAD500      0.0000 
     12 C1B       -20.2510   -2.7020   10.7260 C.3       1 FAD500      0.0000 
     13 N9A       -20.6510   -3.6500    9.6650 N.pl3     1 FAD500      0.0000 
     14 C8A       -21.9060   -4.0580    9.3730 C.2       1 FAD500      0.0000 
     15 N7A       -21.8970   -4.9450    8.3490 N.2       1 FAD500      0.0000 
     16 C5A       -20.6150   -5.1160    7.9870 C.ar      1 FAD500      0.0000 
     17 C6A       -19.9010   -5.9160    6.9800 C.ar      1 FAD500      0.0000 
     18 N6A       -20.5930   -6.7280    6.1430 N.pl3     1 FAD500      0.0000 
     19 N1A       -18.5510   -5.8070    6.9350 N.ar      1 FAD500      0.0000 
     20 C2A       -17.8550   -5.0060    7.7610 C.ar      1 FAD500      0.0000 
     21 N3A       -18.4450   -4.2490    8.6910 N.ar      1 FAD500      0.0000 
     22 C4A       -19.7920   -4.2650    8.8520 C.ar      1 FAD500      0.0000 
     23 N1        -27.1740    0.6250   23.8630 N.2       1 FAD500      0.0000 
     24 C2        -26.9840    0.7700   25.2040 C.2       1 FAD500      0.0000 
     25 O2        -26.5280   -0.1960   25.8780 O.2       1 FAD500      0.0000 
     26 N3        -27.2750    1.9320   25.8410 N.am      1 FAD500      0.0000 
     27 C4        -27.7590    3.0220   25.2240 C.2       1 FAD500      0.0000 
     28 O4        -28.0020    4.0640   25.8740 O.2       1 FAD500      0.0000 
     29 C4X       -27.9950    2.9350   23.7610 C.2       1 FAD500      0.0000 
     30 N5        -28.4900    3.9740   23.0440 N.2       1 FAD500      0.0000 
     31 C5X       -28.7020    3.8750   21.7110 C.ar      1 FAD500      0.0000 
     32 C6        -29.2060    4.9740   21.0090 C.ar      1 FAD500      0.0000 
     33 C7        -29.4330    4.9060   19.6350 C.ar      1 FAD500      0.0000 
     34 C7M       -29.9810    6.1030   18.9060 C.3       1 FAD500      0.0000 
     35 C8        -29.1200    3.6360   18.9180 C.ar      1 FAD500      0.0000 
     36 C8M       -29.3400    3.5100   17.4390 C.3       1 FAD500      0.0000 
     37 C9        -28.6150    2.5400   19.6180 C.ar      1 FAD500      0.0000 
     38 C9A       -28.3900    2.6060   20.9940 C.ar      1 FAD500      0.0000 
     39 N10       -27.8660    1.5020   21.7180 N.pl3     1 FAD500      0.0000 
     40 C10       -27.6690    1.6350   23.1090 C.2       1 FAD500      0.0000 
     41 C1'       -27.5710    0.2260   21.0550 C.3       1 FAD500      0.0000 
     42 C2'       -26.1040   -0.0930   20.8610 C.3       1 FAD500      0.0000 
     43 O2'       -25.5720    0.8350   19.9270 O.3       1 FAD500      0.0000 
     44 C3'       -26.0080   -1.4690   20.2260 C.3       1 FAD500      0.0000 
     45 O3'       -26.9460   -2.3560   20.8670 O.3       1 FAD500      0.0000 
     46 C4'       -24.5920   -2.0380   20.2510 C.3       1 FAD500      0.0000 
     47 O4'       -23.7050   -1.2030   19.4900 O.3       1 FAD500      0.0000 
     48 C5'       -24.5820   -3.4290   19.6440 C.3       1 FAD500      0.0000 
     49 O5'       -23.2500   -3.7010   19.2740 O.3       1 FAD500      0.0000 
     50 P         -22.8480   -4.5820   17.9970 P.3       1 FAD500      0.0000 
     51 O1P       -21.3420   -4.5490   18.0440 O.co2     1 FAD500      0.0000 
     52 O2P       -23.6240   -5.8780   17.9390 O.co2     1 FAD500      0.0000 
     53 O3P       -23.3520   -3.7630   16.7040 O.3       1 FAD500      0.0000 
     54 H         -22.5969   -3.0700   13.5919 H         1 FAD500      0.0000 
     55 H         -21.4107   -4.3756   13.7606 H         1 FAD500      0.0000 
     56 H         -19.7611   -2.2258   13.6087 H         1 FAD500      0.0000 
     57 H         -22.2550   -1.2462   12.7316 H         1 FAD500      0.0000 
     58 H         -22.1907   -1.8964   10.5982 H         1 FAD500      0.0000 
     59 H         -19.2831   -2.2852   10.5082 H         1 FAD500      0.0000 
     60 H         -22.7132   -3.7548    9.8374 H         1 FAD500      0.0000 
     61 H         -20.1231   -7.5604    5.8492 H         1 FAD500      0.0000 
     62 H         -21.5120   -6.4226    5.8936 H         1 FAD500      0.0000 
     63 H         -16.7980   -4.9764    7.6681 H         1 FAD500      0.0000 
     64 H         -27.1073    1.9766   26.8950 H         1 FAD500      0.0000 
     65 H         -29.4130    5.8495   21.5178 H         1 FAD500      0.0000 
     66 H         -28.4039    1.6646   19.1097 H         1 FAD500      0.0000 
     67 H         -28.0673    0.1956   20.0527 H         1 FAD500      0.0000 
     68 H         -28.0354   -0.6155   21.6279 H         1 FAD500      0.0000 
     69 H         -25.6073   -0.0894   21.7789 H         1 FAD500      0.0000 
     70 H         -26.2957   -1.3531   19.1632 H         1 FAD500      0.0000 
     71 H         -24.2705   -2.1126   21.2747 H         1 FAD500      0.0000 
     72 H         -25.2572   -3.4279   18.7914 H         1 FAD500      0.0000 
     73 H         -24.9547   -4.1244   20.3925 H         1 FAD500      0.0000 
     74 H         -29.3794    6.8972   18.9912 H         1 FAD500      0.0000 
     75 H         -30.0927    5.9235   17.9286 H         1 FAD500      0.0000 
     76 H         -30.8766    6.3745   19.2584 H         1 FAD500      0.0000 
     77 H         -28.8028    4.1789   16.9253 H         1 FAD500      0.0000 
     78 H         -29.0819    2.6050   17.1009 H         1 FAD500      0.0000 
     79 H         -30.2986    3.6525   17.1926 H         1 FAD500      0.0000 
     80 H         -19.7328   -0.1604   12.0421 H         1 FAD500      0.0000 
     81 H         -19.7818   -0.3900   10.3538 H         1 FAD500      0.0000 
     82 H         -24.8072    0.3573   19.4947 H         1 FAD500      0.0000 
     83 H         -27.0411   -3.1290   20.2398 H         1 FAD500      0.0000 
     84 H         -23.2907   -1.8134   18.8149 H         1 FAD500      0.0000 
@<TRIPOS>BOND
     1    2    1 ar   
     2    3    1 ar   
     3    4    1 1    
     4   53    1 1    
     5    5    4 1    
     6    6    5 1    
     7   54    5 1    
     8   55    5 1    
     9    7    6 1    
    10    8    6 1    
    11   56    6 1    
    12   12    7 1    
    13    9    8 1    
    14   10    8 1    
    15   57    8 1    
    16   80    9 1    
    17   11   10 1    
    18   12   10 1    
    19   58   10 1    
    20   81   11 1    
    21   13   12 1    
    22   59   12 1    
    23   14   13 1    
    24   22   13 1    
    25   15   14 2    
    26   60   14 1    
    27   16   15 1    
    28   17   16 ar   
    29   22   16 ar   
    30   18   17 1    
    31   19   17 ar   
    32   61   18 1    
    33   62   18 1    
    34   20   19 ar   
    35   21   20 ar   
    36   63   20 1    
    37   22   21 ar   
    38   24   23 1    
    39   40   23 2    
    40   25   24 2    
    41   26   24 am   
    42   27   26 am   
    43   64   26 1    
    44   28   27 2    
    45   29   27 1    
    46   30   29 2    
    47   40   29 1    
    48   31   30 1    
    49   32   31 ar   
    50   38   31 ar   
    51   33   32 ar   
    52   65   32 1    
    53   34   33 1    
    54   35   33 ar   
    55   74   34 1    
    56   75   34 1    
    57   76   34 1    
    58   36   35 1    
    59   37   35 ar   
    60   77   36 1    
    61   78   36 1    
    62   79   36 1    
    63   38   37 ar   
    64   66   37 1    
    65   39   38 1    
    66   40   39 1    
    67   41   39 1    
    68   42   41 1    
    69   67   41 1    
    70   68   41 1    
    71   43   42 1    
    72   44   42 1    
    73   69   42 1    
    74   82   43 1    
    75   45   44 1    
    76   46   44 1    
    77   70   44 1    
    78   83   45 1    
    79   47   46 1    
    80   48   46 1    
    81   71   46 1    
    82   84   47 1    
    83   49   48 1    
    84   72   48 1    
    85   73   48 1    
    86   50   49 1    
    87   51   50 ar   
    88   52   50 ar   
    89   53   50 1    
@<TRIPOS>SUBSTRUCTURE
     1 FAD500      1 GROUP   
@<TRIPOS>SET

