#    Name: 3pe2_E1B_1_INTS_M
#    Modification time : Tue Mar 25 06:24:23 2014

@<TRIPOS>MOLECULE
3pe2_E1B_1_INTS_M
   72     0     9     0     0
SMALL
NO_CHARGES


@<TRIPOS>ATOM
      1 N          23.2995  -27.5710    8.8605 N.am      1 SEC2        0.0000 
      2 N          23.4420  -27.8900   10.2610 N.am      7 SEL2        0.0000 
      3 N          23.1570  -27.2520    7.4600 N.am      4 SEP2        0.0000 
      4 CA         25.0360  -27.6820   11.4105 C.3       3 GLC5        0.0000 
      5 CA         23.4000  -26.8690   11.1510 C.3       9 GLL5        0.0000 
      6 CA         26.6720  -28.4950   11.6700 C.3       6 GLP5        0.0000 
      7 CA         24.8210  -26.1490   10.1185 C.3       3 GLC5        0.0000 
      8 CA         26.2420  -25.4290    9.0860 C.3       6 GLP5        0.0000 
      9 CA         22.6590  -26.7355    9.0975 C.3       3 GLC5        0.0000 
     10 CA         21.9180  -26.6020    7.0440 C.3       6 GLP5        0.0000 
     11 CA         21.7150  -27.0540   11.2300 C.3       3 GLC5        0.0000 
     12 CA         20.0300  -27.2390   11.3090 C.3       6 GLP5        0.0000 
     13 CA         24.3325  -28.6765    8.9180 C.3       3 GLC5        0.0000 
     14 CA         23.2970  -29.1720   10.6780 C.3       9 GLL5        0.0000 
     15 CA         25.3680  -28.1810    7.1580 C.3       6 GLP5        0.0000 
     16 NZ         22.8425  -35.9785   16.1360 N.4       2 LYC4        0.0000 
     17 NZ         22.5010  -34.7800   15.4990 N.4       8 LYL4        0.0000 
     18 NZ         23.1840  -37.1770   16.7730 N.4       5 LYP4        0.0000 
     19 N          22.8425  -35.9785   16.1360 N.am      1 SEC2        0.0000 
     20 N          22.5010  -34.7800   15.4990 N.am      7 SEL2        0.0000 
     21 N          23.1840  -37.1770   16.7730 N.am      4 SEP2        0.0000 
     22 NZ         22.6480  -36.3805   15.0470 N.4       2 LYC4        0.0000 
     23 NZ         22.1120  -35.5840   13.3210 N.4       8 LYL4        0.0000 
     24 N          20.6935  -35.7325   13.6230 N.am      1 SEC2        0.0000 
     25 N          22.1120  -35.5840   13.3210 N.am      7 SEL2        0.0000 
     26 N          19.2750  -35.8810   13.9250 N.am      4 SEP2        0.0000 
     27 CA         24.6220  -29.2945   16.8570 C.3       3 GLC5        0.0000 
     28 CA         23.0150  -28.4620   17.5480 C.3       9 GLL5        0.0000 
     29 CA         26.2290  -30.1270   16.1660 C.3       6 GLP5        0.0000 
     30 CA         24.6325  -29.4005   18.2770 C.3       3 GLC5        0.0000 
     31 CA         22.9200  -28.3370   18.9130 C.3       9 GLL5        0.0000 
     32 CA         26.3450  -30.4640   17.6410 C.3       6 GLP5        0.0000 
     33 CA         20.7955  -33.4345   13.0440 C.3       3 GLC5        0.0000 
     34 CA         22.6000  -33.4110   13.6860 C.3       9 GLL5        0.0000 
     35 CA         18.9910  -33.4580   12.4020 C.3       6 GLP5        0.0000 
     36 CA         24.5305  -29.3950   15.2490 C.3       3 GLC5        0.0000 
     37 CA         22.8320  -28.6630   14.3320 C.3       9 GLL5        0.0000 
     38 CA         21.3160  -28.8240   12.9820 C.3       3 GLC5        0.0000 
     39 CA         19.8000  -28.9850   11.6320 C.3       6 GLP5        0.0000 
     40 CA         24.4775  -30.5655   15.0655 C.3       3 GLC5        0.0000 
     41 CA         22.7260  -31.0040   13.9650 C.3       9 GLL5        0.0000 
     42 CA         24.5898  -27.3370   14.2690 C.3       3 GLC5        0.0000 
     43 CA         26.2400  -26.1510   14.9000 C.3       6 GLP5        0.0000 
     44 CA         24.9271  -28.7695   11.6306 C.3       3 GLC5        0.0000 
     45 CA         23.0470  -28.3830   12.9440 C.3       9 GLL5        0.0000 
     46 CA         21.4911  -29.0145   11.6116 C.3       3 GLC5        0.0000 
     47 CA         24.5335  -28.4483   20.9138 C.3       3 GLC5        0.0000 
     48 CA         23.3930  -29.4680   19.7470 C.3       9 GLL5        0.0000 
     49 CA         25.4830  -26.9690   21.7430 C.3       6 GLP5        0.0000 
     50 CA         24.5195  -30.1013   21.8098 C.3       3 GLC5        0.0000 
     51 CA         25.4550  -30.2750   23.5350 C.3       6 GLP5        0.0000 
     52 CA         24.6145  -30.8523   19.0203 C.3       3 GLC5        0.0000 
     53 CA         23.7750  -30.3870   20.4220 C.3       9 GLL5        0.0000 
     54 CA         25.6450  -31.7770   17.9560 C.3       6 GLP5        0.0000 
     55 CA         24.0668  -27.3652   20.4660 C.3       3 GLC5        0.0000 
     56 CA         22.3810  -27.1860   19.4650 C.3       9 GLL5        0.0000 
     57 CA         22.2882  -33.2340   10.2048 C.3       3 GLC5        0.0000 
     58 CA         22.9550  -31.9420   11.7510 C.3       9 GLL5        0.0000 
     59 CA         21.7050  -33.8880    8.3830 C.3       6 GLP5        0.0000 
     60 CA         24.3162  -33.1900   10.8513 C.3       3 GLC5        0.0000 
     61 CA         25.7610  -33.8000    9.6760 C.3       6 GLP5        0.0000 
     62 CA         21.0943  -32.6165   11.5828 C.3       3 GLC5        0.0000 
     63 CA         19.3170  -32.6530   11.1390 C.3       6 GLP5        0.0000 
     64 CA         24.8161  -30.9654   12.9243 C.3       3 GLC5        0.0000 
     65 CA         26.8030  -30.7410   12.7750 C.3       6 GLP5        0.0000 
     66 CA         21.3146  -30.0874   12.3528 C.3       3 GLC5        0.0000 
     67 CA         22.9100  -30.8090   12.6130 C.3       9 GLL5        0.0000 
     68 CA         20.8795  -31.3666   13.7406 C.3       3 GLC5        0.0000 
     69 CA         18.9830  -31.5020   14.0510 C.3       6 GLP5        0.0000 
     70 CA         24.3972  -26.7092   17.5783 C.3       3 GLC5        0.0000 
     71 CA         22.5850  -27.4390   16.7270 C.3       9 GLL5        0.0000 
     72 CA         26.1630  -25.8040   17.3730 C.3       6 GLP5        0.0000 
@<TRIPOS>BOND
@<TRIPOS>SUBSTRUCTURE
     1 SEC2        1 GROUP        1 X    SEC  0     ROOT SEC X 2
     2 LYC4       16 GROUP        1 X    LYC  0     **** LYC X 4
     3 GLC5        4 GROUP        1 X    GLC  0     **** GLC X 6
     4 SEP2        3 GROUP        1 Y    SEP  0     ROOT SEP Y 9
     5 LYP4       18 GROUP        1 Y    LYP  0     **** LYP Y 11
     6 GLP5        6 GROUP        1 Y    GLP  0     **** GLP Y 13
     7 SEL2        2 GROUP        1 Z    SEL  0     ROOT SEL Z 16
     8 LYL4       17 GROUP        1 Z    LYL  0     **** LYL Z 18
     9 GLL5        5 GROUP        1 Z    GLL  0     **** GLL Z 20
@<TRIPOS>SET

