#    Name: 3pe2_E1B_1_ligand
#    Modification time : Tue Mar 25 06:24:23 2014

@<TRIPOS>MOLECULE
3pe2_E1B_1_ligand
   36    39     1     0     0
SMALL
NO_CHARGES


@<TRIPOS>ATOM
      1 N1         23.4420  -27.8900   10.2610 N.ar      1 E1B338      0.0000 
      2 C2         23.4000  -26.8690   11.1510 C.ar      1 E1B338      0.0000 
      3 N3         23.2050  -27.0940   12.4630 N.ar      1 E1B338      0.0000 
      4 C4         23.0470  -28.3830   12.9440 C.ar      1 E1B338      0.0000 
      5 C5         23.0880  -29.4490   12.0650 C.ar      1 E1B338      0.0000 
      6 C6         23.2970  -29.1720   10.6780 C.ar      1 E1B338      0.0000 
      7 CAA        23.7750  -30.3870   20.4220 C.1       1 E1B338      0.0000 
      8 OAB        22.5010  -34.7800   15.4990 O.co2     1 E1B338      0.0000 
      9 OAC        22.1120  -35.5840   13.3210 O.co2     1 E1B338      0.0000 
     10 CAD        23.3930  -29.4680   19.7470 C.1       1 E1B338      0.0000 
     11 CAE        21.9580  -26.1610   18.6360 C.ar      1 E1B338      0.0000 
     12 CAG        22.3810  -27.1860   19.4650 C.ar      1 E1B338      0.0000 
     13 CAH        22.0540  -26.2790   17.2570 C.ar      1 E1B338      0.0000 
     14 CAI        22.7880  -33.2180   12.3020 C.ar      1 E1B338      0.0000 
     15 CAJ        22.9550  -31.9420   11.7510 C.ar      1 E1B338      0.0000 
     16 CAL        23.0150  -28.4620   17.5480 C.ar      1 E1B338      0.0000 
     17 CAM        22.5580  -32.3030   14.5300 C.ar      1 E1B338      0.0000 
     18 NAP        22.6910  -29.9080   14.7930 N.ar      1 E1B338      0.0000 
     19 NAQ        22.7310  -27.6880   15.3480 N.pl3     1 E1B338      0.0000 
     20 CAR        22.4100  -34.7870   14.2440 C.2       1 E1B338      0.0000 
     21 CAS        22.9200  -28.3370   18.9130 C.ar      1 E1B338      0.0000 
     22 CAT        22.5850  -27.4390   16.7270 C.ar      1 E1B338      0.0000 
     23 CAU        22.6000  -33.4110   13.6860 C.ar      1 E1B338      0.0000 
     24 CAV        22.8320  -28.6630   14.3320 C.ar      1 E1B338      0.0000 
     25 CAW        22.7260  -31.0040   13.9650 C.ar      1 E1B338      0.0000 
     26 CAY        22.9100  -30.8090   12.6130 C.ar      1 E1B338      0.0000 
     27 H          23.5225  -25.8846   10.8057 H         1 E1B338      0.0000 
     28 H          23.3320  -29.9644   10.0260 H         1 E1B338      0.0000 
     29 H          21.5656  -25.2966   19.0483 H         1 E1B338      0.0000 
     30 H          22.2958  -27.0941   20.4853 H         1 E1B338      0.0000 
     31 H          21.7379  -25.5225   16.6487 H         1 E1B338      0.0000 
     32 H          22.8023  -34.0462   11.6792 H         1 E1B338      0.0000 
     33 H          23.1060  -31.8148   10.7572 H         1 E1B338      0.0000 
     34 H          23.4088  -29.3225   17.1323 H         1 E1B338      0.0000 
     35 H          22.4118  -32.4022   15.5274 H         1 E1B338      0.0000 
     36 H          22.7990  -26.6001   14.7982 H         1 E1B338      0.0000 
@<TRIPOS>BOND
     1    2    1 ar   
     2    6    1 ar   
     3    3    2 ar   
     4   27    2 1    
     5    4    3 ar   
     6    5    4 ar   
     7   24    4 ar   
     8    6    5 ar   
     9   26    5 ar   
    10   28    6 1    
    11   10    7 3    
    12   20    8 ar   
    13   20    9 ar   
    14   21   10 1    
    15   12   11 ar   
    16   13   11 ar   
    17   29   11 1    
    18   21   12 ar   
    19   30   12 1    
    20   22   13 ar   
    21   31   13 1    
    22   15   14 ar   
    23   23   14 ar   
    24   32   14 1    
    25   26   15 ar   
    26   33   15 1    
    27   21   16 ar   
    28   22   16 ar   
    29   34   16 1    
    30   23   17 ar   
    31   25   17 ar   
    32   35   17 1    
    33   24   18 ar   
    34   25   18 ar   
    35   22   19 1    
    36   24   19 1    
    37   36   19 1    
    38   23   20 1    
    39   26   25 ar   
@<TRIPOS>SUBSTRUCTURE
     1 E1B338      1 GROUP   
@<TRIPOS>SET

