#    Name: 3e27_DND_1_INTS_M
#    Modification time : Tue Mar 25 00:50:24 2014

@<TRIPOS>MOLECULE
3e27_DND_1_INTS_M
  125     0    12     0     0
SMALL
NO_CHARGES


@<TRIPOS>ATOM
      1 NZ        -18.1130  -26.9285   11.8335 N.4       3 LYC4        0.0000 
      2 NZ        -17.0140  -27.5150   12.1280 N.4      11 LYL4        0.0000 
      3 NZ        -19.2120  -26.3420   11.5390 N.4       7 LYP4        0.0000 
      4 N         -17.2030  -27.9410   10.8430 N.am      2 SEC2        0.0000 
      5 N         -17.0140  -27.5150   12.1280 N.am     10 SEL2        0.0000 
      6 N         -17.3920  -28.3670    9.5580 N.am      6 SEP2        0.0000 
      7 N         -18.1130  -26.9285   11.8335 N.am      2 SEC2        0.0000 
      8 N         -19.2120  -26.3420   11.5390 N.am      6 SEP2        0.0000 
      9 NZ        -17.6800  -26.2235   12.8060 N.4       3 LYC4        0.0000 
     10 NZ        -16.1480  -26.1050   14.0730 N.4      11 LYL4        0.0000 
     11 N         -14.8565  -26.7900   10.3965 N.am      2 SEC2        0.0000 
     12 N         -14.9040  -26.0290   11.9020 N.am     10 SEL2        0.0000 
     13 N         -14.8090  -27.5510    8.8910 N.am      6 SEP2        0.0000 
     14 CA        -14.2675  -26.8815   15.6445 C.3       4 GLC5        0.0000 
     15 CA        -13.7220  -27.8050   13.9200 C.3      12 GLL5        0.0000 
     16 CA        -14.8130  -25.9580   17.3690 C.3       8 GLP5        0.0000 
     17 CA        -12.3115  -29.8470   15.9860 C.3       4 GLC5        0.0000 
     18 CA        -12.9110  -29.0960   13.9860 C.3      12 GLL5        0.0000 
     19 CA        -11.7120  -30.5980   17.9860 C.3       8 GLP5        0.0000 
     20 CA        -15.7635  -32.5100   13.2170 C.3       4 GLC5        0.0000 
     21 CA        -14.2510  -31.0210   13.4150 C.3      12 GLL5        0.0000 
     22 CA        -17.2760  -33.9990   13.0190 C.3       8 GLP5        0.0000 
     23 N         -14.9210  -31.6970   11.3185 N.am      2 SEC2        0.0000 
     24 N         -14.3030  -32.2490   12.6930 N.am     10 SEL2        0.0000 
     25 N         -15.5390  -31.1450    9.9440 N.am      6 SEP2        0.0000 
     26 O         -13.3655  -33.2930   12.7890 O.2       1 ALC1        0.0000 
     27 O         -14.3030  -32.2490   12.6930 O.2       9 ALL1        0.0000 
     28 O         -12.4280  -34.3370   12.8850 O.2       5 ALP1        0.0000 
     29 CA        -12.7125  -30.8440   16.4160 C.3       4 GLC5        0.0000 
     30 CA        -13.7130  -31.0900   14.8460 C.3      12 GLL5        0.0000 
     31 CA        -17.3185  -33.9635   16.2195 C.3       4 GLC5        0.0000 
     32 CA        -16.5080  -32.6180   17.6240 C.3      12 GLL5        0.0000 
     33 CA        -18.1290  -35.3090   14.8150 C.3       8 GLP5        0.0000 
     34 CA        -18.4750  -32.0085   17.0535 C.3       4 GLC5        0.0000 
     35 CA        -20.4420  -31.3990   16.4830 C.3       8 GLP5        0.0000 
     36 CA        -16.1725  -33.4640   19.5930 C.3       4 GLC5        0.0000 
     37 CA        -15.8370  -34.3100   21.5620 C.3       8 GLP5        0.0000 
     38 CA        -14.9190  -33.5225   19.3215 C.3       4 GLC5        0.0000 
     39 CA        -15.3860  -33.3490   17.2240 C.3      12 GLL5        0.0000 
     40 CA        -14.4520  -33.6960   21.4190 C.3       8 GLP5        0.0000 
     41 CA        -12.6110  -33.7905   16.2180 C.3       4 GLC5        0.0000 
     42 CA        -14.5060  -32.7980   16.3110 C.3      12 GLL5        0.0000 
     43 CA        -10.7160  -34.7830   16.1250 C.3       8 GLP5        0.0000 
     44 N         -15.9970  -36.0565   19.5290 N.am      2 SEC2        0.0000 
     45 N         -16.2650  -35.4880   18.1900 N.am     10 SEL2        0.0000 
     46 N         -15.7290  -36.6250   20.8680 N.am      6 SEP2        0.0000 
     47 N         -13.1375  -36.0515   16.2915 N.am      2 SEC2        0.0000 
     48 N         -14.1120  -35.4230   17.2220 N.am     10 SEL2        0.0000 
     49 N         -12.1630  -36.6800   15.3610 N.am      6 SEP2        0.0000 
     50 N         -14.8900  -26.1935    9.3395 N.am      2 SEC2        0.0000 
     51 N         -14.9710  -24.8360    9.7880 N.am     10 SEL2        0.0000 
     52 N         -15.0270  -25.2690    8.3210 N.am      2 SEC2        0.0000 
     53 N         -15.0830  -25.7020    6.8540 N.am      6 SEP2        0.0000 
     54 NZ        -17.7845  -25.1035   11.5225 N.4       3 LYC4        0.0000 
     55 NZ        -16.3570  -23.8650   11.5060 N.4      11 LYL4        0.0000 
     56 N         -16.2440  -22.4250   11.1695 N.am      2 SEC2        0.0000 
     57 N         -16.3570  -23.8650   11.5060 N.am     10 SEL2        0.0000 
     58 N         -16.1310  -20.9850   10.8330 N.am      6 SEP2        0.0000 
     59 N         -13.5385  -22.6535   10.6175 N.am      2 SEC2        0.0000 
     60 N         -13.7840  -23.7740   11.7000 N.am     10 SEL2        0.0000 
     61 N         -13.2930  -21.5330    9.5350 N.am      6 SEP2        0.0000 
     62 CA        -10.3100  -24.6040   11.7240 C.3       4 GLC5        0.0000 
     63 CA        -12.5070  -24.3730   11.8070 C.3      12 GLL5        0.0000 
     64 CA         -8.1130  -24.8350   11.6410 C.3       8 GLP5        0.0000 
     65 CA        -12.6080  -25.9815   10.9235 C.3       4 GLC5        0.0000 
     66 CA        -12.7090  -27.5900   10.0400 C.3       8 GLP5        0.0000 
     67 CA        -11.5760  -24.5215    9.8215 C.3       4 GLC5        0.0000 
     68 CA        -10.6450  -24.6700    7.8360 C.3       8 GLP5        0.0000 
     69 CA        -10.0200  -23.6200   12.1765 C.3       4 GLC5        0.0000 
     70 CA        -11.8040  -23.8960   13.0690 C.3      12 GLL5        0.0000 
     71 CA         -8.2360  -23.3440   11.2840 C.3       8 GLP5        0.0000 
     72 N         -11.2240  -23.6215   16.4665 N.am      2 SEC2        0.0000 
     73 N         -11.7320  -24.6070   15.2730 N.am     10 SEL2        0.0000 
     74 N         -10.7160  -22.6360   17.6600 N.am      6 SEP2        0.0000 
     75 N         -12.0415  -22.6745   16.8870 N.am      2 SEC2        0.0000 
     76 N         -13.3670  -22.7130   16.1140 N.am     10 SEL2        0.0000 
     77 O         -14.3755  -22.0700   16.7650 O.2       1 ALC1        0.0000 
     78 O         -13.3670  -22.7130   16.1140 O.2       9 ALL1        0.0000 
     79 O         -15.3840  -21.4270   17.4160 O.2       5 ALP1        0.0000 
     80 CA        -12.0385  -21.5965   11.9945 C.3       4 GLC5        0.0000 
     81 CA        -12.1060  -21.8660   14.1550 C.3      12 GLL5        0.0000 
     82 CA        -11.9710  -21.3270    9.8340 C.3       8 GLP5        0.0000 
     83 CA        -10.1910  -21.4160   14.1340 C.3       4 GLC5        0.0000 
     84 CA         -8.2760  -20.9660   14.1130 C.3       8 GLP5        0.0000 
     85 CA        -10.2485  -20.1785   14.2415 C.3       4 GLC5        0.0000 
     86 CA        -12.2210  -19.3910   14.3700 C.3      12 GLL5        0.0000 
     87 CA        -11.6940  -20.3450   16.2350 C.3       4 GLC5        0.0000 
     88 CA        -11.1670  -21.2990   18.1000 C.3       8 GLP5        0.0000 
     89 CA         -9.5255  -17.8860   15.1100 C.3       4 GLC5        0.0000 
     90 CA        -11.1790  -17.8700   15.8870 C.3      12 GLL5        0.0000 
     91 CA         -7.8720  -17.9020   14.3330 C.3       8 GLP5        0.0000 
     92 CA        -11.1730  -19.5845   16.9935 C.3       4 GLC5        0.0000 
     93 CA         -9.5990  -18.5035   16.8035 C.3       4 GLC5        0.0000 
     94 CA         -8.0190  -19.1370   17.7200 C.3       8 GLP5        0.0000 
     95 CA        -12.9795  -17.5555   16.3635 C.3       4 GLC5        0.0000 
     96 CA        -14.7800  -17.2410   16.8400 C.3       8 GLP5        0.0000 
     97 N         -11.3950  -15.7565   15.8055 N.am      2 SEC2        0.0000 
     98 N         -11.8140  -16.8240   15.2510 N.am     10 SEL2        0.0000 
     99 N         -10.9760  -14.6890   16.3600 N.am      6 SEP2        0.0000 
    100 CA        -11.5845  -16.5595   12.3315 C.3       4 GLC5        0.0000 
    101 CA        -12.6600  -17.0510   14.1860 C.3      12 GLL5        0.0000 
    102 CA        -10.5090  -16.0680   10.4770 C.3       8 GLP5        0.0000 
    103 O         -13.1960  -14.7110   13.8955 O.2       1 ALC1        0.0000 
    104 O         -13.1810  -16.0180   13.5390 O.2       9 ALL1        0.0000 
    105 O         -13.2110  -13.4040   14.2520 O.2       5 ALP1        0.0000 
    106 O         -14.4460  -15.8020   12.7710 O.2       1 ALC1        0.0000 
    107 O         -15.7110  -15.5860   12.0030 O.2       5 ALP1        0.0000 
    108 CA        -11.3345  -29.3955   12.4185 C.3       4 GLC5        0.0000 
    109 CA        -13.2310  -30.0540   12.8460 C.3      12 GLL5        0.0000 
    110 CA         -9.5980  -29.2160   11.4210 C.3       8 GLP5        0.0000 
    111 CA        -12.9914  -28.4211   11.7198 C.3       4 GLC5        0.0000 
    112 CA        -18.0138  -30.6720   16.2060 C.3       4 GLC5        0.0000 
    113 CA        -15.8090  -30.8030   16.1970 C.3      12 GLL5        0.0000 
    114 CA        -19.7620  -30.2740   15.7600 C.3       8 GLP5        0.0000 
    115 CA        -16.0467  -29.2500   17.1430 C.3       4 GLC5        0.0000 
    116 CA        -16.7220  -31.3370   17.1070 C.3      12 GLL5        0.0000 
    117 CA        -15.8280  -27.4300   17.6340 C.3       8 GLP5        0.0000 
    118 CA        -15.9320  -34.0288   15.4253 C.3       4 GLC5        0.0000 
    119 CA        -16.9180  -34.9840   14.0830 C.3       8 GLP5        0.0000 
    120 CA        -12.0633  -22.7308   11.1360 C.3       4 GLC5        0.0000 
    121 CA        -13.8620  -24.7115   15.9433 C.3       4 GLC5        0.0000 
    122 CA        -12.6350  -24.1460   14.3190 C.3      12 GLL5        0.0000 
    123 CA        -11.9067  -21.8120   16.2677 C.3       4 GLC5        0.0000 
    124 CA        -13.1870  -22.7840   14.7160 C.3      12 GLL5        0.0000 
    125 CA        -13.6928  -17.6017   15.4794 C.3       4 GLC5        0.0000 
@<TRIPOS>BOND
@<TRIPOS>SUBSTRUCTURE
     1 ALC1       26 GROUP        1 X    ALC  0     ROOT ALC X 1
     2 SEC2        4 GROUP        1 X    SEC  0     **** SEC X 2
     3 LYC4        1 GROUP        1 X    LYC  0     **** LYC X 4
     4 GLC5       14 GROUP        1 X    GLC  0     **** GLC X 6
     5 ALP1       28 GROUP        1 Y    ALP  0     ROOT ALP Y 8
     6 SEP2        6 GROUP        1 Y    SEP  0     **** SEP Y 9
     7 LYP4        3 GROUP        1 Y    LYP  0     **** LYP Y 11
     8 GLP5       16 GROUP        1 Y    GLP  0     **** GLP Y 13
     9 ALL1       27 GROUP        1 Z    ALL  0     ROOT ALL Z 15
    10 SEL2        5 GROUP        1 Z    SEL  0     **** SEL Z 16
    11 LYL4        2 GROUP        1 Z    LYL  0     **** LYL Z 18
    12 GLL5       15 GROUP        1 Z    GLL  0     **** GLL Z 20
@<TRIPOS>SET

