#    Name: 3e27_DND_1_ligand
#    Modification time : Tue Mar 25 00:50:24 2014

@<TRIPOS>MOLECULE
3e27_DND_1_ligand
   68    72     1     0     0
SMALL
NO_CHARGES


@<TRIPOS>ATOM
      1 PN        -15.8990  -26.8620   12.8220 P.3       1 DND191      0.0000 
      2 O11       -17.0140  -27.5150   12.1280 O.co2     1 DND191      0.0000 
      3 O12       -16.1480  -26.1050   14.0730 O.co2     1 DND191      0.0000 
      4 O3P       -14.9040  -26.0290   11.9020 O.3       1 DND191      0.0000 
      5 O5D       -14.8820  -28.0330   13.1620 O.3       1 DND191      0.0000 
      6 C5D       -13.7220  -27.8050   13.9200 C.3       1 DND191      0.0000 
      7 C4D       -12.9110  -29.0960   13.9860 C.3       1 DND191      0.0000 
      8 O4D       -13.2870  -29.7760   15.1550 O.3       1 DND191      0.0000 
      9 C3D       -13.2310  -30.0540   12.8460 C.3       1 DND191      0.0000 
     10 O3D       -12.0830  -30.8190   12.6230 O.3       1 DND191      0.0000 
     11 C2D       -14.2510  -31.0210   13.4150 C.3       1 DND191      0.0000 
     12 O2D       -14.3030  -32.2490   12.6930 O.3       1 DND191      0.0000 
     13 C1D       -13.7130  -31.0900   14.8460 C.3       1 DND191      0.0000 
     14 N1N       -14.7170  -31.5560   15.8100 N.pl3     1 DND191      0.0000 
     15 C6N       -15.8090  -30.8030   16.1970 C.ar      1 DND191      0.0000 
     16 C5N       -16.7220  -31.3370   17.1070 C.ar      1 DND191      0.0000 
     17 C4N       -16.5080  -32.6180   17.6240 C.ar      1 DND191      0.0000 
     18 C3N       -15.3860  -33.3490   17.2240 C.ar      1 DND191      0.0000 
     19 C2N       -14.5060  -32.7980   16.3110 C.ar      1 DND191      0.0000 
     20 C7N       -15.2340  -34.8040   17.5430 C.2       1 DND191      0.0000 
     21 O7N       -16.2650  -35.4880   18.1900 O.co2     1 DND191      0.0000 
     22 O8N       -14.1120  -35.4230   17.2220 O.co2     1 DND191      0.0000 
     23 PA        -15.1030  -24.5920   11.2280 P.3       1 DND191      0.0000 
     24 O13       -14.9710  -24.8360    9.7880 O.co2     1 DND191      0.0000 
     25 O14       -16.3570  -23.8650   11.5060 O.co2     1 DND191      0.0000 
     26 O5B       -13.7840  -23.7740   11.7000 O.3       1 DND191      0.0000 
     27 C5B       -12.5070  -24.3730   11.8070 C.3       1 DND191      0.0000 
     28 C4B       -11.8040  -23.8960   13.0690 C.3       1 DND191      0.0000 
     29 O4B       -11.6000  -22.5020   13.0060 O.3       1 DND191      0.0000 
     30 C3B       -12.6350  -24.1460   14.3190 C.3       1 DND191      0.0000 
     31 O3B       -11.7320  -24.6070   15.2730 O.3       1 DND191      0.0000 
     32 C2B       -13.1870  -22.7840   14.7160 C.3       1 DND191      0.0000 
     33 O2B       -13.3670  -22.7130   16.1140 O.3       1 DND191      0.0000 
     34 C1B       -12.1060  -21.8660   14.1550 C.3       1 DND191      0.0000 
     35 N9A       -12.6010  -20.5520   13.7390 N.pl3     1 DND191      0.0000 
     36 C4A       -12.2210  -19.3910   14.3700 C.ar      1 DND191      0.0000 
     37 N3A       -11.4010  -19.1590   15.4350 N.ar      1 DND191      0.0000 
     38 C2A       -11.1790  -17.8700   15.8870 C.ar      1 DND191      0.0000 
     39 N1A       -11.8140  -16.8240   15.2510 N.ar      1 DND191      0.0000 
     40 C6A       -12.6600  -17.0510   14.1860 C.ar      1 DND191      0.0000 
     41 C5A       -12.8810  -18.3570   13.7330 C.ar      1 DND191      0.0000 
     42 N7A       -13.6360  -18.8950   12.7290 N.2       1 DND191      0.0000 
     43 C8A       -13.4800  -20.2490   12.7210 C.2       1 DND191      0.0000 
     44 N6A       -13.1810  -16.0180   13.5390 N.pl3     1 DND191      0.0000 
     45 H         -13.9479  -27.5049   14.9499 H         1 DND191      0.0000 
     46 H         -13.0792  -27.0344   13.4789 H         1 DND191      0.0000 
     47 H         -11.8751  -28.8721   13.9758 H         1 DND191      0.0000 
     48 H         -13.6039  -29.5598   12.0410 H         1 DND191      0.0000 
     49 H         -15.1825  -30.4861   13.4578 H         1 DND191      0.0000 
     50 H         -12.8618  -31.7630   14.8322 H         1 DND191      0.0000 
     51 H         -15.9526  -29.8598   15.8224 H         1 DND191      0.0000 
     52 H         -17.5412  -30.7967   17.3941 H         1 DND191      0.0000 
     53 H         -17.1711  -33.0193   18.2935 H         1 DND191      0.0000 
     54 H         -13.6773  -33.3514   16.0130 H         1 DND191      0.0000 
     55 H         -11.8621  -24.1220   10.9509 H         1 DND191      0.0000 
     56 H         -12.5706  -25.4710   11.8555 H         1 DND191      0.0000 
     57 H         -10.8720  -24.4203   13.1745 H         1 DND191      0.0000 
     58 H         -13.4081  -24.7988   14.0881 H         1 DND191      0.0000 
     59 H         -14.0750  -22.6322   14.1432 H         1 DND191      0.0000 
     60 H         -11.3332  -21.7611   14.8953 H         1 DND191      0.0000 
     61 H         -10.5545  -17.6984   16.6790 H         1 DND191      0.0000 
     62 H         -13.8906  -20.8682   12.1351 H         1 DND191      0.0000 
     63 H         -12.6488  -15.1717   13.5602 H         1 DND191      0.0000 
     64 H         -14.0591  -16.1785   13.0883 H         1 DND191      0.0000 
     65 H         -12.1738  -31.1545   11.6853 H         1 DND191      0.0000 
     66 H         -13.4792  -32.7452   12.9669 H         1 DND191      0.0000 
     67 H         -11.2779  -25.3876   14.8435 H         1 DND191      0.0000 
     68 H         -14.1840  -22.1506   16.2414 H         1 DND191      0.0000 
@<TRIPOS>BOND
     1    2    1 ar   
     2    3    1 ar   
     3    4    1 1    
     4    5    1 1    
     5   23    4 1    
     6    6    5 1    
     7    7    6 1    
     8   45    6 1    
     9   46    6 1    
    10    8    7 1    
    11    9    7 1    
    12   47    7 1    
    13   13    8 1    
    14   10    9 1    
    15   11    9 1    
    16   48    9 1    
    17   65   10 1    
    18   12   11 1    
    19   13   11 1    
    20   49   11 1    
    21   66   12 1    
    22   14   13 1    
    23   50   13 1    
    24   15   14 ar   
    25   19   14 ar   
    26   16   15 ar   
    27   51   15 1    
    28   17   16 ar   
    29   52   16 1    
    30   18   17 ar   
    31   53   17 1    
    32   19   18 ar   
    33   20   18 1    
    34   54   19 1    
    35   21   20 ar   
    36   22   20 ar   
    37   24   23 ar   
    38   25   23 ar   
    39   26   23 1    
    40   27   26 1    
    41   28   27 1    
    42   55   27 1    
    43   56   27 1    
    44   29   28 1    
    45   30   28 1    
    46   57   28 1    
    47   34   29 1    
    48   31   30 1    
    49   32   30 1    
    50   58   30 1    
    51   67   31 1    
    52   33   32 1    
    53   34   32 1    
    54   59   32 1    
    55   68   33 1    
    56   35   34 1    
    57   60   34 1    
    58   36   35 1    
    59   43   35 1    
    60   37   36 ar   
    61   41   36 ar   
    62   38   37 ar   
    63   39   38 ar   
    64   61   38 1    
    65   40   39 ar   
    66   41   40 ar   
    67   44   40 1    
    68   42   41 1    
    69   43   42 2    
    70   62   43 1    
    71   63   44 1    
    72   64   44 1    
@<TRIPOS>SUBSTRUCTURE
     1 DND191      1 GROUP   
@<TRIPOS>SET

