#    Name: 2zce_PYH_1_INTS_M
#    Modification time : Mon Apr  7 18:42:30 2014

@<TRIPOS>MOLECULE
2zce_PYH_1_INTS_M
   42     0     6     0     0
SMALL
NO_CHARGES


@<TRIPOS>ATOM
      1 CA          3.3725   73.6655    3.5765 C.3       2 GLC5        0.0000 
      2 CA          3.2010   72.1190    2.1560 C.3       6 GLL5        0.0000 
      3 CA          3.5440   75.2120    4.9970 C.3       4 GLP5        0.0000 
      4 CA          2.0270   73.4830    1.8000 C.3       2 GLC5        0.0000 
      5 CA          0.8530   74.8470    1.4440 C.3       4 GLP5        0.0000 
      6 CA          1.2740   71.6590    3.0355 C.3       2 GLC5        0.0000 
      7 CA         -0.6530   71.1990    3.9150 C.3       4 GLP5        0.0000 
      8 CA          2.0605   70.7830    1.1120 C.3       2 GLC5        0.0000 
      9 CA          0.9200   69.4470    0.0680 C.3       4 GLP5        0.0000 
     10 CA          4.0385   69.4370    4.4240 C.3       2 GLC5        0.0000 
     11 CA          4.6110   70.1890    2.9140 C.3       6 GLL5        0.0000 
     12 CA          3.4660   68.6850    5.9340 C.3       4 GLP5        0.0000 
     13 CA          6.1060   69.4665    2.5975 C.3       2 GLC5        0.0000 
     14 CA          7.6010   68.7440    2.2810 C.3       4 GLP5        0.0000 
     15 CA          5.1810   73.4020    4.1935 C.3       2 GLC5        0.0000 
     16 CA          5.6540   72.3470    2.7190 C.3       6 GLL5        0.0000 
     17 CA          4.7080   74.4570    5.6680 C.3       4 GLP5        0.0000 
     18 N           6.4165   74.1825    0.1445 N.am      1 SEC2        0.0000 
     19 N           6.6570   72.8690    0.5860 N.am      5 SEL2        0.0000 
     20 N           6.1760   75.4960   -0.2970 N.am      3 SEP2        0.0000 
     21 CA          8.3235   70.9020    1.2835 C.3       2 GLC5        0.0000 
     22 CA          9.2870   72.6590    1.6090 C.3       6 GLL5        0.0000 
     23 CA          7.3600   69.1450    0.9580 C.3       4 GLP5        0.0000 
     24 CA          8.8000   72.1040   -0.3480 C.3       2 GLC5        0.0000 
     25 CA          8.3130   71.5490   -2.3050 C.3       4 GLP5        0.0000 
     26 CA         11.3880   77.8705    3.2920 C.3       2 GLC5        0.0000 
     27 CA         10.2050   76.1530    3.0930 C.3       6 GLL5        0.0000 
     28 CA         12.5710   79.5880    3.4910 C.3       4 GLP5        0.0000 
     29 N          10.1280   79.1235    6.9225 N.am      1 SEC2        0.0000 
     30 N           9.9340   77.9760    5.8430 N.am      5 SEL2        0.0000 
     31 N          10.3220   80.2710    8.0020 N.am      3 SEP2        0.0000 
     32 CA          3.3122   72.0962    0.1015 C.3       2 GLC5        0.0000 
     33 CA          4.5820   71.4660    2.0720 C.3       6 GLL5        0.0000 
     34 CA          2.7330   72.4000   -1.9110 C.3       4 GLP5        0.0000 
     35 CA          6.2390   70.5257    1.6767 C.3       2 GLC5        0.0000 
     36 CA         10.7033   71.7970    2.3165 C.3       2 GLC5        0.0000 
     37 CA         11.6960   70.4100    2.6620 C.3       4 GLP5        0.0000 
     38 CA         10.0554   74.3530    0.1880 C.3       2 GLC5        0.0000 
     39 CA         10.5340   74.5770   -1.7700 C.3       4 GLP5        0.0000 
     40 CA         10.0435   76.7923    1.3115 C.3       2 GLC5        0.0000 
     41 CA          9.4430   75.0740    2.3210 C.3       6 GLL5        0.0000 
     42 CA         10.2630   77.9710   -0.0840 C.3       4 GLP5        0.0000 
@<TRIPOS>BOND
@<TRIPOS>SUBSTRUCTURE
     1 SEC2       18 GROUP        1 X    SEC  0     ROOT SEC X 2
     2 GLC5        1 GROUP        1 X    GLC  0     **** GLC X 6
     3 SEP2       20 GROUP        1 Y    SEP  0     ROOT SEP Y 9
     4 GLP5        3 GROUP        1 Y    GLP  0     **** GLP Y 13
     5 SEL2       19 GROUP        1 Z    SEL  0     ROOT SEL Z 16
     6 GLL5        2 GROUP        1 Z    GLL  0     **** GLL Z 20
@<TRIPOS>SET

