#    Name: 2zce_PYH_1_ligand
#    Modification time : Mon Apr  7 18:42:30 2014

@<TRIPOS>MOLECULE
2zce_PYH_1_ligand
   39    39     1     0     0
SMALL
NO_CHARGES


@<TRIPOS>ATOM
      1 CAA         3.2010   72.1190    2.1560 C.3       1 PYH601      0.0000 
      2 CAP         4.5820   71.4660    2.0720 C.3       1 PYH601      0.0000 
      3 CAJ         4.6110   70.1890    2.9140 C.3       1 PYH601      0.0000 
      4 CAF         5.2210   70.6910    4.2230 C.2       1 PYH601      0.0000 
      5 NAL         6.1310   71.6030    3.8940 N.2       1 PYH601      0.0000 
      6 CAR         5.6540   72.3470    2.7190 C.3       1 PYH601      0.0000 
      7 CAO         6.8320   72.5910    1.7710 C.2       1 PYH601      0.0000 
      8 OAD         6.6570   72.8690    0.5860 O.2       1 PYH601      0.0000 
      9 NZ          8.0280   72.4610    2.3410 N.am      1 PYH601      0.0000 
     10 CE          9.2870   72.6590    1.6090 C.3       1 PYH601      0.0000 
     11 CD         10.1340   73.7090    2.3330 C.3       1 PYH601      0.0000 
     12 CG          9.4430   75.0740    2.3210 C.3       1 PYH601      0.0000 
     13 CB         10.2050   76.1530    3.0930 C.3       1 PYH601      0.0000 
     14 CA         10.1340   75.9640    4.6100 C.3       1 PYH601      0.0000 
     15 C          10.7400   77.1880    5.3020 C.2       1 PYH601      0.0000 
     16 OXT        11.9840   77.3160    5.2750 O.co2     1 PYH601      0.0000 
     17 O           9.9340   77.9760    5.8430 O.co2     1 PYH601      0.0000 
     18 N           8.7330   75.8250    5.0350 N.4       1 PYH601      0.0000 
     19 H           4.8495   71.2438    1.0883 H         1 PYH601      0.0000 
     20 H           5.2502   69.4813    2.4688 H         1 PYH601      0.0000 
     21 H           3.6293   69.8494    3.0830 H         1 PYH601      0.0000 
     22 H           4.9309   70.3497    5.0353 H         1 PYH601      0.0000 
     23 H           5.2226   73.2672    3.0109 H         1 PYH601      0.0000 
     24 H           8.1377   72.2082    3.3515 H         1 PYH601      0.0000 
     25 H           9.0958   73.0105    0.5964 H         1 PYH601      0.0000 
     26 H           9.8567   71.7325    1.5595 H         1 PYH601      0.0000 
     27 H          11.1009   73.7918    1.8391 H         1 PYH601      0.0000 
     28 H          10.2899   73.3947    3.3638 H         1 PYH601      0.0000 
     29 H           8.4367   74.9688    2.7533 H         1 PYH601      0.0000 
     30 H           9.3179   75.4019    1.2782 H         1 PYH601      0.0000 
     31 H           9.7916   77.1364    2.8356 H         1 PYH601      0.0000 
     32 H          11.2568   76.1413    2.7802 H         1 PYH601      0.0000 
     33 H          10.7011   75.1015    4.8810 H         1 PYH601      0.0000 
     34 H           2.9607   72.3600    3.0963 H         1 PYH601      0.0000 
     35 H           3.1544   72.9599    1.6168 H         1 PYH601      0.0000 
     36 H           2.4822   71.5126    1.8161 H         1 PYH601      0.0000 
     37 H           8.1030   75.8756    4.2601 H         1 PYH601      0.0000 
     38 H           8.5680   74.9500    5.4902 H         1 PYH601      0.0000 
     39 H           8.4665   76.5441    5.6768 H         1 PYH601      0.0000 
@<TRIPOS>BOND
     1    2    1 1    
     2   34    1 1    
     3   35    1 1    
     4   36    1 1    
     5    3    2 1    
     6    6    2 1    
     7   19    2 1    
     8    4    3 1    
     9   20    3 1    
    10   21    3 1    
    11    5    4 2    
    12   22    4 1    
    13    6    5 1    
    14    7    6 1    
    15   23    6 1    
    16    8    7 2    
    17    9    7 am   
    18   10    9 1    
    19   24    9 1    
    20   11   10 1    
    21   25   10 1    
    22   26   10 1    
    23   12   11 1    
    24   27   11 1    
    25   28   11 1    
    26   13   12 1    
    27   29   12 1    
    28   30   12 1    
    29   14   13 1    
    30   31   13 1    
    31   32   13 1    
    32   15   14 1    
    33   18   14 1    
    34   33   14 1    
    35   16   15 ar   
    36   17   15 ar   
    37   37   18 1    
    38   38   18 1    
    39   39   18 1    
@<TRIPOS>SUBSTRUCTURE
     1 PYH601      1 GROUP   
@<TRIPOS>SET

