#    Name: 2yj5_ATP_2_INTS_M
#    Modification time : Mon Apr  7 18:21:50 2014

@<TRIPOS>MOLECULE
2yj5_ATP_2_INTS_M
   45     0     9     0     0
SMALL
NO_CHARGES


@<TRIPOS>ATOM
      1 NZ         -1.6450    0.9630  -19.8470 N.4       2 LYC4        0.0000 
      2 NZ         -1.6940    2.5550  -20.8770 N.4       8 LYL4        0.0000 
      3 NZ         -1.5960   -0.6290  -18.8170 N.4       5 LYP4        0.0000 
      4 NZ         -0.8985   -0.3245  -20.2595 N.4       2 LYC4        0.0000 
      5 NZ         -0.2010   -0.0200  -21.7020 N.4       8 LYL4        0.0000 
      6 N           1.0600   -0.5815  -20.8725 N.am      1 SEC2        0.0000 
      7 N          -0.2010   -0.0200  -21.7020 N.am      7 SEL2        0.0000 
      8 N           2.3210   -1.1430  -20.0430 N.am      4 SEP2        0.0000 
      9 N          -0.8985   -0.3245  -20.2595 N.am      1 SEC2        0.0000 
     10 N          -1.5960   -0.6290  -18.8170 N.am      4 SEP2        0.0000 
     11 N           1.3960    3.1420  -22.7285 N.am      1 SEC2        0.0000 
     12 N           0.8960    1.8910  -23.0950 N.am      7 SEL2        0.0000 
     13 N           1.8960    4.3930  -22.3620 N.am      4 SEP2        0.0000 
     14 N          -2.3680    0.0625  -26.6575 N.am      1 SEC2        0.0000 
     15 N          -2.3010   -0.7590  -25.3890 N.am      7 SEL2        0.0000 
     16 N          -2.4350    0.8840  -27.9260 N.am      4 SEP2        0.0000 
     17 CA         -0.7725   -4.3930  -25.4085 C.3       3 GLC5        0.0000 
     18 CA          0.7720   -3.0300  -25.2130 C.3       9 GLL5        0.0000 
     19 CA         -2.3170   -5.7560  -25.6040 C.3       6 GLP5        0.0000 
     20 CA          3.6710   -2.1400  -30.0885 C.3       3 GLC5        0.0000 
     21 CA          2.6420   -2.3240  -28.3210 C.3       9 GLL5        0.0000 
     22 CA          4.7000   -1.9560  -31.8560 C.3       6 GLP5        0.0000 
     23 CA          2.6125   -5.1010  -28.8135 C.3       3 GLC5        0.0000 
     24 CA          1.6290   -3.4010  -28.6740 C.3       9 GLL5        0.0000 
     25 CA          3.5960   -6.8010  -28.9530 C.3       6 GLP5        0.0000 
     26 CA         -2.2650   -0.6310  -29.8400 C.3       3 GLC5        0.0000 
     27 CA         -0.9940   -2.0790  -30.9350 C.3       9 GLL5        0.0000 
     28 CA         -3.5360    0.8170  -28.7450 C.3       6 GLP5        0.0000 
     29 CA         -0.3110    0.2815  -31.8710 C.3       3 GLC5        0.0000 
     30 CA         -1.3580   -1.6590  -32.3090 C.3       9 GLL5        0.0000 
     31 CA          0.7360    2.2220  -31.4330 C.3       6 GLP5        0.0000 
     32 N          -0.4080   -1.2765  -34.6075 N.am      1 SEC2        0.0000 
     33 N          -0.4020   -1.7380  -33.2620 N.am      7 SEL2        0.0000 
     34 N          -0.4140   -0.8150  -35.9530 N.am      4 SEP2        0.0000 
     35 CA          1.3130   -0.2940  -32.6640 C.3       3 GLC5        0.0000 
     36 CA          0.8340   -2.1810  -32.9890 C.3       9 GLL5        0.0000 
     37 CA          1.7920    1.5930  -32.3390 C.3       6 GLP5        0.0000 
     38 CA         -0.5410   -3.8160  -32.6015 C.3       3 GLC5        0.0000 
     39 CA         -1.9160   -5.4510  -32.2140 C.3       6 GLP5        0.0000 
     40 CA          1.4030   -2.6475  -35.0305 C.3       3 GLC5        0.0000 
     41 CA          1.9720   -3.1140  -37.0720 C.3       6 GLP5        0.0000 
     42 CA          1.3465   -4.2055  -33.1835 C.3       3 GLC5        0.0000 
     43 CA          1.8590   -6.2300  -33.3780 C.3       6 GLP5        0.0000 
     44 CA          2.7670   -2.0685  -32.4225 C.3       3 GLC5        0.0000 
     45 CA         -1.1578   -3.8310  -31.6885 C.3       3 GLC5        0.0000 
@<TRIPOS>BOND
@<TRIPOS>SUBSTRUCTURE
     1 SEC2        6 GROUP        1 X    SEC  0     ROOT SEC X 2
     2 LYC4        1 GROUP        1 X    LYC  0     **** LYC X 4
     3 GLC5       17 GROUP        1 X    GLC  0     **** GLC X 6
     4 SEP2        8 GROUP        1 Y    SEP  0     ROOT SEP Y 9
     5 LYP4        3 GROUP        1 Y    LYP  0     **** LYP Y 11
     6 GLP5       19 GROUP        1 Y    GLP  0     **** GLP Y 13
     7 SEL2        7 GROUP        1 Z    SEL  0     ROOT SEL Z 16
     8 LYL4        2 GROUP        1 Z    LYL  0     **** LYL Z 18
     9 GLL5       18 GROUP        1 Z    GLL  0     **** GLL Z 20
@<TRIPOS>SET

