#    Name: 2yj5_ATP_2_ligand
#    Modification time : Mon Apr  7 18:21:50 2014

@<TRIPOS>MOLECULE
2yj5_ATP_2_ligand
   43    45     1     0     0
SMALL
NO_CHARGES


@<TRIPOS>ATOM
      1 PG         -2.5560    2.3010  -22.0930 P.3       1 ATP1636     0.0000 
      2 O1G        -2.9360    3.5530  -22.8650 O.co2     1 ATP1636     0.0000 
      3 O2G        -3.7330    1.3750  -21.8630 O.co2     1 ATP1636     0.0000 
      4 O3G        -1.6940    2.5550  -20.8770 O.co2     1 ATP1636     0.0000 
      5 PB         -0.1800    0.8330  -22.9490 P.3       1 ATP1636     0.0000 
      6 O1B        -0.2010   -0.0200  -21.7020 O.co2     1 ATP1636     0.0000 
      7 O2B         0.8960    1.8910  -23.0950 O.co2     1 ATP1636     0.0000 
      8 O3B        -1.6250    1.5260  -23.1840 O.3       1 ATP1636     0.0000 
      9 PA         -1.1070   -1.2870  -24.6300 P.3       1 ATP1636     0.0000 
     10 O1A        -1.3050   -2.1650  -23.4120 O.co2     1 ATP1636     0.0000 
     11 O2A        -2.3010   -0.7590  -25.3890 O.co2     1 ATP1636     0.0000 
     12 O3A        -0.0790   -0.0890  -24.2730 O.3       1 ATP1636     0.0000 
     13 O5'        -0.1800   -2.0780  -25.6850 O.3       1 ATP1636     0.0000 
     14 C5'         0.7720   -3.0300  -25.2130 C.3       1 ATP1636     0.0000 
     15 C4'         1.7750   -3.2740  -26.3300 C.3       1 ATP1636     0.0000 
     16 O4'         1.1370   -3.9210  -27.4340 O.3       1 ATP1636     0.0000 
     17 C3'         2.3430   -1.9750  -26.8800 C.3       1 ATP1636     0.0000 
     18 O3'         3.5260   -1.5790  -26.1660 O.3       1 ATP1636     0.0000 
     19 C2'         2.6420   -2.3240  -28.3210 C.3       1 ATP1636     0.0000 
     20 O2'         3.9640   -2.8880  -28.4070 O.3       1 ATP1636     0.0000 
     21 C1'         1.6290   -3.4010  -28.6740 C.3       1 ATP1636     0.0000 
     22 N9          0.4550   -2.8550  -29.4060 N.pl3     1 ATP1636     0.0000 
     23 C8         -0.7410   -2.6220  -28.8430 C.2       1 ATP1636     0.0000 
     24 N7         -1.6230   -2.1480  -29.7570 N.2       1 ATP1636     0.0000 
     25 C5         -0.9940   -2.0790  -30.9350 C.ar      1 ATP1636     0.0000 
     26 C6         -1.3580   -1.6590  -32.3090 C.ar      1 ATP1636     0.0000 
     27 N6         -2.6090   -1.2130  -32.5930 N.pl3     1 ATP1636     0.0000 
     28 N1         -0.4020   -1.7380  -33.2620 N.ar      1 ATP1636     0.0000 
     29 C2          0.8340   -2.1810  -32.9890 C.ar      1 ATP1636     0.0000 
     30 N3          1.2260   -2.5800  -31.7600 N.ar      1 ATP1636     0.0000 
     31 C4          0.3770   -2.5530  -30.7040 C.ar      1 ATP1636     0.0000 
     32 H           0.3058   -3.9816  -24.9633 H         1 ATP1636     0.0000 
     33 H           1.3161   -2.6642  -24.3439 H         1 ATP1636     0.0000 
     34 H           2.5874   -3.8677  -25.9587 H         1 ATP1636     0.0000 
     35 H           1.5717   -1.2446  -26.8630 H         1 ATP1636     0.0000 
     36 H           2.4971   -1.4921  -28.9287 H         1 ATP1636     0.0000 
     37 H           2.1034   -4.1612  -29.2413 H         1 ATP1636     0.0000 
     38 H          -0.9559   -2.7723  -27.8965 H         1 ATP1636     0.0000 
     39 H          -3.2610   -1.2189  -31.8348 H         1 ATP1636     0.0000 
     40 H          -2.7676   -0.9181  -33.5353 H         1 ATP1636     0.0000 
     41 H           1.5471   -2.2217  -33.7810 H         1 ATP1636     0.0000 
     42 H           4.2872   -1.8589  -26.7511 H         1 ATP1636     0.0000 
     43 H           3.8327   -3.8731  -28.2958 H         1 ATP1636     0.0000 
@<TRIPOS>BOND
     1    2    1 ar   
     2    3    1 ar   
     3    4    1 ar   
     4    8    1 1    
     5    6    5 ar   
     6    7    5 ar   
     7    8    5 1    
     8   12    5 1    
     9   10    9 ar   
    10   11    9 ar   
    11   12    9 1    
    12   13    9 1    
    13   14   13 1    
    14   15   14 1    
    15   32   14 1    
    16   33   14 1    
    17   16   15 1    
    18   17   15 1    
    19   34   15 1    
    20   21   16 1    
    21   18   17 1    
    22   19   17 1    
    23   35   17 1    
    24   42   18 1    
    25   20   19 1    
    26   21   19 1    
    27   36   19 1    
    28   43   20 1    
    29   22   21 1    
    30   37   21 1    
    31   23   22 1    
    32   31   22 1    
    33   24   23 2    
    34   38   23 1    
    35   25   24 1    
    36   26   25 ar   
    37   31   25 ar   
    38   27   26 1    
    39   28   26 ar   
    40   39   27 1    
    41   40   27 1    
    42   29   28 ar   
    43   30   29 ar   
    44   41   29 1    
    45   31   30 ar   
@<TRIPOS>SUBSTRUCTURE
     1 ATP1636     1 GROUP   
@<TRIPOS>SET

