#    Name: 4hbv_15E_1_INTS_M
#    Modification time : Tue Mar 25 00:48:39 2014

@<TRIPOS>MOLECULE
4hbv_15E_1_INTS_M
   31     0     6     0     0
SMALL
NO_CHARGES


@<TRIPOS>ATOM
      1 N          33.2000   18.5880   -1.0570 N.am      1 SEC2        0.0000 
      2 N          32.2140   18.2990    0.0580 N.am      5 SEL2        0.0000 
      3 N          34.1860   18.8770   -2.1720 N.am      3 SEP2        0.0000 
      4 CA         29.7795   17.8455   -1.8875 C.3       2 GLC5        0.0000 
      5 CA         29.6770   15.9760   -1.0640 C.3       6 GLL5        0.0000 
      6 CA         29.8820   19.7150   -2.7110 C.3       4 GLP5        0.0000 
      7 CA         24.1435   15.5880   -2.1555 C.3       2 GLC5        0.0000 
      8 CA         25.4250   14.3310   -2.3220 C.3       6 GLL5        0.0000 
      9 CA         22.8620   16.8450   -1.9890 C.3       4 GLP5        0.0000 
     10 CA         25.9305   13.1860   -0.9515 C.3       2 GLC5        0.0000 
     11 CA         26.4360   12.0410    0.4190 C.3       4 GLP5        0.0000 
     12 CA         29.8270   17.1750    2.5840 C.3       2 GLC5        0.0000 
     13 CA         28.7460   17.2740    0.7570 C.3       6 GLL5        0.0000 
     14 CA         30.9080   17.0760    4.4110 C.3       4 GLP5        0.0000 
     15 CA         28.4220   15.2650    1.3105 C.3       2 GLC5        0.0000 
     16 CA         28.0980   13.2560    1.8640 C.3       4 GLP5        0.0000 
     17 CA         29.7080   21.0175    1.1720 C.3       2 GLC5        0.0000 
     18 CA         30.0350   19.3400    1.5120 C.3       6 GLL5        0.0000 
     19 CA         29.3810   22.6950    0.8320 C.3       4 GLP5        0.0000 
     20 CA         30.4715   18.2080    2.9615 C.3       2 GLC5        0.0000 
     21 CA         29.2105   19.5465   -0.4115 C.3       2 GLC5        0.0000 
     22 CA         28.3860   19.7530   -2.3350 C.3       4 GLP5        0.0000 
     23 CA         30.7017   14.2003   -0.6940 C.3       2 GLC5        0.0000 
     24 CA         31.8010   12.8780    0.2110 C.3       4 GLP5        0.0000 
     25 CA         27.0805   13.4347   -0.8770 C.3       2 GLC5        0.0000 
     26 CA         28.2900   14.6180   -2.5110 C.3       6 GLL5        0.0000 
     27 CA         28.1515   14.6477    0.5700 C.3       2 GLC5        0.0000 
     28 CA         27.2970   15.8890   -0.7340 C.3       6 GLL5        0.0000 
     29 CA         27.0367   18.0801   -0.1230 C.3       2 GLC5        0.0000 
     30 CA         25.7390   19.4500   -0.3500 C.3       4 GLP5        0.0000 
     31 CA         28.3603   18.2316   -1.1155 C.3       2 GLC5        0.0000 
@<TRIPOS>BOND
@<TRIPOS>SUBSTRUCTURE
     1 SEC2        1 GROUP        1 X    SEC  0     ROOT SEC X 2
     2 GLC5        4 GROUP        1 X    GLC  0     **** GLC X 6
     3 SEP2        3 GROUP        1 Y    SEP  0     ROOT SEP Y 9
     4 GLP5        6 GROUP        1 Y    GLP  0     **** GLP Y 13
     5 SEL2        2 GROUP        1 Z    SEL  0     ROOT SEL Z 16
     6 GLL5        5 GROUP        1 Z    GLL  0     **** GLL Z 20
@<TRIPOS>SET

