#    Name: 4hbv_15E_1_ligand
#    Modification time : Tue Mar 25 00:48:39 2014

@<TRIPOS>MOLECULE
4hbv_15E_1_ligand
   22    23     1     0     0
SMALL
NO_CHARGES


@<TRIPOS>ATOM
      1 OAM        32.2140   18.2990    0.0580 O.2       1 15E203      0.0000 
      2 CAH        31.1030   17.6980    0.0150 C.2       1 15E203      0.0000 
      3 NAG        30.9510   16.4600   -0.6940 N.am      1 15E203      0.0000 
      4 CAD        29.6770   15.9760   -1.0640 C.ar      1 15E203      0.0000 
      5 CAC        29.5280   15.0690   -2.1340 C.ar      1 15E203      0.0000 
      6 CAB        28.2900   14.6180   -2.5110 C.ar      1 15E203      0.0000 
      7 CAA        27.1600   15.0390   -1.8350 C.ar      1 15E203      0.0000 
      8 BR         25.4250   14.3310   -2.3220 Br        1 15E203      0.0000 
      9 CAF        27.2970   15.8890   -0.7340 C.ar      1 15E203      0.0000 
     10 CAE        28.5490   16.4040   -0.3640 C.ar      1 15E203      0.0000 
     11 CAJ        28.7460   17.2740    0.7570 C.3       1 15E203      0.0000 
     12 NAI        29.9930   18.1530    0.6470 N.am      1 15E203      0.0000 
     13 CAL        30.0350   19.3400    1.5120 C.3       1 15E203      0.0000 
     14 H          31.7925   15.9214   -0.9331 H         1 15E203      0.0000 
     15 H          30.3783   14.7492   -2.6315 H         1 15E203      0.0000 
     16 H          28.1951   13.9599   -3.3038 H         1 15E203      0.0000 
     17 H          26.4624   16.1445   -0.1805 H         1 15E203      0.0000 
     18 H          28.8304   16.6961    1.7043 H         1 15E203      0.0000 
     19 H          27.8743   17.9514    0.8981 H         1 15E203      0.0000 
     20 H          30.6714   19.2218    2.2742 H         1 15E203      0.0000 
     21 H          30.3263   20.1548    1.0107 H         1 15E203      0.0000 
     22 H          29.1392   19.5436    1.9070 H         1 15E203      0.0000 
@<TRIPOS>BOND
     1    2    1 2    
     2    3    2 am   
     3   12    2 am   
     4    4    3 1    
     5   14    3 1    
     6    5    4 ar   
     7   10    4 ar   
     8    6    5 ar   
     9   15    5 1    
    10    7    6 ar   
    11   16    6 1    
    12    8    7 1    
    13    9    7 ar   
    14   10    9 ar   
    15   17    9 1    
    16   11   10 1    
    17   12   11 1    
    18   18   11 1    
    19   19   11 1    
    20   13   12 1    
    21   20   13 1    
    22   21   13 1    
    23   22   13 1    
@<TRIPOS>SUBSTRUCTURE
     1 15E203      1 GROUP   
@<TRIPOS>SET

