#    Name: 3f5p_741_12_INTS_M
#    Modification time : Tue Mar 25 03:14:10 2014

@<TRIPOS>MOLECULE
3f5p_741_12_INTS_M
   88     0     6     0     0
SMALL
NO_CHARGES


@<TRIPOS>ATOM
      1 CA         28.8045   27.5710  108.5555 C.3       2 GLC5        0.0000 
      2 CA         29.5620   29.4450  108.5270 C.3       6 GLL5        0.0000 
      3 CA         28.0470   25.6970  108.5840 C.3       4 GLP5        0.0000 
      4 CA         27.8985   28.4905  110.0170 C.3       2 GLC5        0.0000 
      5 CA         29.0280   30.1190  109.6640 C.3       6 GLL5        0.0000 
      6 CA         26.7690   26.8620  110.3700 C.3       4 GLP5        0.0000 
      7 CA         29.5115   28.3085  110.7525 C.3       2 GLC5        0.0000 
      8 CA         29.9070   30.5070  110.7000 C.3       6 GLL5        0.0000 
      9 CA         29.1160   26.1100  110.8050 C.3       4 GLP5        0.0000 
     10 CA         30.4975   31.8255  112.2790 C.3       2 GLC5        0.0000 
     11 CA         31.0880   33.1440  113.8580 C.3       4 GLP5        0.0000 
     12 CA         31.6230   31.9970  111.6860 C.3       2 GLC5        0.0000 
     13 CA         31.2850   30.2320  110.5960 C.3       6 GLL5        0.0000 
     14 CA         31.9610   33.7620  112.7760 C.3       4 GLP5        0.0000 
     15 CA         30.0290   27.6470  109.6030 C.3       2 GLC5        0.0000 
     16 CA         30.9420   29.1840  108.4010 C.3       6 GLL5        0.0000 
     17 CA         31.4890   27.0545  108.5360 C.3       2 GLC5        0.0000 
     18 CA         32.0360   24.9250  108.6710 C.3       4 GLP5        0.0000 
     19 CA         32.8710   30.1630  113.5740 C.3       2 GLC5        0.0000 
     20 CA         33.4370   30.3630  111.5510 C.3       6 GLL5        0.0000 
     21 CA         32.3050   29.9630  115.5970 C.3       4 GLP5        0.0000 
     22 CA         33.4255   32.1015  112.3625 C.3       2 GLC5        0.0000 
     23 CA         33.4140   33.8400  113.1740 C.3       4 GLP5        0.0000 
     24 CA         26.7285   28.6665  109.5410 C.3       2 GLC5        0.0000 
     25 CA         26.6880   30.4710  108.7120 C.3       6 GLL5        0.0000 
     26 CA         26.7115   33.3560  108.5230 C.3       2 GLC5        0.0000 
     27 CA         24.8680   32.4090  108.2790 C.3       6 GLL5        0.0000 
     28 CA         28.5550   34.3030  108.7670 C.3       4 GLP5        0.0000 
     29 CA         28.7840   27.1150  107.4720 C.3       2 GLC5        0.0000 
     30 CA         29.5210   28.5330  106.3600 C.3       6 GLL5        0.0000 
     31 CA         28.7820   26.7855  105.2730 C.3       2 GLC5        0.0000 
     32 CA         28.0430   25.0380  104.1860 C.3       4 GLP5        0.0000 
     33 CA         34.0325   26.7235  110.7680 C.3       2 GLC5        0.0000 
     34 CA         35.1020   26.8370  109.1720 C.3       6 GLL5        0.0000 
     35 CA         32.9630   26.6100  112.3640 C.3       4 GLP5        0.0000 
     36 CA         34.7300   25.6865  111.3225 C.3       2 GLC5        0.0000 
     37 CA         36.4970   24.7630  110.2810 C.3       6 GLL5        0.0000 
     38 CA         35.3640   23.4660  111.2555 C.3       2 GLC5        0.0000 
     39 CA         34.2310   22.1690  112.2300 C.3       4 GLP5        0.0000 
     40 CA         37.4985   25.9915  111.0250 C.3       2 GLC5        0.0000 
     41 CA         38.5000   27.2200  111.7690 C.3       4 GLP5        0.0000 
     42 CA         37.9530   24.7360  106.9390 C.3       2 GLC5        0.0000 
     43 CA         38.9240   25.5260  108.4340 C.3       6 GLL5        0.0000 
     44 CA         36.9820   23.9460  105.4440 C.3       4 GLP5        0.0000 
     45 CA         40.1590   24.0830  107.3340 C.3       2 GLC5        0.0000 
     46 CA         41.3940   22.6400  106.2340 C.3       4 GLP5        0.0000 
     47 CA         39.9635   24.5910  109.8935 C.3       2 GLC5        0.0000 
     48 CA         41.0030   23.6560  111.3530 C.3       4 GLP5        0.0000 
     49 CA         38.7120   26.3730  110.1015 C.3       2 GLC5        0.0000 
     50 N          38.6955   25.1165  105.0085 N.am      1 SEC2        0.0000 
     51 N          39.7920   25.8290  105.8330 N.am      5 SEL2        0.0000 
     52 N          37.5990   24.4040  104.1840 N.am      3 SEP2        0.0000 
     53 CA         43.4725   27.4750  105.2460 C.3       2 GLC5        0.0000 
     54 CA         41.7250   26.9820  106.2240 C.3       6 GLL5        0.0000 
     55 CA         45.2200   27.9680  104.2680 C.3       4 GLP5        0.0000 
     56 CA         43.8085   26.5430  108.8305 C.3       2 GLC5        0.0000 
     57 CA         41.7070   27.1130  108.7630 C.3       6 GLL5        0.0000 
     58 CA         45.9100   25.9730  108.8980 C.3       4 GLP5        0.0000 
     59 CA         41.8120   28.8980  109.1525 C.3       2 GLC5        0.0000 
     60 CA         41.9170   30.6830  109.5420 C.3       4 GLP5        0.0000 
     61 CA         41.3550   25.3845  110.0580 C.3       2 GLC5        0.0000 
     62 CA         40.8400   27.6730  110.4015 C.3       2 GLC5        0.0000 
     63 CA         39.9730   28.2330  112.0400 C.3       4 GLP5        0.0000 
     64 CA         36.3155   31.1220  111.7205 C.3       2 GLC5        0.0000 
     65 CA         35.4580   29.5970  110.5160 C.3       6 GLL5        0.0000 
     66 CA         37.1730   32.6470  112.9250 C.3       4 GLP5        0.0000 
     67 CA         36.4340   28.5570  111.6440 C.3       2 GLC5        0.0000 
     68 CA         37.4100   27.5170  112.7720 C.3       4 GLP5        0.0000 
     69 CA         29.0113   32.3080  109.4745 C.3       2 GLC5        0.0000 
     70 CA         30.3860   29.6628  112.3430 C.3       2 GLC5        0.0000 
     71 CA         30.1760   28.9560  114.0380 C.3       4 GLP5        0.0000 
     72 CA         31.5075   31.7357  109.9770 C.3       2 GLC5        0.0000 
     73 CA         32.4190   33.1020  109.3060 C.3       4 GLP5        0.0000 
     74 CA         33.0750   31.5725  110.1525 C.3       2 GLC5        0.0000 
     75 CA         34.0250   29.7230  110.4470 C.3       6 GLL5        0.0000 
     76 CA         32.6791   28.1074  111.0201 C.3       2 GLC5        0.0000 
     77 CA         32.3642   31.2224  109.2167 C.3       2 GLC5        0.0000 
     78 CA         33.2370   29.3090  109.3410 C.3       6 GLL5        0.0000 
     79 CA         27.3762   32.6542  108.8715 C.3       2 GLC5        0.0000 
     80 CA         37.1517   25.4790  106.6863 C.3       2 GLC5        0.0000 
     81 CA         37.3900   26.4690  108.3650 C.3       6 GLL5        0.0000 
     82 CA         37.9108   27.1160  109.8488 C.3       2 GLC5        0.0000 
     83 CA         33.8534   25.8373  108.8196 C.3       2 GLC5        0.0000 
     84 CA         36.3110   26.1200  109.2000 C.3       6 GLL5        0.0000 
     85 CA         36.4235   23.8693  108.8882 C.3       2 GLC5        0.0000 
     86 CA         36.4430   22.2970  108.0360 C.3       4 GLP5        0.0000 
     87 CA         37.1033   26.8493  110.4775 C.3       2 GLC5        0.0000 
     88 CA         33.7788   28.2150  111.5607 C.3       2 GLC5        0.0000 
@<TRIPOS>BOND
@<TRIPOS>SUBSTRUCTURE
     1 SEC2       50 GROUP        1 X    SEC  0     ROOT SEC X 2
     2 GLC5        1 GROUP        1 X    GLC  0     **** GLC X 6
     3 SEP2       52 GROUP        1 Y    SEP  0     ROOT SEP Y 9
     4 GLP5        3 GROUP        1 Y    GLP  0     **** GLP Y 13
     5 SEL2       51 GROUP        1 Z    SEL  0     ROOT SEL Z 16
     6 GLL5        2 GROUP        1 Z    GLL  0     **** GLL Z 20
@<TRIPOS>SET

