#    Name: 3f5p_741_12_ligand
#    Modification time : Tue Mar 25 03:14:10 2014

@<TRIPOS>MOLECULE
3f5p_741_12_ligand
   69    72     1     0     0
SMALL
NO_CHARGES


@<TRIPOS>ATOM
      1 C1         29.5620   29.4450  108.5270 C.ar      1 74113       0.0000 
      2 C2         29.0280   30.1190  109.6640 C.ar      1 74113       0.0000 
      3 C3         29.9070   30.5070  110.7000 C.ar      1 74113       0.0000 
      4 C4         31.2850   30.2320  110.5960 C.ar      1 74113       0.0000 
      5 C5         31.8220   29.5690  109.4270 C.ar      1 74113       0.0000 
      6 C6         30.9420   29.1840  108.4010 C.ar      1 74113       0.0000 
      7 N7         32.1400   30.6100  111.6100 N.pl3     1 74113       0.0000 
      8 C8         33.4370   30.3630  111.5510 C.ar      1 74113       0.0000 
      9 C9         34.0250   29.7230  110.4470 C.ar      1 74113       0.0000 
     10 C10        33.2370   29.3090  109.3410 C.ar      1 74113       0.0000 
     11 O11        28.7560   29.0550  107.4510 O.3       1 74113       0.0000 
     12 O12        27.6350   30.3290  109.7700 O.3       1 74113       0.0000 
     13 C13        26.6880   30.4710  108.7120 C.3       1 74113       0.0000 
     14 C14        25.7070   31.5400  109.2400 C.3       1 74113       0.0000 
     15 C15        24.8680   32.4090  108.2790 C.3       1 74113       0.0000 
     16 C16        29.5210   28.5330  106.3600 C.3       1 74113       0.0000 
     17 N17        33.7970   28.6600  108.2370 N.pl3     1 74113       0.0000 
     18 C18        34.9590   27.9210  108.3010 C.ar      1 74113       0.0000 
     19 C19        36.0430   28.2620  107.4740 C.ar      1 74113       0.0000 
     20 C20        37.2530   27.5550  107.4920 C.ar      1 74113       0.0000 
     21 C21        37.3900   26.4690  108.3650 C.ar      1 74113       0.0000 
     22 C22        36.3110   26.1200  109.2000 C.ar      1 74113       0.0000 
     23 C23        35.1020   26.8370  109.1720 C.ar      1 74113       0.0000 
     24 CL24       36.4970   24.7630  110.2810 Cl        1 74113       0.0000 
     25 S25        38.9240   25.5260  108.4340 S.3       1 74113       0.0000 
     26 C26        40.0530   26.0530  107.1370 C.2       1 74113       0.0000 
     27 N27        39.7920   25.8290  105.8330 N.2       1 74113       0.0000 
     28 C28        40.8680   26.4270  105.2410 C.2       1 74113       0.0000 
     29 C29        41.7250   26.9820  106.2240 C.2       1 74113       0.0000 
     30 N30        41.1770   26.7460  107.4450 N.pl3     1 74113       0.0000 
     31 C31        41.7070   27.1130  108.7630 C.3       1 74113       0.0000 
     32 C32        35.4580   29.5970  110.5160 C.1       1 74113       0.0000 
     33 N33        36.6210   29.5750  110.5820 N.1       1 74113       0.0000 
     34 N34        23.4430   32.1660  108.6290 N.4       1 74113       0.0000 
     35 C35        22.9480   32.8120  109.8700 C.3       1 74113       0.0000 
     36 C36        23.0070   30.7620  108.4870 C.3       1 74113       0.0000 
     37 C37        22.2870   34.1840  109.5760 C.3       1 74113       0.0000 
     38 O38        22.9140   35.3150  110.2360 O.3       1 74113       0.0000 
     39 H          29.5414   30.9873  111.5245 H         1 74113       0.0000 
     40 H          31.2988   28.7167  107.5662 H         1 74113       0.0000 
     41 H          31.7249   31.1062  112.4410 H         1 74113       0.0000 
     42 H          34.0795   30.6402  112.3369 H         1 74113       0.0000 
     43 H          26.1308   29.5739  108.5344 H         1 74113       0.0000 
     44 H          27.1292   30.8471  107.8117 H         1 74113       0.0000 
     45 H          26.2885   32.2377  109.9192 H         1 74113       0.0000 
     46 H          24.9928   31.0295  109.9579 H         1 74113       0.0000 
     47 H          25.0727   32.1009  107.2712 H         1 74113       0.0000 
     48 H          25.1295   33.4389  108.4316 H         1 74113       0.0000 
     49 H          33.3000   28.7446  107.3127 H         1 74113       0.0000 
     50 H          35.9418   29.0696  106.8248 H         1 74113       0.0000 
     51 H          38.0191   27.8270  106.8803 H         1 74113       0.0000 
     52 H          34.3326   26.5638  109.7876 H         1 74113       0.0000 
     53 H          41.0444   26.4792  104.2967 H         1 74113       0.0000 
     54 H          42.5360   27.4348  106.0285 H         1 74113       0.0000 
     55 H          22.8436   32.7244  107.7687 H         1 74113       0.0000 
     56 H          23.7713   32.9783  110.5723 H         1 74113       0.0000 
     57 H          22.2039   32.1784  110.3635 H         1 74113       0.0000 
     58 H          21.2162   34.0986  109.8649 H         1 74113       0.0000 
     59 H          22.2890   34.3169  108.4716 H         1 74113       0.0000 
     60 H          30.1691   29.2067  106.0049 H         1 74113       0.0000 
     61 H          30.0518   27.7295  106.6295 H         1 74113       0.0000 
     62 H          28.9378   28.2564  105.5962 H         1 74113       0.0000 
     63 H          41.9017   26.3073  109.3225 H         1 74113       0.0000 
     64 H          42.5588   27.6316  108.6895 H         1 74113       0.0000 
     65 H          41.0629   27.6787  109.2779 H         1 74113       0.0000 
     66 H          23.1082   30.4349  107.5475 H         1 74113       0.0000 
     67 H          23.5382   30.1474  109.0702 H         1 74113       0.0000 
     68 H          22.0457   30.6446  108.7363 H         1 74113       0.0000 
     69 H          23.8502   35.3330  109.8849 H         1 74113       0.0000 
@<TRIPOS>BOND
     1    2    1 ar   
     2    6    1 ar   
     3   11    1 1    
     4    3    2 ar   
     5   12    2 1    
     6    4    3 ar   
     7   39    3 1    
     8    5    4 ar   
     9    7    4 ar   
    10    6    5 ar   
    11   10    5 ar   
    12   40    6 1    
    13    8    7 ar   
    14   41    7 1    
    15    9    8 ar   
    16   42    8 1    
    17   10    9 ar   
    18   32    9 1    
    19   17   10 1    
    20   16   11 1    
    21   13   12 1    
    22   14   13 1    
    23   43   13 1    
    24   44   13 1    
    25   15   14 1    
    26   45   14 1    
    27   46   14 1    
    28   34   15 1    
    29   47   15 1    
    30   48   15 1    
    31   60   16 1    
    32   61   16 1    
    33   62   16 1    
    34   18   17 1    
    35   49   17 1    
    36   19   18 ar   
    37   23   18 ar   
    38   20   19 ar   
    39   50   19 1    
    40   21   20 ar   
    41   51   20 1    
    42   22   21 ar   
    43   25   21 1    
    44   23   22 ar   
    45   24   22 1    
    46   52   23 1    
    47   26   25 1    
    48   27   26 2    
    49   30   26 1    
    50   28   27 1    
    51   29   28 2    
    52   53   28 1    
    53   30   29 1    
    54   54   29 1    
    55   31   30 1    
    56   63   31 1    
    57   64   31 1    
    58   65   31 1    
    59   33   32 3    
    60   35   34 1    
    61   36   34 1    
    62   55   34 1    
    63   37   35 1    
    64   56   35 1    
    65   57   35 1    
    66   66   36 1    
    67   67   36 1    
    68   68   36 1    
    69   38   37 1    
    70   58   37 1    
    71   59   37 1    
    72   69   38 1    
@<TRIPOS>SUBSTRUCTURE
     1 74113       1 GROUP   
@<TRIPOS>SET

