#    Name: 3zhz_FM7_1_INTS_M
#    Modification time : Tue Mar 25 03:21:34 2014

@<TRIPOS>MOLECULE
3zhz_FM7_1_INTS_M
   65     0    12     0     0
SMALL
NO_CHARGES


@<TRIPOS>ATOM
      1 CA         16.5335   28.0790  -12.7675 C.3       4 GLC5        0.0000 
      2 CA         18.1380   28.6610  -13.2280 C.3      12 GLL5        0.0000 
      3 CA         14.9290   27.4970  -12.3070 C.3       8 GLP5        0.0000 
      4 CA         17.2715   27.8535  -11.2890 C.3       4 GLC5        0.0000 
      5 CA         19.2700   27.6650  -11.6610 C.3      12 GLL5        0.0000 
      6 CA         15.2730   28.0420  -10.9170 C.3       8 GLP5        0.0000 
      7 CA         21.1425   26.5425  -11.3065 C.3       4 GLC5        0.0000 
      8 CA         23.0150   25.4200  -10.9520 C.3       8 GLP5        0.0000 
      9 CA         22.0480   26.3795  -12.7285 C.3       4 GLC5        0.0000 
     10 CA         21.0810   27.3390  -14.5050 C.3      12 GLL5        0.0000 
     11 CA         16.8655   26.6260  -15.2975 C.3       4 GLC5        0.0000 
     12 CA         18.9010   26.3350  -14.3870 C.3      12 GLL5        0.0000 
     13 CA         14.8300   26.9170  -16.2080 C.3       8 GLP5        0.0000 
     14 CA         17.0455   25.2755  -15.8740 C.3       4 GLC5        0.0000 
     15 CA         19.2250   25.4460  -15.4010 C.3      12 GLL5        0.0000 
     16 CA         14.8660   25.1050  -16.3470 C.3       8 GLP5        0.0000 
     17 CA         18.9495   21.8625  -21.4550 C.3       4 GLC5        0.0000 
     18 CA         18.2950   22.8340  -19.6020 C.3      12 GLL5        0.0000 
     19 CA         19.6040   20.8910  -23.3080 C.3       8 GLP5        0.0000 
     20 N          15.0585   20.9475  -15.4720 N.am      2 SEC2        0.0000 
     21 N          16.2750   21.5770  -15.7980 N.am     10 SEL2        0.0000 
     22 N          13.8420   20.3180  -15.1460 N.am      6 SEP2        0.0000 
     23 O          17.3345   19.4595  -14.8190 O.2       1 ALC1        0.0000 
     24 O          17.9140   20.4240  -14.1560 O.2       9 ALL1        0.0000 
     25 O          16.7550   18.4950  -15.4820 O.2       5 ALP1        0.0000 
     26 O          18.3225   18.9900  -14.8510 O.2       1 ALC1        0.0000 
     27 O          18.7310   17.5560  -15.5460 O.2       5 ALP1        0.0000 
     28 N          24.3890   19.4565  -18.9590 N.am      2 SEC2        0.0000 
     29 N          23.9160   19.2360  -17.6550 N.am     10 SEL2        0.0000 
     30 N          24.8620   19.6770  -20.2630 N.am      6 SEP2        0.0000 
     31 N          24.7770   20.1580  -17.4305 N.am      2 SEC2        0.0000 
     32 N          25.6380   21.0800  -17.2060 N.am      6 SEP2        0.0000 
     33 N          24.8970   18.3090  -17.7565 N.am      2 SEC2        0.0000 
     34 N          25.8780   17.3820  -17.8580 N.am      6 SEP2        0.0000 
     35 NZ         21.1650   16.8955  -17.2735 N.4       3 LYC4        0.0000 
     36 NZ         21.9190   18.0100  -18.2410 N.4      11 LYL4        0.0000 
     37 NZ         20.4110   15.7810  -16.3060 N.4       7 LYP4        0.0000 
     38 N          22.5460   17.6000  -19.3940 N.am      2 SEC2        0.0000 
     39 N          21.9190   18.0100  -18.2410 N.am     10 SEL2        0.0000 
     40 N          23.1730   17.1900  -20.5470 N.am      6 SEP2        0.0000 
     41 NZ         21.5230   16.9545  -16.0800 N.4       3 LYC4        0.0000 
     42 NZ         22.6350   18.1280  -15.8540 N.4      11 LYL4        0.0000 
     43 N          22.1290   18.3865  -14.6475 N.am      2 SEC2        0.0000 
     44 N          22.6350   18.1280  -15.8540 N.am     10 SEL2        0.0000 
     45 N          21.6230   18.6450  -13.4410 N.am      6 SEP2        0.0000 
     46 CA         25.6110   25.8040  -16.5310 C.3       4 GLC5        0.0000 
     47 CA         24.1140   24.7420  -17.1830 C.3      12 GLL5        0.0000 
     48 CA         27.1080   26.8660  -15.8790 C.3       8 GLP5        0.0000 
     49 CA         18.3278   30.3400  -12.9931 C.3       4 GLC5        0.0000 
     50 CA         17.7000   31.9830  -12.9670 C.3       8 GLP5        0.0000 
     51 CA         17.6770   24.2175  -21.2265 C.3       4 GLC5        0.0000 
     52 CA         18.7350   24.1480  -19.4200 C.3      12 GLL5        0.0000 
     53 CA         16.8390   24.9440  -22.9420 C.3       8 GLP5        0.0000 
     54 CA         15.9527   21.4930  -17.6930 C.3       4 GLC5        0.0000 
     55 CA         17.8640   22.0980  -18.4960 C.3      12 GLL5        0.0000 
     56 CA         14.0400   20.6030  -17.5310 C.3       8 GLP5        0.0000 
     57 CA         16.5308   24.3068  -16.8753 C.3       4 GLC5        0.0000 
     58 CA         17.8670   22.6680  -17.2140 C.3      12 GLL5        0.0000 
     59 CA         24.0045   21.7043  -16.6653 C.3       4 GLC5        0.0000 
     60 CA         21.8300   21.4110  -17.7960 C.3      12 GLL5        0.0000 
     61 CA         25.7920   21.5120  -15.8620 C.3       8 GLP5        0.0000 
     62 CA         22.8220   20.7504  -20.1471 C.3       4 GLC5        0.0000 
     63 CA         23.7580   19.4850  -21.1110 C.3       8 GLP5        0.0000 
     64 CA         24.7030   22.8063  -16.7028 C.3       4 GLC5        0.0000 
     65 CA         23.1140   23.4590  -17.9040 C.3      12 GLL5        0.0000 
@<TRIPOS>BOND
@<TRIPOS>SUBSTRUCTURE
     1 ALC1       23 GROUP        1 X    ALC  0     ROOT ALC X 1
     2 SEC2       20 GROUP        1 X    SEC  0     **** SEC X 2
     3 LYC4       35 GROUP        1 X    LYC  0     **** LYC X 4
     4 GLC5        1 GROUP        1 X    GLC  0     **** GLC X 6
     5 ALP1       25 GROUP        1 Y    ALP  0     ROOT ALP Y 8
     6 SEP2       22 GROUP        1 Y    SEP  0     **** SEP Y 9
     7 LYP4       37 GROUP        1 Y    LYP  0     **** LYP Y 11
     8 GLP5        3 GROUP        1 Y    GLP  0     **** GLP Y 13
     9 ALL1       24 GROUP        1 Z    ALL  0     ROOT ALL Z 15
    10 SEL2       21 GROUP        1 Z    SEL  0     **** SEL Z 16
    11 LYL4       36 GROUP        1 Z    LYL  0     **** LYL Z 18
    12 GLL5        2 GROUP        1 Z    GLL  0     **** GLL Z 20
@<TRIPOS>SET

