#    Name: 3zhz_FM7_1_ligand
#    Modification time : Tue Mar 25 03:21:34 2014

@<TRIPOS>MOLECULE
3zhz_FM7_1_ligand
   54    56     1     0     0
SMALL
NO_CHARGES


@<TRIPOS>ATOM
      1 F1         20.2010   29.2330  -12.7640 F         1 FM71390     0.0000 
      2 C3         20.6640   20.3590  -15.6610 C.3       1 FM71390     0.0000 
      3 C30        19.3450   28.2330  -12.8570 C.3       1 FM71390     0.0000 
      4 F2         18.1380   28.6610  -13.2280 F         1 FM71390     0.0000 
      5 F3         19.2700   27.6650  -11.6610 F         1 FM71390     0.0000 
      6 C20        19.8040   27.2860  -13.9360 C.ar      1 FM71390     0.0000 
      7 C21        21.0810   27.3390  -14.5050 C.ar      1 FM71390     0.0000 
      8 C22        21.4240   26.4290  -15.5180 C.ar      1 FM71390     0.0000 
      9 C23        20.5040   25.4730  -15.9680 C.ar      1 FM71390     0.0000 
     10 C19        18.9010   26.3350  -14.3870 C.ar      1 FM71390     0.0000 
     11 C18        19.2250   25.4460  -15.4010 C.ar      1 FM71390     0.0000 
     12 N2         18.3070   24.5250  -15.7920 N.pl3     1 FM71390     0.0000 
     13 C13        18.3190   23.9740  -17.0390 C.ar      1 FM71390     0.0000 
     14 C14        18.7290   24.7240  -18.1470 C.ar      1 FM71390     0.0000 
     15 C15        18.7350   24.1480  -19.4200 C.ar      1 FM71390     0.0000 
     16 C16        18.2950   22.8340  -19.6020 C.ar      1 FM71390     0.0000 
     17 C17        17.8640   22.0980  -18.4960 C.ar      1 FM71390     0.0000 
     18 C12        17.8670   22.6680  -17.2140 C.ar      1 FM71390     0.0000 
     19 C4         17.4280   21.8090  -16.0380 C.2       1 FM71390     0.0000 
     20 O1         16.2750   21.5770  -15.7980 O.2       1 FM71390     0.0000 
     21 N1         18.3300   21.2360  -15.2450 N.am      1 FM71390     0.0000 
     22 O2         17.9140   20.4240  -14.1560 O.3       1 FM71390     0.0000 
     23 C2         19.7360   21.5550  -15.5300 C.3       1 FM71390     0.0000 
     24 C1         21.2800   20.2300  -17.0560 C.3       1 FM71390     0.0000 
     25 PA1        22.5180   18.8790  -17.1690 P.3       1 FM71390     0.0000 
     26 OP3        23.9160   19.2360  -17.6550 O.co2     1 FM71390     0.0000 
     27 OP2        21.9190   18.0100  -18.2410 O.co2     1 FM71390     0.0000 
     28 OP1        22.6350   18.1280  -15.8540 O.co2     1 FM71390     0.0000 
     29 C6         21.8300   21.4110  -17.7960 C.ar      1 FM71390     0.0000 
     30 C11        21.5800   21.5220  -19.1530 C.ar      1 FM71390     0.0000 
     31 C10        22.0670   22.5650  -19.8920 C.ar      1 FM71390     0.0000 
     32 C9         22.8370   23.5330  -19.2740 C.ar      1 FM71390     0.0000 
     33 CL2        23.4600   24.8630  -20.2280 Cl        1 FM71390     0.0000 
     34 C8         23.1140   23.4590  -17.9040 C.ar      1 FM71390     0.0000 
     35 CL1        24.1140   24.7420  -17.1830 Cl        1 FM71390     0.0000 
     36 C7         22.6040   22.3820  -17.1410 C.ar      1 FM71390     0.0000 
     37 H          20.1059   19.4403  -15.4334 H         1 FM71390     0.0000 
     38 H          21.4731   20.4452  -14.9226 H         1 FM71390     0.0000 
     39 H          21.7595   28.0326  -14.1880 H         1 FM71390     0.0000 
     40 H          22.3657   26.4660  -15.9352 H         1 FM71390     0.0000 
     41 H          20.7623   24.8098  -16.6949 H         1 FM71390     0.0000 
     42 H          17.9555   26.2871  -13.9533 H         1 FM71390     0.0000 
     43 H          17.5611   24.2252  -15.1121 H         1 FM71390     0.0000 
     44 H          19.0257   25.6989  -18.0234 H         1 FM71390     0.0000 
     45 H          19.0647   24.6934  -20.2270 H         1 FM71390     0.0000 
     46 H          18.2889   22.4168  -20.5341 H         1 FM71390     0.0000 
     47 H          17.5408   21.1286  -18.6196 H         1 FM71390     0.0000 
     48 H          19.8076   22.1513  -16.4712 H         1 FM71390     0.0000 
     49 H          20.1440   22.2219  -14.7329 H         1 FM71390     0.0000 
     50 H          20.4858   19.7425  -17.7465 H         1 FM71390     0.0000 
     51 H          21.0028   20.7854  -19.6190 H         1 FM71390     0.0000 
     52 H          21.8660   22.6346  -20.8989 H         1 FM71390     0.0000 
     53 H          22.7947   22.3181  -16.1515 H         1 FM71390     0.0000 
     54 H          17.8755   19.4956  -14.5255 H         1 FM71390     0.0000 
@<TRIPOS>BOND
     1    3    1 1    
     2   23    2 1    
     3   24    2 1    
     4   37    2 1    
     5   38    2 1    
     6    4    3 1    
     7    5    3 1    
     8    6    3 1    
     9    7    6 ar   
    10   10    6 ar   
    11    8    7 ar   
    12   39    7 1    
    13    9    8 ar   
    14   40    8 1    
    15   11    9 ar   
    16   41    9 1    
    17   11   10 ar   
    18   42   10 1    
    19   12   11 1    
    20   13   12 1    
    21   43   12 1    
    22   14   13 ar   
    23   18   13 ar   
    24   15   14 ar   
    25   44   14 1    
    26   16   15 ar   
    27   45   15 1    
    28   17   16 ar   
    29   46   16 1    
    30   18   17 ar   
    31   47   17 1    
    32   19   18 1    
    33   20   19 2    
    34   21   19 am   
    35   22   21 1    
    36   23   21 1    
    37   54   22 1    
    38   48   23 1    
    39   49   23 1    
    40   25   24 1    
    41   29   24 1    
    42   50   24 1    
    43   26   25 ar   
    44   27   25 ar   
    45   28   25 ar   
    46   30   29 ar   
    47   36   29 ar   
    48   31   30 ar   
    49   51   30 1    
    50   32   31 ar   
    51   52   31 1    
    52   33   32 1    
    53   34   32 ar   
    54   35   34 1    
    55   36   34 ar   
    56   53   36 1    
@<TRIPOS>SUBSTRUCTURE
     1 FM71390     1 GROUP   
@<TRIPOS>SET

