#    Name: 4loh_1SY_1_INTS_M
#    Modification time : Tue Apr  8 00:05:46 2014

@<TRIPOS>MOLECULE
4loh_1SY_1_INTS_M
   61     0    12     0     0
SMALL
NO_CHARGES


@<TRIPOS>ATOM
      1 CA        -55.2320    3.0000   64.6950 C.3       4 GLC5        0.0000 
      2 CA        -55.8220    3.1810   66.5030 C.3      12 GLL5        0.0000 
      3 CA        -54.6420    2.8190   62.8870 C.3       8 GLP5        0.0000 
      4 CA        -54.4520    5.8855   66.5915 C.3       4 GLC5        0.0000 
      5 CA        -56.5020    5.3850   66.9380 C.3      12 GLL5        0.0000 
      6 CA        -52.4020    6.3860   66.2450 C.3       8 GLP5        0.0000 
      7 CA        -58.6695    2.9045   68.9200 C.3       4 GLC5        0.0000 
      8 CA        -56.7510    3.7350   68.5170 C.3      12 GLL5        0.0000 
      9 CA        -60.5880    2.0740   69.3230 C.3       8 GLP5        0.0000 
     10 N         -57.4490    6.8280   70.1890 N.am      2 SEC2        0.0000 
     11 N         -57.4210    5.6540   69.1520 N.am     10 SEL2        0.0000 
     12 N         -57.4770    8.0020   71.2260 N.am      6 SEP2        0.0000 
     13 CA        -58.8490    2.2010   69.7580 C.3       4 GLC5        0.0000 
     14 CA        -57.1100    2.3280   70.1930 C.3      12 GLL5        0.0000 
     15 CA        -54.3125    1.1205   69.7975 C.3       4 GLC5        0.0000 
     16 CA        -55.8170    2.1110   70.5680 C.3      12 GLL5        0.0000 
     17 CA        -52.8080    0.1300   69.0270 C.3       8 GLP5        0.0000 
     18 CA        -58.5530    0.4660   72.6140 C.3       4 GLC5        0.0000 
     19 CA        -57.1990    2.1300   72.5380 C.3      12 GLL5        0.0000 
     20 CA        -59.9070   -1.1980   72.6900 C.3       8 GLP5        0.0000 
     21 CA        -58.4845    1.5555   75.3650 C.3       4 GLC5        0.0000 
     22 CA        -57.8180    2.8620   73.7640 C.3      12 GLL5        0.0000 
     23 CA        -59.1510    0.2490   76.9660 C.3       8 GLP5        0.0000 
     24 NZ        -57.8810    7.3050   72.4885 N.4       3 LYC4        0.0000 
     25 NZ        -58.2850    6.6080   73.7510 N.4      11 LYL4        0.0000 
     26 NZ        -58.0760    9.1470   71.4330 N.4       7 LYP4        0.0000 
     27 N         -58.3955    8.0295   73.2065 N.am      2 SEC2        0.0000 
     28 N         -58.2850    6.6080   73.7510 N.am     10 SEL2        0.0000 
     29 N         -58.5060    9.4510   72.6620 N.am      6 SEP2        0.0000 
     30 N         -57.8810    7.3050   72.4885 N.am      2 SEC2        0.0000 
     31 CA        -52.5350    5.1380   77.1875 C.3       4 GLC5        0.0000 
     32 CA        -53.5080    4.8580   75.6540 C.3      12 GLL5        0.0000 
     33 CA        -51.5620    5.4180   78.7210 C.3       8 GLP5        0.0000 
     34 CA        -52.1745    6.6470   75.3820 C.3       4 GLC5        0.0000 
     35 CA        -50.8410    8.4360   75.1100 C.3       8 GLP5        0.0000 
     36 CA        -50.9765    4.2585   74.1740 C.3       4 GLC5        0.0000 
     37 CA        -52.8470    3.9320   74.6380 C.3      12 GLL5        0.0000 
     38 CA        -49.1060    4.5850   73.7100 C.3       8 GLP5        0.0000 
     39 NZ        -53.6480    4.7740   70.2035 N.4       3 LYC4        0.0000 
     40 NZ        -53.2810    3.5950   70.9640 N.4      11 LYL4        0.0000 
     41 NZ        -53.3990    5.6510   68.3390 N.4       7 LYP4        0.0000 
     42 N         -53.0995    4.0095   69.5660 N.am      2 SEC2        0.0000 
     43 N         -53.2810    3.5950   70.9640 N.am     10 SEL2        0.0000 
     44 N         -52.9180    4.4240   68.1680 N.am      6 SEP2        0.0000 
     45 N         -53.6480    4.7740   70.2035 N.am      2 SEC2        0.0000 
     46 N         -54.0150    5.9530   69.4430 N.am      6 SEP2        0.0000 
     47 CA        -54.0810    7.3615   76.9060 C.3       4 GLC5        0.0000 
     48 CA        -54.7440    6.7950   75.0090 C.3      12 GLL5        0.0000 
     49 CA        -53.4180    7.9280   78.8030 C.3       8 GLP5        0.0000 
     50 CA        -52.7925    7.6155   75.0595 C.3       4 GLC5        0.0000 
     51 N         -54.0375    7.0315   70.5965 N.am      2 SEC2        0.0000 
     52 N         -54.0600    8.1100   71.7500 N.am     10 SEL2        0.0000 
     53 CA        -52.8605    8.5745   74.3765 C.3       4 GLC5        0.0000 
     54 CA        -54.8800    8.7130   73.6430 C.3      12 GLL5        0.0000 
     55 O         -57.4645   10.8520   75.8775 O.2       1 ALC1        0.0000 
     56 O         -56.2910   11.3970   75.2410 O.2       9 ALL1        0.0000 
     57 O         -58.6380   10.3070   76.5140 O.2       5 ALP1        0.0000 
     58 CA        -57.2758    0.3363   70.3132 C.3       4 GLC5        0.0000 
     59 CA        -58.0880   -1.5470   70.2460 C.3       8 GLP5        0.0000 
     60 CA        -52.8118    2.7500   76.5065 C.3       4 GLC5        0.0000 
     61 CA        -52.4460    1.1050   77.8670 C.3       8 GLP5        0.0000 
@<TRIPOS>BOND
@<TRIPOS>SUBSTRUCTURE
     1 ALC1       55 GROUP        1 X    ALC  0     ROOT ALC X 1
     2 SEC2       10 GROUP        1 X    SEC  0     **** SEC X 2
     3 LYC4       24 GROUP        1 X    LYC  0     **** LYC X 4
     4 GLC5        1 GROUP        1 X    GLC  0     **** GLC X 6
     5 ALP1       57 GROUP        1 Y    ALP  0     ROOT ALP Y 8
     6 SEP2       12 GROUP        1 Y    SEP  0     **** SEP Y 9
     7 LYP4       26 GROUP        1 Y    LYP  0     **** LYP Y 11
     8 GLP5        3 GROUP        1 Y    GLP  0     **** GLP Y 13
     9 ALL1       56 GROUP        1 Z    ALL  0     ROOT ALL Z 15
    10 SEL2       11 GROUP        1 Z    SEL  0     **** SEL Z 16
    11 LYL4       25 GROUP        1 Z    LYL  0     **** LYL Z 18
    12 GLL5        2 GROUP        1 Z    GLL  0     **** GLL Z 20
@<TRIPOS>SET

