#    Name: 4loh_1SY_1_ligand
#    Modification time : Tue Apr  8 00:05:46 2014

@<TRIPOS>MOLECULE
4loh_1SY_1_ligand
   66    72     1     0     0
SMALL
NO_CHARGES


@<TRIPOS>ATOM
      1 C2        -55.8220    3.1810   66.5030 C.ar      1 1SY401      0.0000 
      2 N01       -56.6460    6.6750   66.5980 N.pl3     1 1SY401      0.0000 
      3 C6        -56.5020    5.3850   66.9380 C.ar      1 1SY401      0.0000 
      4 N1        -55.9770    4.5060   66.1300 N.ar      1 1SY401      0.0000 
      5 N3        -56.2230    2.7770   67.7330 N.ar      1 1SY401      0.0000 
      6 C4        -56.7510    3.7350   68.5170 C.ar      1 1SY401      0.0000 
      7 C5        -56.8660    5.0020   68.1480 C.ar      1 1SY401      0.0000 
      8 N7        -57.4210    5.6540   69.1520 N.2       1 1SY401      0.0000 
      9 C8        -57.6400    4.8140   70.1560 C.2       1 1SY401      0.0000 
     10 N9        -57.2220    3.6250   69.7310 N.pl3     1 1SY401      0.0000 
     11 C1'       -57.1100    2.3280   70.1930 C.3       1 1SY401      0.0000 
     12 C2'       -55.8170    2.1110   70.5680 C.3       1 1SY401      0.0000 
     13 O2'       -55.5150    0.5870   70.5310 O.3       1 1SY401      0.0000 
     14 C3'       -55.9180    2.7070   71.9900 C.3       1 1SY401      0.0000 
     15 C4'       -57.1990    2.1300   72.5380 C.3       1 1SY401      0.0000 
     16 C16       -57.8180    2.8620   73.7640 C.3       1 1SY401      0.0000 
     17 O17       -58.0520    4.1860   73.3590 O.3       1 1SY401      0.0000 
     18 P18       -58.1220    5.3240   74.4520 P.3       1 1SY401      0.0000 
     19 O19       -58.2850    6.6080   73.7510 O.co2     1 1SY401      0.0000 
     20 O20       -56.8590    5.5490   75.3660 O.3       1 1SY401      0.0000 
     21 C21       -55.5740    5.4880   74.8530 C.3       1 1SY401      0.0000 
     22 C22       -54.9320    4.4450   75.7340 C.3       1 1SY401      0.0000 
     23 O23       -55.4310    4.3240   77.2020 O.3       1 1SY401      0.0000 
     24 C24       -53.5080    4.8580   75.6540 C.3       1 1SY401      0.0000 
     25 C25       -52.8470    3.9320   74.6380 C.3       1 1SY401      0.0000 
     26 O26       -53.3560    4.2090   73.2980 O.3       1 1SY401      0.0000 
     27 P27       -53.3850    2.9870   72.3280 P.3       1 1SY401      0.0000 
     28 O28       -54.8040    2.1850   72.6620 O.3       1 1SY401      0.0000 
     29 O29       -52.3000    2.0280   72.8050 O.co2     1 1SY401      0.0000 
     30 O30       -53.2810    3.5950   70.9640 O.co2     1 1SY401      0.0000 
     31 O31       -53.4480    6.2690   75.1930 O.3       1 1SY401      0.0000 
     32 C32       -54.7440    6.7950   75.0090 C.3       1 1SY401      0.0000 
     33 N33       -54.5310    7.4790   73.7720 N.pl3     1 1SY401      0.0000 
     34 C34       -53.9920    7.0880   72.5960 C.2       1 1SY401      0.0000 
     35 N35       -54.0600    8.1100   71.7500 N.2       1 1SY401      0.0000 
     36 C36       -54.8800    8.7130   73.6430 C.2       1 1SY401      0.0000 
     37 C37       -54.6190    9.1170   72.3820 C.2       1 1SY401      0.0000 
     38 C38       -54.8910   10.3590   72.0140 C.2       1 1SY401      0.0000 
     39 N39       -55.4690   11.1450   72.9530 N.2       1 1SY401      0.0000 
     40 C40       -55.7330   10.6970   74.2640 C.2       1 1SY401      0.0000 
     41 N41       -56.2910   11.3970   75.2410 N.pl3     1 1SY401      0.0000 
     42 N42       -55.4380    9.4700   74.6030 N.pl3     1 1SY401      0.0000 
     43 O43       -54.6530   10.8180   70.8840 O.2       1 1SY401      0.0000 
     44 O44       -59.2160    5.0850   75.5120 O.co2     1 1SY401      0.0000 
     45 O4'       -57.9600    2.2550   71.4110 O.3       1 1SY401      0.0000 
     46 H         -55.4006    2.5133   65.8361 H         1 1SY401      0.0000 
     47 H         -56.3525    6.9221   65.6745 H         1 1SY401      0.0000 
     48 H         -57.0340    7.2740   67.2985 H         1 1SY401      0.0000 
     49 H         -58.0202    5.0197   71.0103 H         1 1SY401      0.0000 
     50 H         -57.4701    1.6193   69.4892 H         1 1SY401      0.0000 
     51 H         -55.1261    2.6573   70.0212 H         1 1SY401      0.0000 
     52 H         -55.9603    3.7292   71.9165 H         1 1SY401      0.0000 
     53 H         -57.0204    1.0998   72.7754 H         1 1SY401      0.0000 
     54 H         -57.1020    2.7842   74.5732 H         1 1SY401      0.0000 
     55 H         -58.7247    2.3298   74.0252 H         1 1SY401      0.0000 
     56 H         -55.5200    5.1492   73.8565 H         1 1SY401      0.0000 
     57 H         -55.0176    3.4841   75.2350 H         1 1SY401      0.0000 
     58 H         -53.0408    4.7394   76.5931 H         1 1SY401      0.0000 
     59 H         -53.0555    2.8981   74.9291 H         1 1SY401      0.0000 
     60 H         -51.7649    4.0874   74.6848 H         1 1SY401      0.0000 
     61 H         -55.0593    7.3503   75.7777 H         1 1SY401      0.0000 
     62 H         -53.6236    6.2118   72.4149 H         1 1SY401      0.0000 
     63 H         -55.6137    9.0912   75.5372 H         1 1SY401      0.0000 
     64 H         -55.1423    0.3751   71.4344 H         1 1SY401      0.0000 
     65 H         -56.4035    4.5537   77.1644 H         1 1SY401      0.0000 
     66 H         -57.0770   10.8522   75.5333 H         1 1SY401      0.0000 
@<TRIPOS>BOND
     1    4    1 ar   
     2    5    1 ar   
     3   46    1 1    
     4    3    2 1    
     5   47    2 1    
     6   48    2 1    
     7    4    3 ar   
     8    7    3 ar   
     9    6    5 ar   
    10    7    6 ar   
    11   10    6 1    
    12    8    7 1    
    13    9    8 2    
    14   10    9 1    
    15   49    9 1    
    16   11   10 1    
    17   12   11 1    
    18   45   11 1    
    19   50   11 1    
    20   13   12 1    
    21   14   12 1    
    22   51   12 1    
    23   64   13 1    
    24   15   14 1    
    25   28   14 1    
    26   52   14 1    
    27   16   15 1    
    28   45   15 1    
    29   53   15 1    
    30   17   16 1    
    31   54   16 1    
    32   55   16 1    
    33   18   17 1    
    34   19   18 ar   
    35   20   18 1    
    36   44   18 ar   
    37   21   20 1    
    38   22   21 1    
    39   32   21 1    
    40   56   21 1    
    41   23   22 1    
    42   24   22 1    
    43   57   22 1    
    44   65   23 1    
    45   25   24 1    
    46   31   24 1    
    47   58   24 1    
    48   26   25 1    
    49   59   25 1    
    50   60   25 1    
    51   27   26 1    
    52   28   27 1    
    53   29   27 ar   
    54   30   27 ar   
    55   32   31 1    
    56   33   32 1    
    57   61   32 1    
    58   34   33 1    
    59   36   33 1    
    60   35   34 2    
    61   62   34 1    
    62   37   35 1    
    63   37   36 2    
    64   42   36 1    
    65   38   37 1    
    66   39   38 1    
    67   43   38 2    
    68   40   39 2    
    69   41   40 1    
    70   42   40 1    
    71   66   41 1    
    72   63   42 1    
@<TRIPOS>SUBSTRUCTURE
     1 1SY401      1 GROUP   
@<TRIPOS>SET

