#    Name: 1TB3_8_CAVITY_N1_6.mol2
#    Modification time : Tue Mar 11 10:43:33 2014

@<TRIPOS>MOLECULE
1TB3_8_CAVITY_N1_6.mol2
   87     0     7     0     0
SMALL
NO_CHARGES


@<TRIPOS>ATOM
      1 OD1        59.3908   19.6524   85.0447 O.3       3 ASP3        0.0000 
      2 O          57.3032   19.9234   84.7827 O.2       2 ALA2        0.0000 
      3 NZ         58.3167   18.9396   84.2778 N.2       4 LYS4        0.0000 
      4 N          59.3301   17.9557   83.7729 N.2       2 ALA2        0.0000 
      5 O          56.2291   19.2106   84.0158 O.2       2 ALA2        0.0000 
      6 CA         57.2426   18.2267   83.5109 C.3       6 GLY6        0.0000 
      7 CA         58.2560   17.2428   83.0060 C.3       6 GLY6        0.0000 
      8 O          55.1550   18.4977   83.2489 O.2       2 ALA2        0.0000 
      9 CA         56.1685   17.5139   82.7440 C.3       6 GLY6        0.0000 
     10 O          54.0809   17.7849   82.4819 O.2       2 ALA2        0.0000 
     11 O          55.0944   16.8010   81.9771 O.2       2 ALA2        0.0000 
     12 CZ         59.2306   11.7564   86.7409 C.ar      5 PHE5        0.0000 
     13 CZ         60.2440   10.7725   86.2360 C.ar      5 PHE5        0.0000 
     14 CZ         64.0749   13.5614   92.9478 C.ar      5 PHE5        0.0000 
     15 CZ         65.0883   12.5775   92.4429 C.ar      5 PHE5        0.0000 
     16 DU         63.0008   12.8485   92.1809 H         7 CUB7        0.0000 
     17 CZ         64.0142   11.8646   91.6760 C.ar      5 PHE5        0.0000 
     18 O          60.9132   13.1195   91.9188 O.2       2 ALA2        0.0000 
     19 CZ         61.9267   12.1357   91.4139 C.ar      5 PHE5        0.0000 
     20 CZ         62.9401   11.1518   90.9091 C.ar      5 PHE5        0.0000 
     21 CZ         64.3986   16.1378   93.0334 C.ar      5 PHE5        0.0000 
     22 CA         62.3110   16.4088   92.7713 C.3       6 GLY6        0.0000 
     23 CA         63.3245   15.4249   92.2665 C.3       6 GLY6        0.0000 
     24 CZ         64.3380   14.4411   91.7616 C.ar      5 PHE5        0.0000 
     25 CA         61.2369   15.6959   92.0044 C.3       6 GLY6        0.0000 
     26 CA         62.2504   14.7121   91.4996 C.3       6 GLY6        0.0000 
     27 CZ         63.2639   13.7282   90.9947 C.ar      5 PHE5        0.0000 
     28 CZ         64.2773   12.7443   90.4898 C.ar      5 PHE5        0.0000 
     29 O          60.1628   14.9831   91.2375 O.2       2 ALA2        0.0000 
     30 O          61.1763   13.9992   90.7327 O.2       2 ALA2        0.0000 
     31 CA         62.1898   13.0153   90.2278 C.3       6 GLY6        0.0000 
     32 CA         63.2032   12.0315   89.7229 C.3       6 GLY6        0.0000 
     33 O          60.1022   13.2863   89.9658 O.2       2 ALA2        0.0000 
     34 CZ         61.1157   12.3025   89.4609 C.ar      5 PHE5        0.0000 
     35 OG         63.0397   17.3511   87.9411 O.2       1 SER1        0.0000 
     36 OG         64.0531   16.3672   87.4362 O.2       1 SER1        0.0000 
     37 N          61.9656   16.6382   87.1742 N.2       2 ALA2        0.0000 
     38 O          62.9790   15.6543   86.6693 O.2       2 ALA2        0.0000 
     39 N          59.8780   16.9092   86.9122 N.2       2 ALA2        0.0000 
     40 N          60.8915   15.9254   86.4073 N.2       2 ALA2        0.0000 
     41 CA         57.7905   17.1802   86.6501 C.3       6 GLY6        0.0000 
     42 O          58.8039   16.1964   86.1452 O.2       2 ALA2        0.0000 
     43 CA         59.8174   15.2125   85.6404 C.3       6 GLY6        0.0000 
     44 CA         57.7298   15.4835   85.3783 C.3       6 GLY6        0.0000 
     45 CA         58.7433   14.4996   84.8735 C.3       6 GLY6        0.0000 
     46 CA         56.6558   14.7706   84.6114 C.3       6 GLY6        0.0000 
     47 CA         57.6692   13.7868   84.1066 C.3       6 GLY6        0.0000 
     48 OG         63.5876   16.3046   91.0803 O.2       1 SER1        0.0000 
     49 N          61.5000   16.5756   90.8183 N.2       2 ALA2        0.0000 
     50 OG         62.5135   15.5917   90.3134 O.2       1 SER1        0.0000 
     51 CZ         63.5270   14.6079   89.8086 C.ar      5 PHE5        0.0000 
     52 N          60.4259   15.8627   90.0514 N.2       2 ALA2        0.0000 
     53 DU         61.4394   14.8789   89.5465 H         7 CUB7        0.0000 
     54 CA         62.4529   13.8950   89.0416 C.3       6 GLY6        0.0000 
     55 O          59.3518   15.1499   89.2845 O.2       2 ALA2        0.0000 
     56 O          60.3653   14.1660   88.7796 O.2       2 ALA2        0.0000 
     57 CA         61.3788   13.1821   88.2747 C.3       6 GLY6        0.0000 
     58 CZ         60.3047   12.4693   87.5078 C.ar      5 PHE5        0.0000 
     59 N          61.3181   11.4854   87.0030 N.2       2 ALA2        0.0000 
     60 NZ         56.4922   20.0903   82.8296 N.2       4 LYS4        0.0000 
     61 NZ         57.5057   19.1064   82.3247 N.2       4 LYS4        0.0000 
     62 O          55.4181   19.3774   82.0627 O.2       2 ALA2        0.0000 
     63 CA         56.4316   18.3935   81.5578 C.3       6 GLY6        0.0000 
     64 CA         54.3440   18.6645   81.2958 C.3       6 GLY6        0.0000 
     65 O          55.3575   17.6807   80.7909 O.2       2 ALA2        0.0000 
     66 CA         59.1277   18.7728   86.2309 C.3       6 GLY6        0.0000 
     67 N          60.1411   17.7889   85.7260 N.2       2 ALA2        0.0000 
     68 N          58.0536   18.0599   85.4640 N.2       2 ALA2        0.0000 
     69 N          59.0670   17.0760   84.9591 N.2       2 ALA2        0.0000 
     70 CA         55.9660   18.3309   85.2019 C.3       6 GLY6        0.0000 
     71 CA         56.9795   17.3470   84.6971 C.3       6 GLY6        0.0000 
     72 CA         57.9929   16.3632   84.1922 C.3       6 GLY6        0.0000 
     73 O          54.8919   17.6181   84.4350 O.2       2 ALA2        0.0000 
     74 O          55.9054   16.6342   83.9301 O.2       2 ALA2        0.0000 
     75 O          56.9188   15.6503   83.4253 O.2       2 ALA2        0.0000 
     76 OG         62.7766   16.4714   89.1273 O.2       1 SER1        0.0000 
     77 CA         63.7900   15.4875   88.6224 C.3       6 GLY6        0.0000 
     78 N          61.7025   15.7585   88.3604 N.2       2 ALA2        0.0000 
     79 O          62.7160   14.7747   87.8555 O.2       2 ALA2        0.0000 
     80 N          59.6149   16.0296   88.0983 N.2       2 ALA2        0.0000 
     81 DU         60.6284   15.0457   87.5934 H         7 CUB7        0.0000 
     82 O          61.6419   14.0618   87.0886 O.2       2 ALA2        0.0000 
     83 O          59.5543   14.3328   86.8265 O.2       2 ALA2        0.0000 
     84 O          60.5678   13.3489   86.3217 O.2       2 ALA2        0.0000 
     85 OD1        58.4802   13.6200   86.0596 O.3       3 ASP3        0.0000 
     86 CA         59.4937   12.6361   85.5548 C.3       6 GLY6        0.0000 
     87 O          57.4061   12.9071   85.2927 O.2       2 ALA2        0.0000 
@<TRIPOS>BOND
@<TRIPOS>SUBSTRUCTURE
     1 SER1       35 GROUP   
     2 ALA2        2 GROUP   
     3 ASP3        1 GROUP   
     4 LYS4        3 GROUP   
     5 PHE5       12 GROUP   
     6 GLY6        6 GROUP   
     7 CUB7       16 GROUP   
@<TRIPOS>SET

