#    Name: 1tb3_FMN_8_INTS_M
#    Modification time : Tue Mar 25 04:43:15 2014

@<TRIPOS>MOLECULE
1tb3_FMN_8_INTS_M
   92     0    12     0     0
SMALL
NO_CHARGES


@<TRIPOS>ATOM
      1 N          63.9695   21.3990   87.2310 N.am      2 SEC2        0.0000 
      2 N          63.3590   20.3290   86.8550 N.am     10 SEL2        0.0000 
      3 N          64.5800   22.4690   87.6070 N.am      6 SEP2        0.0000 
      4 N          62.1690   20.9990   86.2040 N.am      2 SEC2        0.0000 
      5 N          60.9790   21.6690   85.5530 N.am      6 SEP2        0.0000 
      6 O          65.3335   18.3440   87.0520 O.2       1 ALC1        0.0000 
      7 O          63.8450   18.0870   87.2140 O.2       9 ALL1        0.0000 
      8 O          66.8220   18.6010   86.8900 O.2       5 ALP1        0.0000 
      9 N          65.5260   15.3545   86.8725 N.am      2 SEC2        0.0000 
     10 N          64.4110   15.9550   87.5790 N.am     10 SEL2        0.0000 
     11 N          66.6410   14.7540   86.1660 N.am      6 SEP2        0.0000 
     12 N          62.6665   14.0745   86.1010 N.am      2 SEC2        0.0000 
     13 N          61.7700   15.0650   86.7970 N.am     10 SEL2        0.0000 
     14 N          63.5630   13.0840   85.4050 N.am      6 SEP2        0.0000 
     15 CA         59.1525   10.2690   87.0635 C.3       4 GLC5        0.0000 
     16 CA         58.5300   11.5070   85.9190 C.3      12 GLL5        0.0000 
     17 CA         59.7750    9.0310   88.2080 C.3       8 GLP5        0.0000 
     18 CA         56.8830   10.5475   85.9385 C.3       4 GLC5        0.0000 
     19 CA         55.2360    9.5880   85.9580 C.3       8 GLP5        0.0000 
     20 CA         55.8960   11.5945   85.5100 C.3       4 GLC5        0.0000 
     21 CA         56.5560   13.6010   85.0620 C.3      12 GLL5        0.0000 
     22 CA         55.3680   13.6570   83.8260 C.3       4 GLC5        0.0000 
     23 CA         54.1800   13.7130   82.5900 C.3       8 GLP5        0.0000 
     24 CA         57.6135   12.1715   83.7670 C.3       4 GLC5        0.0000 
     25 CA         58.6710   10.7420   82.4720 C.3       8 GLP5        0.0000 
     26 CA         58.6910   18.5050   87.4435 C.3       4 GLC5        0.0000 
     27 CA         59.0750   18.0970   85.6330 C.3      12 GLL5        0.0000 
     28 CA         58.3070   18.9130   89.2540 C.3       8 GLP5        0.0000 
     29 CA         59.8360   16.7565   83.3585 C.3       4 GLC5        0.0000 
     30 CA         59.2440   18.5700   84.1540 C.3      12 GLL5        0.0000 
     31 CA         60.4280   14.9430   82.5630 C.3       8 GLP5        0.0000 
     32 N          60.7460   20.4405   84.7940 N.am      2 SEC2        0.0000 
     33 N          60.5130   19.2120   84.0350 N.am     10 SEL2        0.0000 
     34 O          61.3760   18.2395   83.9000 O.2       1 ALC1        0.0000 
     35 O          60.5130   19.2120   84.0350 O.2       9 ALL1        0.0000 
     36 O          62.2390   17.2670   83.7650 O.2       5 ALP1        0.0000 
     37 N          59.5850   21.1695   85.0900 N.am      2 SEC2        0.0000 
     38 N          58.1910   20.6700   84.6270 N.am     10 SEL2        0.0000 
     39 N          57.8545   22.3380   84.9650 N.am      2 SEC2        0.0000 
     40 N          57.5180   24.0060   85.3030 N.am      6 SEP2        0.0000 
     41 O          58.3425   21.4175   83.4780 O.2       1 ALC1        0.0000 
     42 O          58.1910   20.6700   84.6270 O.2       9 ALL1        0.0000 
     43 O          58.4940   22.1650   82.3290 O.2       5 ALP1        0.0000 
     44 CA         56.6955   21.1670   81.4425 C.3       4 GLC5        0.0000 
     45 CA         56.1420   19.5020   82.4670 C.3      12 GLL5        0.0000 
     46 CA         57.2490   22.8320   80.4180 C.3       8 GLP5        0.0000 
     47 CA         54.6130   20.7460   82.0115 C.3       4 GLC5        0.0000 
     48 CA         53.0840   21.9900   81.5560 C.3       8 GLP5        0.0000 
     49 NZ         52.0600   17.5565   80.7945 N.4       3 LYC4        0.0000 
     50 NZ         52.8100   18.5070   81.2800 N.4      11 LYL4        0.0000 
     51 NZ         51.2210   16.7790   78.9990 N.4       7 LYP4        0.0000 
     52 N          52.4755   18.0100   79.8295 N.am      2 SEC2        0.0000 
     53 N          52.8100   18.5070   81.2800 N.am     10 SEL2        0.0000 
     54 N          52.1410   17.5130   78.3790 N.am      6 SEP2        0.0000 
     55 N          52.0600   17.5565   80.7945 N.am      2 SEC2        0.0000 
     56 N          51.3100   16.6060   80.3090 N.am      6 SEP2        0.0000 
     57 N          52.0930   19.6145   80.8410 N.am      2 SEC2        0.0000 
     58 N          51.3760   20.7220   80.4020 N.am      6 SEP2        0.0000 
     59 NZ         53.6630   16.5745   82.9255 N.4       3 LYC4        0.0000 
     60 NZ         54.5930   16.8250   81.8070 N.4      11 LYL4        0.0000 
     61 NZ         52.6350   15.3470   84.9310 N.4       7 LYP4        0.0000 
     62 N          55.3455   15.8170   81.1800 N.am      2 SEC2        0.0000 
     63 N          54.5930   16.8250   81.8070 N.am     10 SEL2        0.0000 
     64 N          56.0980   14.8090   80.5530 N.am      6 SEP2        0.0000 
     65 N          53.6630   16.5745   82.9255 N.am      2 SEC2        0.0000 
     66 N          52.7330   16.3240   84.0440 N.am      6 SEP2        0.0000 
     67 N          53.4960   17.9435   79.1780 N.am      2 SEC2        0.0000 
     68 N          54.8510   18.3740   79.9770 N.am     10 SEL2        0.0000 
     69 N          56.0615   17.8870   79.5485 N.am      2 SEC2        0.0000 
     70 N          57.2720   17.4000   79.1200 N.am      6 SEP2        0.0000 
     71 CA         61.4783   14.2897   85.0362 C.3       4 GLC5        0.0000 
     72 CA         60.4740   14.7170   86.3790 C.3      12 GLL5        0.0000 
     73 CA         62.6580   14.5360   83.7070 C.3       8 GLP5        0.0000 
     74 CA         59.4050   14.2088   84.1450 C.3       4 GLC5        0.0000 
     75 CA         58.8520   12.9830   85.9300 C.3      12 GLL5        0.0000 
     76 CA         58.6810   11.4935   84.1983 C.3       4 GLC5        0.0000 
     77 CA         56.4965   14.8607   86.6755 C.3       4 GLC5        0.0000 
     78 CA         57.9120   13.9660   85.5240 C.3      12 GLL5        0.0000 
     79 CA         55.7590   15.9380   88.0580 C.3       8 GLP5        0.0000 
     80 CA         59.6545   15.2282   84.1615 C.3       4 GLC5        0.0000 
     81 CA         58.2360   15.3120   85.5460 C.3      12 GLL5        0.0000 
     82 CA         57.3200   15.7257   86.9090 C.3       4 GLC5        0.0000 
     83 CA         59.5260   15.7150   85.9740 C.3      12 GLL5        0.0000 
     84 CA         59.7185   19.4205   82.1340 C.3       4 GLC5        0.0000 
     85 CA         60.7390   19.7780   80.3240 C.3       8 GLP5        0.0000 
     86 CA         60.0605   20.6910   84.1195 C.3       4 GLC5        0.0000 
     87 CA         61.4230   22.3190   84.2950 C.3       8 GLP5        0.0000 
     88 CA         54.9988   19.5027   84.5327 C.3       4 GLC5        0.0000 
     89 CA         56.7210   19.0190   83.7460 C.3      12 GLL5        0.0000 
     90 CA         53.5660   19.7450   85.9590 C.3       8 GLP5        0.0000 
     91 CA         57.0592   17.9273   81.6762 C.3       4 GLC5        0.0000 
     92 CA         57.6870   16.5940   80.2460 C.3       8 GLP5        0.0000 
@<TRIPOS>BOND
@<TRIPOS>SUBSTRUCTURE
     1 ALC1        6 GROUP        1 X    ALC  0     ROOT ALC X 1
     2 SEC2        1 GROUP        1 X    SEC  0     **** SEC X 2
     3 LYC4       49 GROUP        1 X    LYC  0     **** LYC X 4
     4 GLC5       15 GROUP        1 X    GLC  0     **** GLC X 6
     5 ALP1        8 GROUP        1 Y    ALP  0     ROOT ALP Y 8
     6 SEP2        3 GROUP        1 Y    SEP  0     **** SEP Y 9
     7 LYP4       51 GROUP        1 Y    LYP  0     **** LYP Y 11
     8 GLP5       17 GROUP        1 Y    GLP  0     **** GLP Y 13
     9 ALL1        7 GROUP        1 Z    ALL  0     ROOT ALL Z 15
    10 SEL2        2 GROUP        1 Z    SEL  0     **** SEL Z 16
    11 LYL4       50 GROUP        1 Z    LYL  0     **** LYL Z 18
    12 GLL5       16 GROUP        1 Z    GLL  0     **** GLL Z 20
@<TRIPOS>SET

