#    Name: 1tb3_FMN_8_ligand
#    Modification time : Tue Mar 25 04:43:15 2014

@<TRIPOS>MOLECULE
1tb3_FMN_8_ligand
   50    52     1     0     0
SMALL
NO_CHARGES


@<TRIPOS>ATOM
      1 N1         61.7450   18.7300   86.4810 N.2       1 FMN8401     0.0000 
      2 C2         63.0050   19.1570   86.8520 C.2       1 FMN8401     0.0000 
      3 O2         63.3590   20.3290   86.8550 O.2       1 FMN8401     0.0000 
      4 N3         63.8450   18.0870   87.2140 N.am      1 FMN8401     0.0000 
      5 C4         63.5140   16.7200   87.2270 C.2       1 FMN8401     0.0000 
      6 O4         64.4110   15.9550   87.5790 O.2       1 FMN8401     0.0000 
      7 C4A        62.1490   16.4300   86.8110 C.2       1 FMN8401     0.0000 
      8 N5         61.7700   15.0650   86.7970 N.2       1 FMN8401     0.0000 
      9 C5A        60.4740   14.7170   86.3790 C.ar      1 FMN8401     0.0000 
     10 C6         60.1230   13.3700   86.3520 C.ar      1 FMN8401     0.0000 
     11 C7         58.8520   12.9830   85.9300 C.ar      1 FMN8401     0.0000 
     12 C7M        58.5300   11.5070   85.9190 C.3       1 FMN8401     0.0000 
     13 C8         57.9120   13.9660   85.5240 C.ar      1 FMN8401     0.0000 
     14 C8M        56.5560   13.6010   85.0620 C.3       1 FMN8401     0.0000 
     15 C9         58.2360   15.3120   85.5460 C.ar      1 FMN8401     0.0000 
     16 C9A        59.5260   15.7150   85.9740 C.ar      1 FMN8401     0.0000 
     17 N10        59.9230   17.0940   86.0100 N.pl3     1 FMN8401     0.0000 
     18 C10        61.2340   17.4350   86.4270 C.2       1 FMN8401     0.0000 
     19 C1'        59.0750   18.0970   85.6330 C.3       1 FMN8401     0.0000 
     20 C2'        59.2440   18.5700   84.1540 C.3       1 FMN8401     0.0000 
     21 O2'        60.5130   19.2120   84.0350 O.3       1 FMN8401     0.0000 
     22 C3'        58.1520   19.5560   83.7340 C.3       1 FMN8401     0.0000 
     23 O3'        58.1910   20.6700   84.6270 O.3       1 FMN8401     0.0000 
     24 C4'        56.7210   19.0190   83.7460 C.3       1 FMN8401     0.0000 
     25 O4'        56.5750   17.6000   83.7830 O.3       1 FMN8401     0.0000 
     26 C5'        56.1420   19.5020   82.4670 C.3       1 FMN8401     0.0000 
     27 O5'        54.8150   19.1260   82.2680 O.3       1 FMN8401     0.0000 
     28 P          54.2320   18.1260   81.2820 P.3       1 FMN8401     0.0000 
     29 O1P        52.8100   18.5070   81.2800 O.co2     1 FMN8401     0.0000 
     30 O2P        54.5930   16.8250   81.8070 O.co2     1 FMN8401     0.0000 
     31 O3P        54.8510   18.3740   79.9770 O.co2     1 FMN8401     0.0000 
     32 H          64.8436   18.3416   87.5115 H         1 FMN8401     0.0000 
     33 H          60.8044   12.6561   86.6448 H         1 FMN8401     0.0000 
     34 H          57.5596   16.0222   85.2583 H         1 FMN8401     0.0000 
     35 H          59.1842   19.0235   86.2564 H         1 FMN8401     0.0000 
     36 H          57.9925   17.8201   85.7353 H         1 FMN8401     0.0000 
     37 H          59.1898   17.7009   83.5240 H         1 FMN8401     0.0000 
     38 H          58.3747   19.9032   82.7231 H         1 FMN8401     0.0000 
     39 H          56.1862   19.5105   84.5445 H         1 FMN8401     0.0000 
     40 H          56.7996   19.1351   81.6344 H         1 FMN8401     0.0000 
     41 H          56.2587   20.6182   82.4393 H         1 FMN8401     0.0000 
     42 H          59.1442   10.9974   85.3165 H         1 FMN8401     0.0000 
     43 H          58.6107   11.1025   86.8299 H         1 FMN8401     0.0000 
     44 H          57.5976   11.3326   85.6025 H         1 FMN8401     0.0000 
     45 H          56.5848   13.0115   84.2547 H         1 FMN8401     0.0000 
     46 H          56.0437   13.1091   85.7660 H         1 FMN8401     0.0000 
     47 H          56.0175   14.4073   84.8171 H         1 FMN8401     0.0000 
     48 H          61.1659   18.5712   84.4388 H         1 FMN8401     0.0000 
     49 H          58.3343   21.4670   84.0403 H         1 FMN8401     0.0000 
     50 H          55.8706   17.3946   83.1036 H         1 FMN8401     0.0000 
@<TRIPOS>BOND
     1    2    1 1    
     2   18    1 2    
     3    3    2 2    
     4    4    2 am   
     5    5    4 am   
     6   32    4 1    
     7    6    5 2    
     8    7    5 1    
     9    8    7 2    
    10   18    7 1    
    11    9    8 1    
    12   10    9 ar   
    13   16    9 ar   
    14   11   10 ar   
    15   33   10 1    
    16   12   11 1    
    17   13   11 ar   
    18   42   12 1    
    19   43   12 1    
    20   44   12 1    
    21   14   13 1    
    22   15   13 ar   
    23   45   14 1    
    24   46   14 1    
    25   47   14 1    
    26   16   15 ar   
    27   34   15 1    
    28   17   16 1    
    29   18   17 1    
    30   19   17 1    
    31   20   19 1    
    32   35   19 1    
    33   36   19 1    
    34   21   20 1    
    35   22   20 1    
    36   37   20 1    
    37   48   21 1    
    38   23   22 1    
    39   24   22 1    
    40   38   22 1    
    41   49   23 1    
    42   25   24 1    
    43   26   24 1    
    44   39   24 1    
    45   50   25 1    
    46   27   26 1    
    47   40   26 1    
    48   41   26 1    
    49   28   27 1    
    50   29   28 ar   
    51   30   28 ar   
    52   31   28 ar   
@<TRIPOS>SUBSTRUCTURE
     1 FMN8401     1 GROUP   
@<TRIPOS>SET

