#    Name: 2cgv_3B3_1_INTS_M
#    Modification time : Mon Mar 24 23:46:35 2014

@<TRIPOS>MOLECULE
2cgv_3B3_1_INTS_M
   41     0    12     0     0
SMALL
NO_CHARGES


@<TRIPOS>ATOM
      1 CA          3.5995   -4.7855   21.0085 C.3       4 GLC5        0.0000 
      2 CA          4.0520   -3.9790   19.2120 C.3      12 GLL5        0.0000 
      3 CA          3.1470   -5.5920   22.8050 C.3       8 GLP5        0.0000 
      4 CA          2.5400   -8.4415   17.4595 C.3       4 GLC5        0.0000 
      5 CA          2.1900   -6.3990   16.9340 C.3      12 GLL5        0.0000 
      6 CA          2.8900  -10.4840   17.9850 C.3       8 GLP5        0.0000 
      7 CA          3.3170   -9.0075   16.6215 C.3       4 GLC5        0.0000 
      8 CA          3.7440   -7.5310   15.2580 C.3      12 GLL5        0.0000 
      9 CA         -0.6475   -3.5845   18.0215 C.3       4 GLC5        0.0000 
     10 CA          0.6620   -5.2840   18.3780 C.3      12 GLL5        0.0000 
     11 CA         -1.9570   -1.8850   17.6650 C.3       8 GLP5        0.0000 
     12 CA          4.6995   -5.8485   19.5715 C.3       4 GLC5        0.0000 
     13 CA          3.0490   -4.7740   18.5390 C.3      12 GLL5        0.0000 
     14 CA          6.3500   -6.9230   20.6040 C.3       8 GLP5        0.0000 
     15 CA          7.2945   -5.6740   12.8495 C.3       4 GLC5        0.0000 
     16 CA          5.3990   -6.0900   13.7580 C.3      12 GLL5        0.0000 
     17 CA          9.1900   -5.2580   11.9410 C.3       8 GLP5        0.0000 
     18 OD1         7.5865   -6.7725   12.0950 O.co2     3 ASC3        0.0000 
     19 OD1         5.9690   -5.9010   12.4290 O.co2    11 ASL3        0.0000 
     20 OD1         9.2040   -7.6440   11.7610 O.co2     7 ASP3        0.0000 
     21 O           6.2800   -4.4325   13.0320 O.2       1 ALC1        0.0000 
     22 O           5.9690   -5.9010   12.4290 O.2       9 ALL1        0.0000 
     23 O           6.5910   -2.9640   13.6350 O.2       5 ALP1        0.0000 
     24 N           3.0980   -1.2530   20.6615 N.am      2 SEC2        0.0000 
     25 N           2.7980   -2.7170   20.3090 N.am     10 SEL2        0.0000 
     26 N           3.3980    0.2110   21.0140 N.am      6 SEP2        0.0000 
     27 O           2.8430   -5.2175   12.7195 O.2       1 ALC1        0.0000 
     28 O           3.2750   -5.3690   14.0480 O.2       9 ALL1        0.0000 
     29 O           2.4110   -5.0660   11.3910 O.2       5 ALP1        0.0000 
     30 CA          5.9125   -3.8445   20.6150 C.3       4 GLC5        0.0000 
     31 CA          5.3520   -4.1850   18.7640 C.3      12 GLL5        0.0000 
     32 CA          7.1230   -3.6070   22.2420 C.3       8 GLP5        0.0000 
     33 CA          5.7430   -5.7700   19.4745 C.3       4 GLC5        0.0000 
     34 CA          4.5225   -3.4495   17.2440 C.3       4 GLC5        0.0000 
     35 CA          3.9090   -2.2820   16.1430 C.3       8 GLP5        0.0000 
     36 CA          0.3868   -5.5267   15.6320 C.3       4 GLC5        0.0000 
     37 CA         -0.7550   -4.7520   14.1220 C.3       8 GLP5        0.0000 
     38 CA          3.1907   -3.6066   17.3120 C.3       4 GLC5        0.0000 
     39 CA          1.7870   -4.6150   18.9340 C.3      12 GLL5        0.0000 
     40 CA          2.0889   -5.6724   20.4093 C.3       4 GLC5        0.0000 
     41 CA          2.0410   -6.4830   22.2210 C.3       8 GLP5        0.0000 
@<TRIPOS>BOND
@<TRIPOS>SUBSTRUCTURE
     1 ALC1       21 GROUP        1 X    ALC  0     ROOT ALC X 1
     2 SEC2       24 GROUP        1 X    SEC  0     **** SEC X 2
     3 ASC3       18 GROUP        1 X    ASC  0     **** ASC X 3
     4 GLC5        1 GROUP        1 X    GLC  0     **** GLC X 6
     5 ALP1       23 GROUP        1 Y    ALP  0     ROOT ALP Y 8
     6 SEP2       26 GROUP        1 Y    SEP  0     **** SEP Y 9
     7 ASP3       20 GROUP        1 Y    ASP  0     **** ASP Y 10
     8 GLP5        3 GROUP        1 Y    GLP  0     **** GLP Y 13
     9 ALL1       22 GROUP        1 Z    ALL  0     ROOT ALL Z 15
    10 SEL2       25 GROUP        1 Z    SEL  0     **** SEL Z 16
    11 ASL3       19 GROUP        1 Z    ASL  0     **** ASL Z 17
    12 GLL5        2 GROUP        1 Z    GLL  0     **** GLL Z 20
@<TRIPOS>SET

