#    Name: 2cgv_3B3_1_ligand
#    Modification time : Mon Mar 24 23:46:35 2014

@<TRIPOS>MOLECULE
2cgv_3B3_1_ligand
   34    35     1     0     0
SMALL
NO_CHARGES


@<TRIPOS>ATOM
      1 C1          4.0520   -3.9790   19.2120 C.ar      1 3B31273     0.0000 
      2 C2          5.3520   -4.1850   18.7640 C.ar      1 3B31273     0.0000 
      3 C3          5.5700   -5.1520   17.7020 C.ar      1 3B31273     0.0000 
      4 N4          4.5730   -5.9000   17.1010 N.ar      1 3B31273     0.0000 
      5 C4A         3.2670   -5.7210   17.5170 C.ar      1 3B31273     0.0000 
      6 C4B         2.1900   -6.3990   16.9340 C.ar      1 3B31273     0.0000 
      7 N5          2.4050   -7.2840   15.9450 N.pl3     1 3B31273     0.0000 
      8 C6          3.7440   -7.5310   15.2580 C.3       1 3B31273     0.0000 
      9 C8A         0.8670   -6.2040   17.3500 C.ar      1 3B31273     0.0000 
     10 C9          0.6620   -5.2840   18.3780 C.ar      1 3B31273     0.0000 
     11 C10         1.7870   -4.6150   18.9340 C.ar      1 3B31273     0.0000 
     12 C1A         3.0490   -4.7740   18.5390 C.ar      1 3B31273     0.0000 
     13 CB          3.9250   -6.6630   13.8950 C.3       1 3B31273     0.0000 
     14 CA          5.3990   -6.0900   13.7580 C.3       1 3B31273     0.0000 
     15 N           5.9690   -5.9010   12.4290 N.4       1 3B31273     0.0000 
     16 O           2.7980   -2.7170   20.3090 O.2       1 3B31273     0.0000 
     17 OXT         0.2400   -3.6690   20.2270 O.2       1 3B31273     0.0000 
     18 N1          1.6520   -3.6890   19.8610 N.pl3     1 3B31273     0.0000 
     19 O16         3.2750   -5.3690   14.0480 O.3       1 3B31273     0.0000 
     20 H           3.8062   -3.3512   19.9256 H         1 3B31273     0.0000 
     21 H           6.1410   -3.6913   19.1469 H         1 3B31273     0.0000 
     22 H           6.5676   -5.2726   17.3860 H         1 3B31273     0.0000 
     23 H           1.6295   -7.8903   15.5640 H         1 3B31273     0.0000 
     24 H           3.8447   -8.5776   14.9777 H         1 3B31273     0.0000 
     25 H           4.5684   -7.2585   15.9139 H         1 3B31273     0.0000 
     26 H           0.1062   -6.7028   16.9276 H         1 3B31273     0.0000 
     27 H          -0.2679   -5.0869   18.7314 H         1 3B31273     0.0000 
     28 H           3.6670   -7.1601   13.0740 H         1 3B31273     0.0000 
     29 H           6.0513   -6.7707   14.3788 H         1 3B31273     0.0000 
     30 H           5.4060   -5.1209   14.3366 H         1 3B31273     0.0000 
     31 H           6.2104   -4.9452   12.2608 H         1 3B31273     0.0000 
     32 H           6.8015   -6.4402   12.3018 H         1 3B31273     0.0000 
     33 H           5.3306   -6.1732   11.7090 H         1 3B31273     0.0000 
     34 H           2.9386   -5.1389   13.1348 H         1 3B31273     0.0000 
@<TRIPOS>BOND
     1    2    1 ar   
     2   12    1 ar   
     3   20    1 1    
     4    3    2 ar   
     5   21    2 1    
     6    4    3 ar   
     7   22    3 1    
     8    5    4 ar   
     9    6    5 ar   
    10   12    5 ar   
    11    7    6 1    
    12    9    6 ar   
    13    8    7 1    
    14   23    7 1    
    15   13    8 1    
    16   24    8 1    
    17   25    8 1    
    18   10    9 ar   
    19   26    9 1    
    20   11   10 ar   
    21   27   10 1    
    22   12   11 ar   
    23   18   11 1    
    24   14   13 1    
    25   19   13 1    
    26   28   13 1    
    27   15   14 1    
    28   29   14 1    
    29   30   14 1    
    30   31   15 1    
    31   32   15 1    
    32   33   15 1    
    33   18   16 2    
    34   18   17 2    
    35   34   19 1    
@<TRIPOS>SUBSTRUCTURE
     1 3B31273     1 GROUP   
@<TRIPOS>SET

