#    Name: 3v94_WYQ_2_INTS_M
#    Modification time : Tue Mar 25 00:10:51 2014

@<TRIPOS>MOLECULE
3v94_WYQ_2_INTS_M
   44     0     9     0     0
SMALL
NO_CHARGES


@<TRIPOS>ATOM
      1 CA        -48.0155  -25.3295  -53.2050 C.3       3 GLC5        0.0000 
      2 CA        -47.2590  -26.7370  -53.9090 C.3       9 GLL5        0.0000 
      3 CA        -48.7720  -23.9220  -52.5010 C.3       6 GLP5        0.0000 
      4 CA        -49.3815  -29.8105  -56.3290 C.3       3 GLC5        0.0000 
      5 CA        -48.5410  -27.9370  -55.6950 C.3       9 GLL5        0.0000 
      6 CA        -50.2220  -31.6840  -56.9630 C.3       6 GLP5        0.0000 
      7 Zn        -45.0360  -25.9770  -58.1150 Zn        2 ZIC7        0.0000 
      8 Zn        -44.6980  -27.9450  -54.9040 Zn        8 ZIL7        0.0000 
      9 Zn        -45.3740  -24.0090  -61.3260 Zn        5 ZIP7        0.0000 
     10 CA        -47.1710  -22.4440  -51.8515 C.3       3 GLC5        0.0000 
     11 CA        -45.6990  -21.3350  -52.6530 C.3       9 GLL5        0.0000 
     12 CA        -48.6430  -23.5530  -51.0500 C.3       6 GLP5        0.0000 
     13 N         -45.9625  -21.7120  -46.1275 N.am      1 SEC2        0.0000 
     14 N         -45.4640  -22.2740  -47.4460 N.am      7 SEL2        0.0000 
     15 N         -46.4610  -21.1500  -44.8090 N.am      4 SEP2        0.0000 
     16 CA        -44.1505  -22.0685  -43.6280 C.3       3 GLC5        0.0000 
     17 CA        -44.3690  -23.6170  -45.0370 C.3       9 GLL5        0.0000 
     18 CA        -43.9320  -20.5200  -42.2190 C.3       6 GLP5        0.0000 
     19 CA        -42.8045  -22.7780  -45.3320 C.3       3 GLC5        0.0000 
     20 CA        -41.2400  -21.9390  -45.6270 C.3       6 GLP5        0.0000 
     21 CA        -40.0135  -27.1005  -47.0270 C.3       3 GLC5        0.0000 
     22 CA        -41.9080  -27.0650  -47.2690 C.3       9 GLL5        0.0000 
     23 CA        -38.1190  -27.1360  -46.7850 C.3       6 GLP5        0.0000 
     24 CA        -44.6260  -27.5745  -48.0280 C.3       3 GLC5        0.0000 
     25 CA        -42.7640  -28.3310  -47.2050 C.3       9 GLL5        0.0000 
     26 CA        -46.4880  -26.8180  -48.8510 C.3       6 GLP5        0.0000 
     27 CA        -43.6640  -29.7710  -45.8705 C.3       3 GLC5        0.0000 
     28 CA        -44.5640  -31.2110  -44.5360 C.3       6 GLP5        0.0000 
     29 CA        -47.3680  -27.0913  -52.7687 C.3       3 GLC5        0.0000 
     30 CA        -47.1450  -27.6140  -55.1560 C.3       9 GLL5        0.0000 
     31 CA        -47.5340  -27.0070  -51.0050 C.3       6 GLP5        0.0000 
     32 CA        -46.8812  -29.1421  -54.9759 C.3       3 GLC5        0.0000 
     33 CA        -45.8910  -30.7280  -54.8380 C.3       6 GLP5        0.0000 
     34 CA        -42.5515  -24.8750  -55.1915 C.3       3 GLC5        0.0000 
     35 CA        -43.8390  -25.7750  -53.3880 C.3       9 GLL5        0.0000 
     36 CA        -41.0310  -24.4850  -56.5850 C.3       6 GLP5        0.0000 
     37 CA        -46.7120  -23.6818  -52.7325 C.3       3 GLC5        0.0000 
     38 CA        -44.6920  -23.5410  -53.6510 C.3       9 GLL5        0.0000 
     39 CA        -47.2867  -20.1883  -53.3242 C.3       3 GLC5        0.0000 
     40 CA        -48.8970  -19.7620  -54.2520 C.3       6 GLP5        0.0000 
     41 CA        -42.4845  -23.2530  -46.6508 C.3       3 GLC5        0.0000 
     42 CA        -44.0820  -24.0820  -47.3260 C.3       9 GLL5        0.0000 
     43 CA        -44.1448  -29.4195  -48.6977 C.3       3 GLC5        0.0000 
     44 CA        -45.5900  -30.1030  -49.5450 C.3       6 GLP5        0.0000 
@<TRIPOS>BOND
@<TRIPOS>SUBSTRUCTURE
     1 SEC2       13 GROUP        1 X    SEC  0     ROOT SEC X 2
     2 ZIC7        7 GROUP        1 X    ZIC  0     **** ZIC X 5
     3 GLC5        1 GROUP        1 X    GLC  0     **** GLC X 6
     4 SEP2       15 GROUP        1 Y    SEP  0     ROOT SEP Y 9
     5 ZIP7        9 GROUP        1 Y    ZIP  0     **** ZIP Y 12
     6 GLP5        3 GROUP        1 Y    GLP  0     **** GLP Y 13
     7 SEL2       14 GROUP        1 Z    SEL  0     ROOT SEL Z 16
     8 ZIL7        8 GROUP        1 Z    ZIL  0     **** ZIL Z 19
     9 GLL5        2 GROUP        1 Z    GLL  0     **** GLL Z 20
@<TRIPOS>SET

