#    Name: 3v94_WYQ_2_ligand
#    Modification time : Tue Mar 25 00:10:51 2014

@<TRIPOS>MOLECULE
3v94_WYQ_2_ligand
   60    62     1     0     0
SMALL
NO_CHARGES


@<TRIPOS>ATOM
      1 C16       -47.2590  -26.7370  -53.9090 C.3       1 WYQ701      0.0000 
      2 C15       -47.1450  -27.6140  -55.1560 C.3       1 WYQ701      0.0000 
      3 C17       -48.5410  -27.9370  -55.6950 C.3       1 WYQ701      0.0000 
      4 O6        -46.3610  -26.9100  -56.1300 O.3       1 WYQ701      0.0000 
      5 C14       -45.0380  -27.1270  -55.8950 C.2       1 WYQ701      0.0000 
      6 O5        -44.2080  -26.5550  -56.6000 O.2       1 WYQ701      0.0000 
      7 N5        -44.6980  -27.9450  -54.9040 N.am      1 WYQ701      0.0000 
      8 S1        -43.4540  -27.3570  -54.0300 S.o2      1 WYQ701      0.0000 
      9 O4        -42.2720  -27.2810  -54.8310 O.2       1 WYQ701      0.0000 
     10 O3        -43.2090  -28.2950  -52.8840 O.2       1 WYQ701      0.0000 
     11 C8        -43.8390  -25.7750  -53.3880 C.ar      1 WYQ701      0.0000 
     12 C7        -43.7480  -25.5730  -52.0160 C.ar      1 WYQ701      0.0000 
     13 C9        -44.3050  -24.7550  -54.2080 C.ar      1 WYQ701      0.0000 
     14 C10       -44.6920  -23.5410  -53.6510 C.ar      1 WYQ701      0.0000 
     15 C11       -44.6120  -23.3420  -52.2770 C.ar      1 WYQ701      0.0000 
     16 O2        -45.0090  -22.1710  -51.7110 O.3       1 WYQ701      0.0000 
     17 C12       -45.6990  -21.3350  -52.6530 C.3       1 WYQ701      0.0000 
     18 C13       -45.6540  -19.8940  -52.1400 C.3       1 WYQ701      0.0000 
     19 C6        -44.1370  -24.3610  -51.4580 C.ar      1 WYQ701      0.0000 
     20 C5        -44.0900  -24.2110  -50.0790 C.2       1 WYQ701      0.0000 
     21 N4        -44.8200  -23.2030  -49.4340 N.am      1 WYQ701      0.0000 
     22 C4        -44.8160  -23.1390  -48.0340 C.2       1 WYQ701      0.0000 
     23 O1        -45.4640  -22.2740  -47.4460 O.2       1 WYQ701      0.0000 
     24 N3        -43.3870  -25.0990  -49.3610 N.2       1 WYQ701      0.0000 
     25 C2        -43.3760  -25.0520  -48.0230 C.2       1 WYQ701      0.0000 
     26 C3        -44.0820  -24.0820  -47.3260 C.2       1 WYQ701      0.0000 
     27 N2        -43.8670  -24.3360  -46.0370 N.pl3     1 WYQ701      0.0000 
     28 C18       -44.3690  -23.6170  -45.0370 C.3       1 WYQ701      0.0000 
     29 N1        -43.1390  -25.3150  -45.8650 N.2       1 WYQ701      0.0000 
     30 C1        -42.7810  -25.8300  -47.0390 C.2       1 WYQ701      0.0000 
     31 C19       -41.9080  -27.0650  -47.2690 C.3       1 WYQ701      0.0000 
     32 C20       -42.7640  -28.3310  -47.2050 C.3       1 WYQ701      0.0000 
     33 C21       -42.6350  -29.1410  -48.4960 C.3       1 WYQ701      0.0000 
     34 H         -46.6681  -28.5372  -54.8664 H         1 WYQ701      0.0000 
     35 H         -45.0320  -28.7854  -54.6142 H         1 WYQ701      0.0000 
     36 H         -43.3903  -26.3256  -51.4093 H         1 WYQ701      0.0000 
     37 H         -44.3638  -24.8967  -55.2240 H         1 WYQ701      0.0000 
     38 H         -45.0397  -22.7853  -54.2592 H         1 WYQ701      0.0000 
     39 H         -46.7443  -21.6217  -52.7578 H         1 WYQ701      0.0000 
     40 H         -45.2272  -21.3571  -53.6342 H         1 WYQ701      0.0000 
     41 H         -45.3495  -22.5220  -49.9790 H         1 WYQ701      0.0000 
     42 H         -41.1415  -27.1106  -46.5025 H         1 WYQ701      0.0000 
     43 H         -41.4399  -26.9970  -48.2454 H         1 WYQ701      0.0000 
     44 H         -43.8060  -28.0526  -47.0587 H         1 WYQ701      0.0000 
     45 H         -42.4394  -28.9415  -46.3644 H         1 WYQ701      0.0000 
     46 H         -46.3612  -26.5075  -53.5330 H         1 WYQ701      0.0000 
     47 H         -47.7247  -25.8737  -54.1034 H         1 WYQ701      0.0000 
     48 H         -47.7741  -27.1906  -53.1818 H         1 WYQ701      0.0000 
     49 H         -48.4998  -28.5122  -56.5120 H         1 WYQ701      0.0000 
     50 H         -49.0957  -28.4247  -55.0209 H         1 WYQ701      0.0000 
     51 H         -49.0435  -27.1092  -55.9444 H         1 WYQ701      0.0000 
     52 H         -44.7152  -19.5640  -52.0414 H         1 WYQ701      0.0000 
     53 H         -46.1225  -19.2643  -52.7597 H         1 WYQ701      0.0000 
     54 H         -46.0916  -19.8045  -51.2453 H         1 WYQ701      0.0000 
     55 H         -44.0894  -23.9743  -44.1458 H         1 WYQ701      0.0000 
     56 H         -44.0692  -22.6639  -45.0778 H         1 WYQ701      0.0000 
     57 H         -45.3689  -23.6105  -45.0496 H         1 WYQ701      0.0000 
     58 H         -41.6902  -29.4213  -48.6658 H         1 WYQ701      0.0000 
     59 H         -43.1874  -29.9741  -48.4685 H         1 WYQ701      0.0000 
     60 H         -42.9334  -28.6177  -49.2942 H         1 WYQ701      0.0000 
@<TRIPOS>BOND
     1    2    1 1    
     2   46    1 1    
     3   47    1 1    
     4   48    1 1    
     5    3    2 1    
     6    4    2 1    
     7   34    2 1    
     8   49    3 1    
     9   50    3 1    
    10   51    3 1    
    11    5    4 1    
    12    6    5 2    
    13    7    5 am   
    14    8    7 1    
    15   35    7 1    
    16    9    8 2    
    17   10    8 2    
    18   11    8 1    
    19   12   11 ar   
    20   13   11 ar   
    21   19   12 ar   
    22   36   12 1    
    23   14   13 ar   
    24   37   13 1    
    25   15   14 ar   
    26   38   14 1    
    27   16   15 1    
    28   19   15 ar   
    29   17   16 1    
    30   18   17 1    
    31   39   17 1    
    32   40   17 1    
    33   52   18 1    
    34   53   18 1    
    35   54   18 1    
    36   20   19 1    
    37   21   20 1    
    38   24   20 2    
    39   22   21 am   
    40   41   21 1    
    41   23   22 2    
    42   26   22 1    
    43   25   24 1    
    44   26   25 2    
    45   30   25 1    
    46   27   26 1    
    47   28   27 1    
    48   29   27 1    
    49   55   28 1    
    50   56   28 1    
    51   57   28 1    
    52   30   29 2    
    53   31   30 1    
    54   32   31 1    
    55   42   31 1    
    56   43   31 1    
    57   33   32 1    
    58   44   32 1    
    59   45   32 1    
    60   58   33 1    
    61   59   33 1    
    62   60   33 1    
@<TRIPOS>SUBSTRUCTURE
     1 WYQ701      1 GROUP   
@<TRIPOS>SET

