#    Name: 3KMX_1_CAVITY_N1_6.mol2
#    Modification time : Tue Mar 11 08:21:16 2014

@<TRIPOS>MOLECULE
3KMX_1_CAVITY_N1_6.mol2
  181     0     6     0     0
SMALL
NO_CHARGES


@<TRIPOS>ATOM
      1 N          26.7787   15.9520   17.7771 N.2       2 ALA2        0.0000 
      2 N          23.9729   14.1269   17.9934 N.2       2 ALA2        0.0000 
      3 N          22.9727   14.5542   19.0264 N.2       2 ALA2        0.0000 
      4 O          30.1722    9.9284   21.3758 O.2       2 ALA2        0.0000 
      5 N          29.1720   10.3556   22.4088 N.2       2 ALA2        0.0000 
      6 OG         23.1710   12.9189   28.6069 O.2       1 SER1        0.0000 
      7 CA         22.1708   13.3461   29.6400 C.3       5 GLY6        0.0000 
      8 OG         21.1706   13.7733   30.6730 O.2       1 SER1        0.0000 
      9 CA         29.2694    8.8022   20.9674 C.3       5 GLY6        0.0000 
     10 N          28.2692    9.2295   22.0004 N.2       2 ALA2        0.0000 
     11 NZ         22.2681   11.7928   28.1986 N.2       3 LYS4        0.0000 
     12 CA         21.2680   12.2200   29.2316 C.3       5 GLY6        0.0000 
     13 CA         20.2678   12.6472   30.2646 C.3       5 GLY6        0.0000 
     14 CA         20.3652   11.0939   28.8232 C.3       5 GLY6        0.0000 
     15 CA         19.3650   11.5211   29.8562 C.3       5 GLY6        0.0000 
     16 N          20.4625    9.5405   27.3818 N.2       2 ALA2        0.0000 
     17 CZ         19.4623    9.9678   28.4148 C.ar      4 PHE5        0.0000 
     18 O          30.8314    9.0343   22.3838 O.2       2 ALA2        0.0000 
     19 N          29.8312    9.4615   23.4168 N.2       2 ALA2        0.0000 
     20 N          28.9284    8.3354   23.0084 N.2       2 ALA2        0.0000 
     21 DU         29.0000   15.2900   20.2015 H         6 CUB7        0.0000 
     22 DU         27.9998   15.7172   21.2346 H         6 CUB7        0.0000 
     23 CA         28.0972   14.1639   19.7932 C.3       5 GLY6        0.0000 
     24 CA         27.0970   14.5911   20.8262 C.3       5 GLY6        0.0000 
     25 CA         26.0968   15.0183   21.8592 C.3       5 GLY6        0.0000 
     26 O          22.0961   16.7272   25.9913 O.2       2 ALA2        0.0000 
     27 CA         27.1943   13.0377   19.3848 C.3       5 GLY6        0.0000 
     28 DU         26.1942   13.4650   20.4178 H         6 CUB7        0.0000 
     29 CA         25.1940   13.8922   21.4508 C.3       5 GLY6        0.0000 
     30 O          21.1933   15.6011   25.5829 O.2       2 ALA2        0.0000 
     31 DU         20.1931   16.0283   26.6159 H         6 CUB7        0.0000 
     32 CA         27.2917   11.4844   17.9434 C.3       5 GLY6        0.0000 
     33 N          26.2915   11.9116   18.9764 N.2       2 ALA2        0.0000 
     34 DU         25.2914   12.3388   20.0094 H         6 CUB7        0.0000 
     35 N          24.2912   12.7661   21.0424 N.2       2 ALA2        0.0000 
     36 N          20.2905   14.4749   25.1745 N.2       2 ALA2        0.0000 
     37 DU         19.2903   14.9022   26.2075 H         6 CUB7        0.0000 
     38 DU         18.2901   15.3294   27.2406 H         6 CUB7        0.0000 
     39 CZ         25.3887   10.7855   18.5680 C.ar      4 PHE5        0.0000 
     40 CZ         24.3885   11.2127   19.6010 C.ar      4 PHE5        0.0000 
     41 N          23.3884   11.6399   20.6340 N.2       2 ALA2        0.0000 
     42 N          22.3882   12.0672   21.6671 N.2       2 ALA2        0.0000 
     43 N          21.3880   12.4944   22.7001 N.2       2 ALA2        0.0000 
     44 CZ         20.3878   12.9216   23.7331 C.ar      4 PHE5        0.0000 
     45 CZ         19.3877   13.3488   24.7661 C.ar      4 PHE5        0.0000 
     46 CZ         18.3875   13.7760   25.7991 C.ar      4 PHE5        0.0000 
     47 DU         17.3873   14.2033   26.8322 H         6 CUB7        0.0000 
     48 CZ         24.4859    9.6594   18.1596 C.ar      4 PHE5        0.0000 
     49 CZ         23.4857   10.0866   19.1926 C.ar      4 PHE5        0.0000 
     50 CZ         22.4856   10.5138   20.2257 C.ar      4 PHE5        0.0000 
     51 CZ         21.4854   10.9410   21.2587 C.ar      4 PHE5        0.0000 
     52 CZ         20.4852   11.3683   22.2917 C.ar      4 PHE5        0.0000 
     53 CZ         17.4847   12.6499   25.3908 C.ar      4 PHE5        0.0000 
     54 OG         16.4845   13.0771   26.4238 O.2       1 SER1        0.0000 
     55 CA         21.5827    9.3877   19.8173 C.3       5 GLY6        0.0000 
     56 OG         20.5826    9.8149   20.8503 O.2       1 SER1        0.0000 
     57 CZ         16.5819   11.5238   24.9824 C.ar      4 PHE5        0.0000 
     58 OG         15.5817   11.9510   26.0154 O.2       1 SER1        0.0000 
     59 CZ         16.6792    9.9705   23.5410 C.ar      4 PHE5        0.0000 
     60 CZ         15.6790   10.3977   24.5740 C.ar      4 PHE5        0.0000 
     61 OG         15.7764    8.8443   23.1326 O.2       1 SER1        0.0000 
     62 N          14.7762    9.2716   24.1656 N.2       2 ALA2        0.0000 
     63 N          30.5620   15.5220   21.6179 N.2       2 ALA2        0.0000 
     64 DU         29.5618   15.9493   22.6510 H         6 CUB7        0.0000 
     65 N          30.6594   13.9687   20.1765 N.2       2 ALA2        0.0000 
     66 N          29.6592   14.3959   21.2096 N.2       2 ALA2        0.0000 
     67 DU         28.6590   14.8231   22.2426 H         6 CUB7        0.0000 
     68 DU         27.6588   15.2504   23.2756 H         6 CUB7        0.0000 
     69 CA         26.6587   15.6776   24.3086 C.3       5 GLY6        0.0000 
     70 CA         29.7566   12.8426   19.7682 C.3       5 GLY6        0.0000 
     71 CA         28.7564   13.2698   20.8012 C.3       5 GLY6        0.0000 
     72 DU         27.7562   13.6970   21.8342 H         6 CUB7        0.0000 
     73 CA         26.7560   14.1242   22.8672 C.3       5 GLY6        0.0000 
     74 CA         25.7559   14.5515   23.9002 C.3       5 GLY6        0.0000 
     75 N          24.7557   14.9787   24.9333 N.2       2 ALA2        0.0000 
     76 O          23.7555   15.4059   25.9663 O.2       2 ALA2        0.0000 
     77 CA         27.8536   12.1437   20.3928 C.3       5 GLY6        0.0000 
     78 N          26.8534   12.5709   21.4258 N.2       2 ALA2        0.0000 
     79 N          25.8532   12.9981   22.4588 N.2       2 ALA2        0.0000 
     80 N          24.8530   13.4253   23.4918 N.2       2 ALA2        0.0000 
     81 N          23.8529   13.8526   24.5249 N.2       2 ALA2        0.0000 
     82 N          22.8527   14.2798   25.5579 N.2       2 ALA2        0.0000 
     83 O          21.8525   14.7070   26.5909 O.2       2 ALA2        0.0000 
     84 O          20.8523   15.1342   27.6239 O.2       2 ALA2        0.0000 
     85 OG         19.8522   15.5614   28.6570 O.2       1 SER1        0.0000 
     86 CA         27.9509   10.5903   18.9514 C.3       5 GLY6        0.0000 
     87 N          26.9508   11.0176   19.9844 N.2       2 ALA2        0.0000 
     88 N          25.9506   11.4448   21.0174 N.2       2 ALA2        0.0000 
     89 N          24.9504   11.8720   22.0504 N.2       2 ALA2        0.0000 
     90 N          23.9502   12.2992   23.0835 N.2       2 ALA2        0.0000 
     91 N          22.9500   12.7264   24.1165 N.2       2 ALA2        0.0000 
     92 N          21.9499   13.1537   25.1495 N.2       2 ALA2        0.0000 
     93 DU         20.9497   13.5809   26.1825 H         6 CUB7        0.0000 
     94 DU         19.9495   14.0081   27.2155 H         6 CUB7        0.0000 
     95 OG         18.9493   14.4353   28.2486 O.2       1 SER1        0.0000 
     96 CA         26.0479    9.8914   19.5760 C.3       5 GLY6        0.0000 
     97 N          25.0478   10.3187   20.6090 N.2       2 ALA2        0.0000 
     98 N          24.0476   10.7459   21.6421 N.2       2 ALA2        0.0000 
     99 N          23.0474   11.1731   22.6751 N.2       2 ALA2        0.0000 
    100 N          22.0472   11.6003   23.7081 N.2       2 ALA2        0.0000 
    101 N          21.0471   12.0275   24.7411 N.2       2 ALA2        0.0000 
    102 DU         20.0469   12.4548   25.7741 H         6 CUB7        0.0000 
    103 DU         19.0467   12.8820   26.8072 H         6 CUB7        0.0000 
    104 OG         18.0465   13.3092   27.8402 O.2       1 SER1        0.0000 
    105 CA         24.1450    9.1925   20.2007 C.3       5 GLY6        0.0000 
    106 NZ         23.1448    9.6198   21.2337 N.2       3 LYS4        0.0000 
    107 NZ         22.1446   10.0470   22.2667 N.2       3 LYS4        0.0000 
    108 NZ         21.1444   10.4742   23.2997 N.2       3 LYS4        0.0000 
    109 CZ         20.1442   10.9014   24.3327 C.ar      4 PHE5        0.0000 
    110 CZ         19.1441   11.3286   25.3658 C.ar      4 PHE5        0.0000 
    111 OG         18.1439   11.7559   26.3988 O.2       1 SER1        0.0000 
    112 NZ         20.2416    9.3481   22.8913 N.2       3 LYS4        0.0000 
    113 N          19.2414    9.7753   23.9243 N.2       2 ALA2        0.0000 
    114 N          18.2413   10.2025   24.9574 N.2       2 ALA2        0.0000 
    115 OG         17.2411   10.6297   25.9904 O.2       1 SER1        0.0000 
    116 N          17.3384    9.0764   24.5490 N.2       2 ALA2        0.0000 
    117 OG         16.3383    9.5036   25.5820 O.2       1 SER1        0.0000 
    118 CA         15.4355    8.3775   25.1736 C.3       5 GLY6        0.0000 
    119 CA         28.4381   14.6307   17.7521 C.3       5 GLY6        0.0000 
    120 N          26.4378   15.4851   19.8182 N.2       2 ALA2        0.0000 
    121 CA         27.5353   13.5046   17.3437 C.3       5 GLY6        0.0000 
    122 N          26.5351   13.9318   18.3768 N.2       2 ALA2        0.0000 
    123 N          25.5349   14.3590   19.4098 N.2       2 ALA2        0.0000 
    124 N          25.6323   12.8057   17.9684 N.2       2 ALA2        0.0000 
    125 N          24.6321   13.2329   19.0014 N.2       2 ALA2        0.0000 
    126 N          23.6320   13.6601   20.0344 N.2       2 ALA2        0.0000 
    127 O          19.6313   15.3690   24.1665 O.2       2 ALA2        0.0000 
    128 CZ         18.6311   15.7962   25.1995 C.ar      4 PHE5        0.0000 
    129 N          24.7295   11.6796   17.5600 N.2       2 ALA2        0.0000 
    130 CZ         23.7293   12.1068   18.5930 C.ar      4 PHE5        0.0000 
    131 CZ         22.7291   12.5340   19.6260 C.ar      4 PHE5        0.0000 
    132 CZ         21.7290   12.9612   20.6591 C.ar      4 PHE5        0.0000 
    133 CZ         17.7283   14.6701   24.7911 C.ar      4 PHE5        0.0000 
    134 CZ         21.8263   11.4079   19.2176 C.ar      4 PHE5        0.0000 
    135 CZ         16.8254   13.5440   24.3827 C.ar      4 PHE5        0.0000 
    136 CZ         15.9226   12.4179   23.9744 C.ar      4 PHE5        0.0000 
    137 CZ         15.0198   11.2917   23.5660 C.ar      4 PHE5        0.0000 
    138 OG         15.1172    9.7384   22.1246 O.2       1 SER1        0.0000 
    139 N          33.1242   15.3269   22.0013 N.2       2 ALA2        0.0000 
    140 OG         32.1240   15.7541   23.0343 O.2       1 SER1        0.0000 
    141 OG         31.2212   14.6280   22.6260 O.2       1 SER1        0.0000 
    142 OG         30.2211   15.0552   23.6590 O.2       1 SER1        0.0000 
    143 CA         29.2209   15.4824   24.6920 C.3       5 GLY6        0.0000 
    144 OG         30.3184   13.5019   22.2176 O.2       1 SER1        0.0000 
    145 OG         29.3182   13.9291   23.2506 O.2       1 SER1        0.0000 
    146 O          28.3181   14.3563   24.2836 O.2       2 ALA2        0.0000 
    147 CA         27.3179   14.7835   25.3166 C.3       5 GLY6        0.0000 
    148 N          30.4158   11.9485   20.7762 N.2       2 ALA2        0.0000 
    149 OG         29.4156   12.3758   21.8092 O.2       1 SER1        0.0000 
    150 OG         28.4154   12.8030   22.8422 O.2       1 SER1        0.0000 
    151 N          27.4153   13.2302   23.8752 N.2       2 ALA2        0.0000 
    152 OG         26.4151   13.6574   24.9082 O.2       1 SER1        0.0000 
    153 O          24.4147   14.5119   26.9743 O.2       2 ALA2        0.0000 
    154 N          29.5130   10.8224   20.3678 N.2       2 ALA2        0.0000 
    155 N          28.5128   11.2496   21.4008 N.2       2 ALA2        0.0000 
    156 OG         25.5123   12.5313   24.4999 O.2       1 SER1        0.0000 
    157 OG         23.5119   13.3857   26.5659 O.2       1 SER1        0.0000 
    158 O          22.5117   13.8130   27.5989 O.2       2 ALA2        0.0000 
    159 O          21.5116   14.2402   28.6319 O.2       2 ALA2        0.0000 
    160 N          28.6102    9.6963   19.9594 N.2       2 ALA2        0.0000 
    161 N          27.6100   10.1235   20.9924 N.2       2 ALA2        0.0000 
    162 OG         22.6091   12.2596   26.1575 O.2       1 SER1        0.0000 
    163 NZ         21.6089   12.6868   27.1905 N.2       3 LYS4        0.0000 
    164 DU         20.6087   13.1141   28.2236 H         6 CUB7        0.0000 
    165 OG         19.6086   13.5413   29.2566 O.2       1 SER1        0.0000 
    166 N          23.7066   10.2790   23.6831 N.2       2 ALA2        0.0000 
    167 NZ         22.7065   10.7063   24.7161 N.2       3 LYS4        0.0000 
    168 NZ         21.7063   11.1335   25.7491 N.2       3 LYS4        0.0000 
    169 NZ         20.7061   11.5607   26.7822 N.2       3 LYS4        0.0000 
    170 DU         19.7059   11.9879   27.8152 H         6 CUB7        0.0000 
    171 OG         18.7058   12.4152   28.8482 O.2       1 SER1        0.0000 
    172 NZ         22.8038    9.1529   23.2747 N.2       3 LYS4        0.0000 
    173 NZ         21.8036    9.5801   24.3077 N.2       3 LYS4        0.0000 
    174 N          20.8035   10.0074   25.3407 N.2       2 ALA2        0.0000 
    175 N          19.8033   10.4346   26.3738 N.2       2 ALA2        0.0000 
    176 CZ         18.8031   10.8618   27.4068 C.ar      4 PHE5        0.0000 
    177 CA         33.7834   14.4328   23.0093 C.3       5 GLY6        0.0000 
    178 OG         32.7833   14.8601   24.0424 O.2       1 SER1        0.0000 
    179 N          31.0750   11.0545   21.7842 N.2       2 ALA2        0.0000 
    180 CZ         16.1662   14.4380   23.3747 C.ar      4 PHE5        0.0000 
    181 CZ         15.2634   13.3119   22.9663 C.ar      4 PHE5        0.0000 
@<TRIPOS>BOND
@<TRIPOS>SUBSTRUCTURE
     1 SER1        6 GROUP   
     2 ALA2        1 GROUP   
     3 LYS4       11 GROUP   
     4 PHE5       17 GROUP   
     5 GLY6        7 GROUP   
     6 CUB7       21 GROUP   
@<TRIPOS>SET

