#    Name: 3kmx_G00_1_INTS_M
#    Modification time : Mon Mar 24 19:49:53 2014

@<TRIPOS>MOLECULE
3kmx_G00_1_INTS_M
   46     0     6     0     0
SMALL
NO_CHARGES


@<TRIPOS>ATOM
      1 O          22.1850    7.7715   23.7445 O.2       1 ALC1        0.0000 
      2 O          22.4530    8.8070   24.6810 O.2       5 ALL1        0.0000 
      3 O          21.9170    6.7360   22.8080 O.2       3 ALP1        0.0000 
      4 CA         19.0780   11.3040   22.8850 C.3       2 GLC5        0.0000 
      5 CA         20.4300   10.5390   23.6510 C.3       6 GLL5        0.0000 
      6 CA         17.7260   12.0690   22.1190 C.3       4 GLP5        0.0000 
      7 CA         21.0890   13.3375   19.6275 C.3       2 GLC5        0.0000 
      8 CA         23.1830   13.4880   19.3380 C.3       6 GLL5        0.0000 
      9 CA         18.9950   13.1870   19.9170 C.3       4 GLP5        0.0000 
     10 CA         23.5830   15.0175   20.6190 C.3       2 GLC5        0.0000 
     11 CA         23.9830   16.5470   21.9000 C.3       4 GLP5        0.0000 
     12 CA         22.3610   15.0315   18.4920 C.3       2 GLC5        0.0000 
     13 CA         21.5390   16.5750   17.6460 C.3       4 GLP5        0.0000 
     14 CA         22.6665   12.5710   17.6980 C.3       2 GLC5        0.0000 
     15 CA         22.1500   11.6540   16.0580 C.3       4 GLP5        0.0000 
     16 O          22.6720   10.2625   26.7455 O.2       1 ALC1        0.0000 
     17 O          21.8010   10.8630   25.7860 O.2       5 ALL1        0.0000 
     18 O          23.5430    9.6620   27.7050 O.2       3 ALP1        0.0000 
     19 CA         26.3725    8.9490   19.4270 C.3       2 GLC5        0.0000 
     20 CA         26.7140   10.9650   19.4430 C.3       6 GLL5        0.0000 
     21 CA         26.0310    6.9330   19.4110 C.3       4 GLP5        0.0000 
     22 CA         27.2655    9.9355   17.9090 C.3       2 GLC5        0.0000 
     23 CA         27.8170    8.9060   16.3750 C.3       4 GLP5        0.0000 
     24 CA         27.3595    8.5840   20.1125 C.3       2 GLC5        0.0000 
     25 CA         28.6880   10.2350   20.8140 C.3       6 GLL5        0.0000 
     26 CA         19.4530   10.4445   21.5795 C.3       2 GLC5        0.0000 
     27 CA         20.9360    9.5880   22.1700 C.3       6 GLL5        0.0000 
     28 CA         17.9700   11.3010   20.9890 C.3       4 GLP5        0.0000 
     29 CA         21.3450    8.1510   25.8215 C.3       2 GLC5        0.0000 
     30 CA         21.6760    9.9830   24.7750 C.3       6 GLL5        0.0000 
     31 CA         21.0140    6.3190   26.8680 C.3       4 GLP5        0.0000 
     32 CA         19.6815    8.3157   22.9087 C.3       2 GLC5        0.0000 
     33 CA         18.6800    6.5680   22.9070 C.3       4 GLP5        0.0000 
     34 CA         25.0075    8.3460   20.3293 C.3       2 GLC5        0.0000 
     35 CA         23.4070    9.4880   21.5660 C.3       6 GLL5        0.0000 
     36 CA         22.9515    8.2695   20.3197 C.3       2 GLC5        0.0000 
     37 CA         24.5610   10.0300   20.9290 C.3       6 GLL5        0.0000 
     38 CA         21.9190    6.7800   19.3920 C.3       4 GLP5        0.0000 
     39 CA         25.0280    8.7265   22.7602 C.3       2 GLC5        0.0000 
     40 CA         26.0720    7.6940   24.2730 C.3       4 GLP5        0.0000 
     41 CA         21.7348    8.3330   20.6163 C.3       2 GLC5        0.0000 
     42 CA         22.1650   10.1840   21.5110 C.3       6 GLL5        0.0000 
     43 CA         30.2220    8.7637   21.0195 C.3       2 GLC5        0.0000 
     44 CA         31.3430    7.1300   20.6010 C.3       4 GLP5        0.0000 
     45 CA         28.9419   11.4956   18.8336 C.3       2 GLC5        0.0000 
     46 CA         29.8950   12.2780   17.3150 C.3       4 GLP5        0.0000 
@<TRIPOS>BOND
@<TRIPOS>SUBSTRUCTURE
     1 ALC1        1 GROUP        1 X    ALC  0     ROOT ALC X 1
     2 GLC5        4 GROUP        1 X    GLC  0     **** GLC X 6
     3 ALP1        3 GROUP        1 Y    ALP  0     ROOT ALP Y 8
     4 GLP5        6 GROUP        1 Y    GLP  0     **** GLP Y 13
     5 ALL1        2 GROUP        1 Z    ALL  0     ROOT ALL Z 15
     6 GLL5        5 GROUP        1 Z    GLL  0     **** GLL Z 20
@<TRIPOS>SET

