#    Name: 3kmx_G00_1_ligand
#    Modification time : Mon Mar 24 19:49:53 2014

@<TRIPOS>MOLECULE
3kmx_G00_1_ligand
   34    34     1     0     0
SMALL
NO_CHARGES


@<TRIPOS>ATOM
      1 C1         24.4870   11.2810   20.2330 C.ar      1 G00501      0.0000 
      2 N1         22.4530    8.8070   24.6810 N.pl3     1 G00501      0.0000 
      3 O1         25.6050   11.8530   19.6080 O.3       1 G00501      0.0000 
      4 S1         20.4300   10.5390   23.6510 S.3       1 G00501      0.0000 
      5 CL1        23.1830   13.4880   19.3380 Cl        1 G00501      0.0000 
      6 C2         24.5610   10.0300   20.9290 C.ar      1 G00501      0.0000 
      7 N2         21.8010   10.8630   25.7860 N.pl3     1 G00501      0.0000 
      8 C3         23.4070    9.4880   21.5660 C.ar      1 G00501      0.0000 
      9 C4         22.1650   10.1840   21.5110 C.ar      1 G00501      0.0000 
     10 C5         22.0840   11.4300   20.8220 C.ar      1 G00501      0.0000 
     11 C6         23.2400   11.9680   20.1880 C.ar      1 G00501      0.0000 
     12 C7         26.7140   10.9650   19.4430 C.3       1 G00501      0.0000 
     13 C8         27.8650   11.4180   20.3380 C.3       1 G00501      0.0000 
     14 C9         28.6880   10.2350   20.8140 C.3       1 G00501      0.0000 
     15 C10        29.5140   10.5600   22.0620 C.3       1 G00501      0.0000 
     16 C11        20.9360    9.5880   22.1700 C.3       1 G00501      0.0000 
     17 C12        21.6760    9.9830   24.7750 C.2       1 G00501      0.0000 
     18 H          25.4464    9.5276   20.9665 H         1 G00501      0.0000 
     19 H          22.4513   10.6177   26.5050 H         1 G00501      0.0000 
     20 H          21.2324   11.6836   25.7280 H         1 G00501      0.0000 
     21 H          23.4705    8.6010   22.0617 H         1 G00501      0.0000 
     22 H          21.2016   11.9328   20.7840 H         1 G00501      0.0000 
     23 H          27.0759   10.9558   18.4099 H         1 G00501      0.0000 
     24 H          26.4563    9.9382   19.7217 H         1 G00501      0.0000 
     25 H          27.4587   11.9488   21.2009 H         1 G00501      0.0000 
     26 H          28.5039   12.1036   19.7783 H         1 G00501      0.0000 
     27 H          29.3665    9.9178   20.0130 H         1 G00501      0.0000 
     28 H          28.0206    9.3947   21.0401 H         1 G00501      0.0000 
     29 H          20.0525    9.6334   21.5690 H         1 G00501      0.0000 
     30 H          21.0896    8.6119   22.5793 H         1 G00501      0.0000 
     31 H          30.0544    9.7749   22.3646 H         1 G00501      0.0000 
     32 H          30.1540   11.3108   21.8986 H         1 G00501      0.0000 
     33 H          28.9346   10.8307   22.8307 H         1 G00501      0.0000 
     34 H          22.0261    8.2725   23.9515 H         1 G00501      0.0000 
@<TRIPOS>BOND
     1    3    1 1    
     2    6    1 ar   
     3   11    1 ar   
     4   17    2 2    
     5   34    2 1    
     6   12    3 1    
     7   16    4 1    
     8   17    4 1    
     9   11    5 1    
    10    8    6 ar   
    11   18    6 1    
    12   17    7 1    
    13   19    7 1    
    14   20    7 1    
    15    9    8 ar   
    16   21    8 1    
    17   10    9 ar   
    18   16    9 1    
    19   11   10 ar   
    20   22   10 1    
    21   13   12 1    
    22   23   12 1    
    23   24   12 1    
    24   14   13 1    
    25   25   13 1    
    26   26   13 1    
    27   15   14 1    
    28   27   14 1    
    29   28   14 1    
    30   31   15 1    
    31   32   15 1    
    32   33   15 1    
    33   29   16 1    
    34   30   16 1    
@<TRIPOS>SUBSTRUCTURE
     1 G00501      1 GROUP   
@<TRIPOS>SET

