#    Name: 1zyj_BI5_1_INTS_M
#    Modification time : Mon Mar 24 18:10:26 2014

@<TRIPOS>MOLECULE
1zyj_BI5_1_INTS_M
   56     0     6     0     0
SMALL
NO_CHARGES


@<TRIPOS>ATOM
      1 N          51.6250   38.5475  -30.1765 N.am      1 SEC2        0.0000 
      2 N          52.1890   39.0500  -29.0190 N.am      5 SEL2        0.0000 
      3 N          51.0610   38.0450  -31.3340 N.am      3 SEP2        0.0000 
      4 CA         53.3025   38.4880  -28.0810 C.3       2 GLC5        0.0000 
      5 CA         51.4280   39.3130  -27.8570 C.3       6 GLL5        0.0000 
      6 CA         55.1770   37.6630  -28.3050 C.3       4 GLP5        0.0000 
      7 CA         51.0870   39.3225  -29.8975 C.3       2 GLC5        0.0000 
      8 CA         50.7460   39.3320  -31.9380 C.3       4 GLP5        0.0000 
      9 CA         49.3490   36.5760  -27.3745 C.3       2 GLC5        0.0000 
     10 CA         50.4550   38.2620  -27.3840 C.3       6 GLL5        0.0000 
     11 CA         48.2430   34.8900  -27.3650 C.3       4 GLP5        0.0000 
     12 CA         53.8570   36.7805  -26.7925 C.3       2 GLC5        0.0000 
     13 CA         52.5370   35.8980  -25.2800 C.3       6 GLL5        0.0000 
     14 CA         58.5210   30.6945  -23.7390 C.3       2 GLC5        0.0000 
     15 CA         56.9160   31.4820  -22.5070 C.3       6 GLL5        0.0000 
     16 CA         60.1260   29.9070  -24.9710 C.3       4 GLP5        0.0000 
     17 CA         56.5650   33.8900  -24.2580 C.3       2 GLC5        0.0000 
     18 CA         56.3790   32.8360  -22.5280 C.3       6 GLL5        0.0000 
     19 CA         56.7510   34.9440  -25.9880 C.3       4 GLP5        0.0000 
     20 N          51.9770   35.7100  -28.9615 N.am      1 SEC2        0.0000 
     21 N          51.7410   35.9630  -27.5340 N.am      5 SEL2        0.0000 
     22 N          52.2130   35.4570  -30.3890 N.am      3 SEP2        0.0000 
     23 CA         54.1815   39.1500  -28.7400 C.3       2 GLC5        0.0000 
     24 CA         53.1060   40.0040  -29.5240 C.3       6 GLL5        0.0000 
     25 CA         51.9660   39.9845  -30.5565 C.3       2 GLC5        0.0000 
     26 CA         49.6164   39.8604  -28.4007 C.3       2 GLC5        0.0000 
     27 CA         48.2630   40.6210  -29.3650 C.3       4 GLP5        0.0000 
     28 CA         54.7880   35.0903  -25.6760 C.3       2 GLC5        0.0000 
     29 CA         51.2510   34.9043  -24.3040 C.3       2 GLC5        0.0000 
     30 CA         53.1130   34.5750  -25.4480 C.3       6 GLL5        0.0000 
     31 CA         49.6770   34.5720  -23.2440 C.3       4 GLP5        0.0000 
     32 CA         54.3695   32.6743  -25.2043 C.3       2 GLC5        0.0000 
     33 CA         55.2650   31.0420  -25.5300 C.3       4 GLP5        0.0000 
     34 CA         55.3220   34.6838  -24.8407 C.3       2 GLC5        0.0000 
     35 CA         53.8350   34.0380  -24.3090 C.3       6 GLL5        0.0000 
     36 CA         51.7850   34.4977  -23.4688 C.3       2 GLC5        0.0000 
     37 CA         55.4977   36.3833  -22.8377 C.3       2 GLC5        0.0000 
     38 CA         53.9510   34.8090  -23.0780 C.3       6 GLL5        0.0000 
     39 CA         57.3280   37.2920  -22.6710 C.3       4 GLP5        0.0000 
     40 CA         51.3503   35.4933  -23.3710 C.3       2 GLC5        0.0000 
     41 CA         53.3840   36.1400  -22.9310 C.3       6 GLL5        0.0000 
     42 CA         54.9365   31.7933  -23.6448 C.3       2 GLC5        0.0000 
     43 CA         55.0350   33.0720  -22.0180 C.3       6 GLL5        0.0000 
     44 CA         55.4423   31.8852  -19.6988 C.3       2 GLC5        0.0000 
     45 CA         54.1810   32.0170  -21.5010 C.3       6 GLL5        0.0000 
     46 CA         56.4320   32.4280  -17.9050 C.3       4 GLP5        0.0000 
     47 CA         55.3657   28.8335  -20.8270 C.3       2 GLC5        0.0000 
     48 CA         54.7240   30.6680  -21.4840 C.3       6 GLL5        0.0000 
     49 CA         55.3340   27.1230  -19.9230 C.3       4 GLP5        0.0000 
     50 CA         55.3312   30.7930  -23.6305 C.3       2 GLC5        0.0000 
     51 CA         57.9332   30.0530  -21.3863 C.3       2 GLC5        0.0000 
     52 CA         56.0710   30.4200  -21.9780 C.3       6 GLL5        0.0000 
     53 CA         59.3730   29.1550  -20.5300 C.3       4 GLP5        0.0000 
     54 CA         57.4603   32.9230  -21.1520 C.3       2 GLC5        0.0000 
     55 CA         58.6090   33.6280  -19.9140 C.3       4 GLP5        0.0000 
     56 CA         55.9562   31.6005  -24.0237 C.3       2 GLC5        0.0000 
@<TRIPOS>BOND
@<TRIPOS>SUBSTRUCTURE
     1 SEC2        1 GROUP        1 X    SEC  0     ROOT SEC X 2
     2 GLC5        4 GROUP        1 X    GLC  0     **** GLC X 6
     3 SEP2        3 GROUP        1 Y    SEP  0     ROOT SEP Y 9
     4 GLP5        6 GROUP        1 Y    GLP  0     **** GLP Y 13
     5 SEL2        2 GROUP        1 Z    SEL  0     ROOT SEL Z 16
     6 GLL5        5 GROUP        1 Z    GLL  0     **** GLL Z 20
@<TRIPOS>SET

