#    Name: 1zyj_BI5_1_ligand
#    Modification time : Mon Mar 24 18:10:26 2014

@<TRIPOS>MOLECULE
1zyj_BI5_1_ligand
   39    41     1     0     0
SMALL
NO_CHARGES


@<TRIPOS>ATOM
      1 N1         52.1890   39.0500  -29.0190 N.ar      1 BI5362      0.0000 
      2 C1         51.4280   39.3130  -27.8570 C.ar      1 BI5362      0.0000 
      3 C2         51.5410   40.5620  -27.1210 C.ar      1 BI5362      0.0000 
      4 C3         52.4830   41.5460  -27.6310 C.ar      1 BI5362      0.0000 
      5 C4         53.2660   41.2700  -28.8260 C.ar      1 BI5362      0.0000 
      6 C5         53.1060   40.0040  -29.5240 C.ar      1 BI5362      0.0000 
      7 C6         50.4550   38.2620  -27.3840 C.3       1 BI5362      0.0000 
      8 N2         50.9350   37.5410  -26.1920 N.am      1 BI5362      0.0000 
      9 C7         51.7020   36.4750  -26.4120 C.2       1 BI5362      0.0000 
     10 C8         52.5370   35.8980  -25.2800 C.ar      1 BI5362      0.0000 
     11 C9         53.1130   34.5750  -25.4480 C.ar      1 BI5362      0.0000 
     12 C10        53.8350   34.0380  -24.3090 C.ar      1 BI5362      0.0000 
     13 C11        53.9510   34.8090  -23.0780 C.ar      1 BI5362      0.0000 
     14 C12        53.3840   36.1400  -22.9310 C.ar      1 BI5362      0.0000 
     15 C13        52.6630   36.6890  -24.0650 C.ar      1 BI5362      0.0000 
     16 O1         54.5380   34.3110  -21.9800 O.3       1 BI5362      0.0000 
     17 C14        55.0350   33.0720  -22.0180 C.ar      1 BI5362      0.0000 
     18 C15        54.1810   32.0170  -21.5010 C.ar      1 BI5362      0.0000 
     19 C16        54.7240   30.6680  -21.4840 C.ar      1 BI5362      0.0000 
     20 C17        56.0710   30.4200  -21.9780 C.ar      1 BI5362      0.0000 
     21 C18        56.9160   31.4820  -22.5070 C.ar      1 BI5362      0.0000 
     22 C19        56.3790   32.8360  -22.5280 C.ar      1 BI5362      0.0000 
     23 O2         51.7410   35.9630  -27.5340 O.2       1 BI5362      0.0000 
     24 H          51.0038   40.7342  -26.3133 H         1 BI5362      0.0000 
     25 H          52.5948   42.4288  -27.1515 H         1 BI5362      0.0000 
     26 H          53.9185   41.9556  -29.1695 H         1 BI5362      0.0000 
     27 H          53.6478   39.8246  -30.3536 H         1 BI5362      0.0000 
     28 H          50.2746   37.5506  -28.2095 H         1 BI5362      0.0000 
     29 H          49.4871   38.7484  -27.1679 H         1 BI5362      0.0000 
     30 H          50.6609   37.8887  -25.2935 H         1 BI5362      0.0000 
     31 H          53.0189   34.0726  -26.2854 H         1 BI5362      0.0000 
     32 H          54.2609   33.1237  -24.3677 H         1 BI5362      0.0000 
     33 H          53.4863   36.6506  -22.0903 H         1 BI5362      0.0000 
     34 H          52.2556   37.6033  -24.0133 H         1 BI5362      0.0000 
     35 H          53.2687   32.2071  -21.1741 H         1 BI5362      0.0000 
     36 H          54.1696   29.9057  -21.1311 H         1 BI5362      0.0000 
     37 H          56.4379   29.4643  -21.9527 H         1 BI5362      0.0000 
     38 H          57.8288   31.2893  -22.8426 H         1 BI5362      0.0000 
     39 H          56.9248   33.5921  -22.8871 H         1 BI5362      0.0000 
@<TRIPOS>BOND
     1    2    1 ar   
     2    6    1 ar   
     3    3    2 ar   
     4    7    2 1    
     5    4    3 ar   
     6   24    3 1    
     7    5    4 ar   
     8   25    4 1    
     9    6    5 ar   
    10   26    5 1    
    11   27    6 1    
    12    8    7 1    
    13   28    7 1    
    14   29    7 1    
    15    9    8 am   
    16   30    8 1    
    17   10    9 1    
    18   23    9 2    
    19   11   10 ar   
    20   15   10 ar   
    21   12   11 ar   
    22   31   11 1    
    23   13   12 ar   
    24   32   12 1    
    25   14   13 ar   
    26   16   13 1    
    27   15   14 ar   
    28   33   14 1    
    29   34   15 1    
    30   17   16 1    
    31   18   17 ar   
    32   22   17 ar   
    33   19   18 ar   
    34   35   18 1    
    35   20   19 ar   
    36   36   19 1    
    37   21   20 ar   
    38   37   20 1    
    39   22   21 ar   
    40   38   21 1    
    41   39   22 1    
@<TRIPOS>SUBSTRUCTURE
     1 BI5362      1 GROUP   
@<TRIPOS>SET

