#    Name: 3en7_ABJ_1_INTS_M
#    Modification time : Tue Mar 25 02:11:40 2014

@<TRIPOS>MOLECULE
3en7_ABJ_1_INTS_M
   46     0     9     0     0
SMALL
NO_CHARGES


@<TRIPOS>ATOM
      1 CA         -7.1845   11.2285   -6.0815 C.3       3 GLC5        0.0000 
      2 CA         -6.2290   10.2860   -5.0390 C.3       9 GLL5        0.0000 
      3 CA         -8.1400   12.1710   -7.1240 C.3       6 GLP5        0.0000 
      4 CA         -7.4885    7.8315   -2.2350 C.3       3 GLC5        0.0000 
      5 CA         -6.0140    8.6260   -3.0580 C.3       9 GLL5        0.0000 
      6 CA         -8.9630    7.0370   -1.4120 C.3       6 GLP5        0.0000 
      7 CA         -5.9660    6.6585   -2.9725 C.3       3 GLC5        0.0000 
      8 CA         -5.9180    4.6910   -2.8870 C.3       6 GLP5        0.0000 
      9 CA         -8.0750    8.6185   -6.8430 C.3       3 GLC5        0.0000 
     10 CA         -6.7670    7.1470   -5.8450 C.3       9 GLL5        0.0000 
     11 CA         -9.3830   10.0900   -7.8410 C.3       6 GLP5        0.0000 
     12 CA         -6.3425    5.9190   -4.3660 C.3       3 GLC5        0.0000 
     13 CA         -9.1510    8.2460   -7.0530 C.3       3 GLC5        0.0000 
     14 CA         -8.9190    6.4020   -6.2650 C.3       9 GLL5        0.0000 
     15 CA         -9.7475    4.6230   -5.8865 C.3       3 GLC5        0.0000 
     16 CA        -10.5760    2.8440   -5.5080 C.3       6 GLP5        0.0000 
     17 N          -9.3985    4.3040   -6.9670 N.am      2 SEC2        0.0000 
     18 N          -8.4730    5.4200   -7.0390 N.am      8 SEL2        0.0000 
     19 N         -10.3240    3.1880   -6.8950 N.am      5 SEP2        0.0000 
     20 CA         -8.2080    3.9535   -6.0100 C.3       3 GLC5        0.0000 
     21 CA         -7.1540    5.2480   -7.2650 C.3       9 GLL5        0.0000 
     22 CA         -9.2620    2.6590   -4.7550 C.3       6 GLP5        0.0000 
     23 O          -7.4230    3.1435   -8.8835 O.2       1 ALC1        0.0000 
     24 O          -6.7400    4.2510   -8.0460 O.2       7 ALL1        0.0000 
     25 O          -8.1060    2.0360   -9.7210 O.2       4 ALP1        0.0000 
     26 CA         -1.5590    3.1930   -5.2695 C.3       3 GLC5        0.0000 
     27 CA         -1.4700    4.8700   -6.5040 C.3       9 GLL5        0.0000 
     28 CA         -1.6480    1.5160   -4.0350 C.3       6 GLP5        0.0000 
     29 CA         -0.3190    6.3105   -8.6525 C.3       3 GLC5        0.0000 
     30 CA         -1.1500    4.6510   -7.8370 C.3       9 GLL5        0.0000 
     31 CA          0.5120    7.9700   -9.4680 C.3       6 GLP5        0.0000 
     32 CA         -5.5563    9.6495   -6.7350 C.3       3 GLC5        0.0000 
     33 CA         -5.5960    9.0020   -4.4870 C.3       9 GLL5        0.0000 
     34 CA         -5.2000    9.6550   -8.7070 C.3       6 GLP5        0.0000 
     35 CA         -5.8518    8.1455   -7.4817 C.3       3 GLC5        0.0000 
     36 CA         -7.0110    5.6357   -8.8457 C.3       3 GLC5        0.0000 
     37 CA         -6.2400    6.1250   -6.6680 C.3       9 GLL5        0.0000 
     38 CA         -7.3250    5.5850  -10.7250 C.3       6 GLP5        0.0000 
     39 CA         -5.8610    4.3693   -5.7412 C.3       3 GLC5        0.0000 
     40 CA         -5.0250    3.0520   -4.5160 C.3       6 GLP5        0.0000 
     41 CA         -4.3620    7.6497   -8.2765 C.3       3 GLC5        0.0000 
     42 CA         -3.6870    5.7300   -7.1700 C.3       9 GLL5        0.0000 
     43 CA         -1.7588    6.3797  -10.1313 C.3       3 GLC5        0.0000 
     44 CA         -3.3610    5.5590   -8.5220 C.3       9 GLL5        0.0000 
     45 CA         -0.7930    7.4830  -11.5920 C.3       6 GLP5        0.0000 
     46 CA         -3.6814    4.1371   -5.5549 C.3       3 GLC5        0.0000 
@<TRIPOS>BOND
@<TRIPOS>SUBSTRUCTURE
     1 ALC1       23 GROUP        1 X    ALC  0     ROOT ALC X 1
     2 SEC2       17 GROUP        1 X    SEC  0     **** SEC X 2
     3 GLC5        1 GROUP        1 X    GLC  0     **** GLC X 6
     4 ALP1       25 GROUP        1 Y    ALP  0     ROOT ALP Y 8
     5 SEP2       19 GROUP        1 Y    SEP  0     **** SEP Y 9
     6 GLP5        3 GROUP        1 Y    GLP  0     **** GLP Y 13
     7 ALL1       24 GROUP        1 Z    ALL  0     ROOT ALL Z 15
     8 SEL2       18 GROUP        1 Z    SEL  0     **** SEL Z 16
     9 GLL5        2 GROUP        1 Z    GLL  0     **** GLL Z 20
@<TRIPOS>SET

