#    Name: 3en7_ABJ_1_ligand
#    Modification time : Tue Mar 25 02:11:40 2014

@<TRIPOS>MOLECULE
3en7_ABJ_1_ligand
   35    37     1     0     0
SMALL
NO_CHARGES


@<TRIPOS>ATOM
      1 C19        -6.2290   10.2860   -5.0390 C.3       1 ABJ1        0.0000 
      2 C14        -5.5960    9.0020   -4.4870 C.3       1 ABJ1        0.0000 
      3 C20        -6.0140    8.6260   -3.0580 C.3       1 ABJ1        0.0000 
      4 N11        -5.7160    7.8350   -5.4000 N.pl3     1 ABJ1        0.0000 
      5 N15        -4.6630    7.3650   -5.8390 N.2       1 ABJ1        0.0000 
      6 C7         -6.7670    7.1470   -5.8450 C.ar      1 ABJ1        0.0000 
      7 N3         -8.0930    7.2700   -5.6660 N.ar      1 ABJ1        0.0000 
      8 C6         -8.9190    6.4020   -6.2650 C.ar      1 ABJ1        0.0000 
      9 N5         -8.4730    5.4200   -7.0390 N.ar      1 ABJ1        0.0000 
     10 C2         -7.1540    5.2480   -7.2650 C.ar      1 ABJ1        0.0000 
     11 N1         -6.7400    4.2510   -8.0460 N.pl3     1 ABJ1        0.0000 
     12 C4         -6.2400    6.1250   -6.6680 C.ar      1 ABJ1        0.0000 
     13 C13        -4.8390    6.3240   -6.6330 C.2       1 ABJ1        0.0000 
     14 C18        -3.6870    5.7300   -7.1700 C.ar      1 ABJ1        0.0000 
     15 C28        -3.3610    5.5590   -8.5220 C.ar      1 ABJ1        0.0000 
     16 C27        -2.7240    5.4190   -6.1970 C.ar      1 ABJ1        0.0000 
     17 C30        -1.4700    4.8700   -6.5040 C.ar      1 ABJ1        0.0000 
     18 C26        -1.1500    4.6510   -7.8370 C.ar      1 ABJ1        0.0000 
     19 C29        -2.0880    4.9940   -8.8190 C.ar      1 ABJ1        0.0000 
     20 O33        -1.6620    4.7430  -10.0790 O.3       1 ABJ1        0.0000 
     21 H          -4.4731    9.2223   -4.4134 H         1 ABJ1        0.0000 
     22 H          -9.9648    6.5073   -6.1123 H         1 ABJ1        0.0000 
     23 H          -7.4547    3.6635   -8.4255 H         1 ABJ1        0.0000 
     24 H          -5.7519    4.1801   -8.1823 H         1 ABJ1        0.0000 
     25 H          -3.9895    5.8198   -9.2567 H         1 ABJ1        0.0000 
     26 H          -2.9534    5.6062   -5.1926 H         1 ABJ1        0.0000 
     27 H          -0.8148    4.6399   -5.7618 H         1 ABJ1        0.0000 
     28 H          -0.2529    4.2494   -8.1014 H         1 ABJ1        0.0000 
     29 H          -5.9992   11.0831   -4.4806 H         1 ABJ1        0.0000 
     30 H          -5.9207   10.4815   -5.9700 H         1 ABJ1        0.0000 
     31 H          -7.2268   10.2257   -5.0672 H         1 ABJ1        0.0000 
     32 H          -5.5744    7.7813   -2.7526 H         1 ABJ1        0.0000 
     33 H          -5.7695    9.3382   -2.4000 H         1 ABJ1        0.0000 
     34 H          -7.0014    8.4857   -2.9846 H         1 ABJ1        0.0000 
     35 H          -1.7964    3.9602   -9.4713 H         1 ABJ1        0.0000 
@<TRIPOS>BOND
     1    2    1 1    
     2   29    1 1    
     3   30    1 1    
     4   31    1 1    
     5    3    2 1    
     6    4    2 1    
     7   21    2 1    
     8   32    3 1    
     9   33    3 1    
    10   34    3 1    
    11    5    4 1    
    12    6    4 1    
    13   13    5 2    
    14    7    6 ar   
    15   12    6 ar   
    16    8    7 ar   
    17    9    8 ar   
    18   22    8 1    
    19   10    9 ar   
    20   11   10 1    
    21   12   10 ar   
    22   23   11 1    
    23   24   11 1    
    24   13   12 1    
    25   14   13 1    
    26   15   14 ar   
    27   16   14 ar   
    28   19   15 ar   
    29   25   15 1    
    30   17   16 ar   
    31   26   16 1    
    32   18   17 ar   
    33   27   17 1    
    34   19   18 ar   
    35   28   18 1    
    36   20   19 1    
    37   35   20 1    
@<TRIPOS>SUBSTRUCTURE
     1 ABJ1        1 GROUP   
@<TRIPOS>SET

