#    Name: 1LSP_1_CAVITY_N1_ALL.mol2
#    Modification time : Mon Mar 10 14:49:36 2014

@<TRIPOS>MOLECULE
1LSP_1_CAVITY_N1_ALL.mol2
  146     0     6     0     0
SMALL
NO_CHARGES


@<TRIPOS>ATOM
      1 O           0.1466    4.1025   23.8551 O.2       2 ALA2        0.0000 
      2 NZ          1.1297    3.1923   24.5298 N.2       3 LYS4        0.0000 
      3 O          -0.5186    2.9158   23.2234 O.2       2 ALA2        0.0000 
      4 O           0.4644    2.0056   23.8980 O.2       2 ALA2        0.0000 
      5 NZ          1.4474    1.0953   24.5726 N.2       3 LYS4        0.0000 
      6 OG          4.3965   -1.6354   26.5965 O.2       1 SER1        0.0000 
      7 OG          6.3625   -3.4559   27.9458 O.2       1 SER1        0.0000 
      8 N           7.3455   -4.3661   28.6204 N.2       2 ALA2        0.0000 
      9 NZ          1.7651   -1.0016   24.6155 N.2       3 LYS4        0.0000 
     10 NZ          2.7482   -1.9119   25.2901 N.2       3 LYS4        0.0000 
     11 OG          3.7312   -2.8221   25.9648 O.2       1 SER1        0.0000 
     12 OG          4.7142   -3.7323   26.6394 O.2       1 SER1        0.0000 
     13 OG          5.6972   -4.6426   27.3140 O.2       1 SER1        0.0000 
     14 O          -0.2370    7.2245   21.9562 O.2       2 ALA2        0.0000 
     15 N           0.7460    6.3143   22.6309 N.2       2 ALA2        0.0000 
     16 N           1.7290    5.4040   23.3055 N.2       2 ALA2        0.0000 
     17 CA          2.7120    4.4938   23.9801 C.3       5 GLY6        0.0000 
     18 O          -0.9023    6.0378   21.3245 O.2       2 ALA2        0.0000 
     19 O           0.0807    5.1276   21.9991 O.2       2 ALA2        0.0000 
     20 DU          1.0637    4.2173   22.6737 H         6 CUB7        0.0000 
     21 DU          2.0468    3.3071   23.3484 H         6 CUB7        0.0000 
     22 NZ          3.0298    2.3969   24.0230 N.2       3 LYS4        0.0000 
     23 CA          5.9788   -0.3339   26.0469 C.3       5 GLY6        0.0000 
     24 CA          6.9619   -1.2441   26.7215 C.3       5 GLY6        0.0000 
     25 O          -2.5506    5.7614   20.0181 O.2       2 ALA2        0.0000 
     26 O          -0.5846    3.9409   21.3673 O.2       2 ALA2        0.0000 
     27 O           0.3985    3.0306   22.0420 O.2       2 ALA2        0.0000 
     28 DU          1.3815    2.1204   22.7166 H         6 CUB7        0.0000 
     29 NZ          2.3645    1.2101   23.3912 N.2       3 LYS4        0.0000 
     30 NZ          3.3475    0.2999   24.0659 N.2       3 LYS4        0.0000 
     31 CA          4.3305   -0.6103   24.7405 C.3       5 GLY6        0.0000 
     32 CA          5.3136   -1.5206   25.4151 C.3       5 GLY6        0.0000 
     33 OG          6.2966   -2.4308   26.0897 O.2       1 SER1        0.0000 
     34 N           7.2796   -3.3411   26.7644 N.2       2 ALA2        0.0000 
     35 N           8.2626   -4.2513   27.4390 N.2       2 ALA2        0.0000 
     36 O          -1.2498    2.7542   20.7356 O.2       2 ALA2        0.0000 
     37 O          -0.2668    1.8439   21.4102 O.2       2 ALA2        0.0000 
     38 DU          0.7162    0.9337   22.0848 H         6 CUB7        0.0000 
     39 DU          1.6992    0.0234   22.7595 H         6 CUB7        0.0000 
     40 N           2.6822   -0.8868   23.4341 N.2       2 ALA2        0.0000 
     41 N           3.6653   -1.7970   24.1087 N.2       2 ALA2        0.0000 
     42 N           4.6483   -2.7073   24.7834 N.2       2 ALA2        0.0000 
     43 N           5.6313   -3.6175   25.4580 N.2       2 ALA2        0.0000 
     44 CZ          6.6143   -4.5278   26.1326 C.ar      4 PHE5        0.0000 
     45 N           2.0170   -2.0735   22.8023 N.2       2 ALA2        0.0000 
     46 O           4.9660   -4.8042   24.8262 O.2       2 ALA2        0.0000 
     47 CA          5.9490   -5.7145   25.5008 C.3       5 GLY6        0.0000 
     48 NZ         -0.3029    8.2496   20.1002 N.2       3 LYS4        0.0000 
     49 N           0.6801    7.3394   20.7748 N.2       2 ALA2        0.0000 
     50 N           1.6631    6.4291   21.4494 N.2       2 ALA2        0.0000 
     51 N           3.6291    4.6086   22.7987 N.2       2 ALA2        0.0000 
     52 CA          8.5442    0.0574   26.1719 C.3       5 GLY6        0.0000 
     53 NZ         -0.9682    7.0629   19.4684 N.2       3 LYS4        0.0000 
     54 DU          0.0148    6.1526   20.1431 H         6 CUB7        0.0000 
     55 N           0.9978    5.2424   20.8177 N.2       2 ALA2        0.0000 
     56 N           1.9808    4.3322   21.4923 N.2       2 ALA2        0.0000 
     57 NZ          2.9639    3.4219   22.1669 N.2       3 LYS4        0.0000 
     58 N           3.9469    2.5117   22.8416 N.2       2 ALA2        0.0000 
     59 N           4.9299    1.6014   23.5162 N.2       2 ALA2        0.0000 
     60 N           5.9129    0.6912   24.1908 N.2       2 ALA2        0.0000 
     61 O           6.8959   -0.2191   24.8655 O.2       2 ALA2        0.0000 
     62 CA          7.8790   -1.1293   25.5401 C.3       5 GLY6        0.0000 
     63 N           8.8620   -2.0396   26.2147 N.2       2 ALA2        0.0000 
     64 O          -0.6505    4.9659   19.5113 O.2       2 ALA2        0.0000 
     65 O           0.3325    4.0557   20.1859 O.2       2 ALA2        0.0000 
     66 DU          1.3156    3.1454   20.8605 H         6 CUB7        0.0000 
     67 DU          2.2986    2.2352   21.5352 H         6 CUB7        0.0000 
     68 DU          3.2816    1.3250   22.2098 H         6 CUB7        0.0000 
     69 DU          4.2646    0.4147   22.8844 H         6 CUB7        0.0000 
     70 N           5.2476   -0.4955   23.5591 N.2       2 ALA2        0.0000 
     71 N           6.2307   -1.4058   24.2337 N.2       2 ALA2        0.0000 
     72 N           7.2137   -2.3160   24.9083 N.2       2 ALA2        0.0000 
     73 CZ          8.1967   -3.2263   25.5830 C.ar      4 PHE5        0.0000 
     74 DU         -0.3327    2.8690   19.5542 H         6 CUB7        0.0000 
     75 OG          0.6503    1.9587   20.2288 O.2       1 SER1        0.0000 
     76 O           1.6333    1.0485   20.9034 O.2       2 ALA2        0.0000 
     77 O           2.6163    0.1383   21.5780 O.2       2 ALA2        0.0000 
     78 O           3.5993   -0.7720   22.2527 O.2       2 ALA2        0.0000 
     79 N           4.5824   -1.6822   22.9273 N.2       2 ALA2        0.0000 
     80 N           5.5654   -2.5925   23.6019 N.2       2 ALA2        0.0000 
     81 CZ          7.5314   -4.4130   24.9512 C.ar      4 PHE5        0.0000 
     82 OG          0.9680   -0.1382   20.2717 O.2       1 SER1        0.0000 
     83 N           2.2625    8.6409   20.2252 N.2       2 ALA2        0.0000 
     84 NZ          0.6142    8.3644   18.9188 N.2       3 LYS4        0.0000 
     85 N           1.5972    7.4542   19.5934 N.2       2 ALA2        0.0000 
     86 N           2.5802    6.5439   20.2680 N.2       2 ALA2        0.0000 
     87 N           8.4783    1.0824   24.3158 N.2       2 ALA2        0.0000 
     88 CA          9.4613    0.1722   24.9904 C.3       5 GLY6        0.0000 
     89 NZ         -0.0511    7.1777   18.2870 N.2       3 LYS4        0.0000 
     90 DU          0.9319    6.2675   18.9616 H         6 CUB7        0.0000 
     91 N           1.9149    5.3572   19.6363 N.2       2 ALA2        0.0000 
     92 NZ          2.8979    4.4470   20.3109 N.2       3 LYS4        0.0000 
     93 NZ          4.8640    2.6265   21.6602 N.2       3 LYS4        0.0000 
     94 N           5.8470    1.7162   22.3348 N.2       2 ALA2        0.0000 
     95 N           6.8300    0.8060   23.0094 N.2       2 ALA2        0.0000 
     96 N           7.8130   -0.1043   23.6840 N.2       2 ALA2        0.0000 
     97 N           8.7961   -1.0145   24.3587 N.2       2 ALA2        0.0000 
     98 DU         -0.7164    5.9910   17.6552 H         6 CUB7        0.0000 
     99 DU          0.2666    5.0807   18.3299 H         6 CUB7        0.0000 
    100 DU          1.2496    4.1705   19.0045 H         6 CUB7        0.0000 
    101 NZ          2.2327    3.2603   19.6791 N.2       3 LYS4        0.0000 
    102 NZ          3.2157    2.3500   20.3538 N.2       3 LYS4        0.0000 
    103 NZ          4.1987    1.4398   21.0284 N.2       3 LYS4        0.0000 
    104 O           5.1817    0.5295   21.7030 O.2       2 ALA2        0.0000 
    105 N           6.1647   -0.3807   22.3776 N.2       2 ALA2        0.0000 
    106 DU         -0.3987    3.8940   17.6981 H         6 CUB7        0.0000 
    107 DU          0.5844    2.9838   18.3727 H         6 CUB7        0.0000 
    108 OG          1.5674    2.0736   19.0474 O.2       1 SER1        0.0000 
    109 O           2.5504    1.1633   19.7220 O.2       2 ALA2        0.0000 
    110 CA         -0.0809    1.7971   17.7410 C.3       5 GLY6        0.0000 
    111 CA          1.5313    8.4792   17.7373 C.3       5 GLY6        0.0000 
    112 N           2.5143    7.5690   18.4120 N.2       2 ALA2        0.0000 
    113 N           0.8660    7.2925   17.1056 N.2       2 ALA2        0.0000 
    114 N           1.8490    6.3823   17.7802 N.2       2 ALA2        0.0000 
    115 N           2.8320    5.4720   18.4548 N.2       2 ALA2        0.0000 
    116 DU          0.2007    6.1058   16.4738 H         6 CUB7        0.0000 
    117 DU          1.1837    5.1956   17.1485 H         6 CUB7        0.0000 
    118 N           2.1667    4.2853   17.8231 N.2       2 ALA2        0.0000 
    119 NZ          3.1498    3.3751   18.4977 N.2       3 LYS4        0.0000 
    120 DU          0.5184    4.0089   16.5167 H         6 CUB7        0.0000 
    121 DU          1.5014    3.0986   17.1913 H         6 CUB7        0.0000 
    122 NZ          2.4845    2.1884   17.8659 N.2       3 LYS4        0.0000 
    123 O           3.4675    1.2781   18.5406 O.2       2 ALA2        0.0000 
    124 CA         -0.1469    2.8221   15.8849 C.3       5 GLY6        0.0000 
    125 CA          0.8362    1.9119   16.5596 C.3       5 GLY6        0.0000 
    126 CA          1.8192    1.0017   17.2342 C.3       5 GLY6        0.0000 
    127 N           1.7831    7.4073   15.9242 N.2       2 ALA2        0.0000 
    128 DU          1.1178    6.2206   15.2924 H         6 CUB7        0.0000 
    129 N           2.1008    5.3104   15.9670 N.2       2 ALA2        0.0000 
    130 N           3.0838    4.4001   16.6417 N.2       2 ALA2        0.0000 
    131 DU          0.4525    5.0339   14.6606 H         6 CUB7        0.0000 
    132 N           1.4355    4.1237   15.3353 N.2       2 ALA2        0.0000 
    133 N           2.4185    3.2134   16.0099 N.2       2 ALA2        0.0000 
    134 O           3.4016    2.3032   16.6845 O.2       2 ALA2        0.0000 
    135 N          -0.2128    3.8472   14.0289 N.2       2 ALA2        0.0000 
    136 O           0.7702    2.9370   14.7035 O.2       2 ALA2        0.0000 
    137 O           1.7533    2.0267   15.3781 O.2       2 ALA2        0.0000 
    138 N           2.0349    6.3354   14.1110 N.2       2 ALA2        0.0000 
    139 N           1.3696    5.1487   13.4792 N.2       2 ALA2        0.0000 
    140 N           2.3526    4.2385   14.1539 N.2       2 ALA2        0.0000 
    141 N           3.3356    3.3282   14.8285 N.2       2 ALA2        0.0000 
    142 N           0.7043    3.9620   12.8475 N.2       2 ALA2        0.0000 
    143 O           1.6873    3.0518   13.5221 O.2       2 ALA2        0.0000 
    144 NZ          2.2867    5.2635   12.2978 N.2       3 LYS4        0.0000 
    145 N           3.2697    4.3533   12.9724 N.2       2 ALA2        0.0000 
    146 CA          1.6214    4.0768   11.6660 C.3       5 GLY6        0.0000 
@<TRIPOS>BOND
@<TRIPOS>SUBSTRUCTURE
     1 SER1        6 GROUP   
     2 ALA2        1 GROUP   
     3 LYS4        2 GROUP   
     4 PHE5       44 GROUP   
     5 GLY6       17 GROUP   
     6 CUB7       20 GROUP   
@<TRIPOS>SET

