#    Name: 1lsp_BUL_1_INTS_M
#    Modification time : Tue Mar 25 11:16:42 2014

@<TRIPOS>MOLECULE
1lsp_BUL_1_INTS_M
   55     0    15     0     0
SMALL
NO_CHARGES


@<TRIPOS>ATOM
      1 CA          5.4330   -3.0030   22.4025 C.3       5 GLC5        0.0000 
      2 CA          5.2550   -2.4470   24.4930 C.3      15 GLL5        0.0000 
      3 CA          5.6110   -3.5590   20.3120 C.3      10 GLP5        0.0000 
      4 OD1         5.2970    2.4960   21.0020 O.co2     3 ASC3        0.0000 
      5 OD1         4.9160    1.7760   22.7120 O.co2    13 ASL3        0.0000 
      6 OD1         5.6780    3.2160   19.2920 O.co2     8 ASP3        0.0000 
      7 N           8.3590   -2.8795   27.7680 N.am      2 SEC2        0.0000 
      8 N           7.6010   -3.5370   26.7920 N.am     12 SEL2        0.0000 
      9 N           9.1170   -2.2220   28.7440 N.am      7 SEP2        0.0000 
     10 O           7.6290   -2.3655   23.3955 O.2       1 ALC1        0.0000 
     11 O           7.5630   -1.7880   24.6870 O.2      11 ALL1        0.0000 
     12 O           7.6950   -2.9430   22.1040 O.2       6 ALP1        0.0000 
     13 N           7.0555    1.2490   26.4720 N.am      2 SEC2        0.0000 
     14 N           7.4350   -0.0490   26.0300 N.am     12 SEL2        0.0000 
     15 N           6.6760    2.5470   26.9140 N.am      7 SEP2        0.0000 
     16 CA          8.9365    1.8645   25.2575 C.3       5 GLC5        0.0000 
     17 CA          9.2050    0.0170   24.4870 C.3      15 GLL5        0.0000 
     18 CA          8.6680    3.7120   26.0280 C.3      10 GLP5        0.0000 
     19 CA         10.5640   -1.2735   25.1380 C.3       5 GLC5        0.0000 
     20 CA         11.9230   -2.5640   25.7890 C.3      10 GLP5        0.0000 
     21 CA          9.9985    0.2535   22.9685 C.3       5 GLC5        0.0000 
     22 CA         10.7920    0.4900   21.4500 C.3      10 GLP5        0.0000 
     23 CA          8.0930    0.0725   21.1950 C.3       5 GLC5        0.0000 
     24 CA          6.3910   -0.0530   21.8440 C.3      15 GLL5        0.0000 
     25 CA          9.7950    0.1980   20.5460 C.3      10 GLP5        0.0000 
     26 CA          6.0010   -1.8060   21.0780 C.3       5 GLC5        0.0000 
     27 N           4.5755   -0.6000   20.0245 N.am      2 SEC2        0.0000 
     28 N           5.6250    0.3840   20.7370 N.am     12 SEL2        0.0000 
     29 N           3.5260   -1.5840   19.3120 N.am      7 SEP2        0.0000 
     30 O           6.2560    0.9950   19.6795 O.2       1 ALC1        0.0000 
     31 O           5.6250    0.3840   20.7370 O.2      11 ALL1        0.0000 
     32 O           6.8870    1.6060   18.6220 O.2       6 ALP1        0.0000 
     33 CA          0.2285    4.7250   25.8415 C.3       5 GLC5        0.0000 
     34 CA          0.0290    4.5770   23.8900 C.3      15 GLL5        0.0000 
     35 CA          0.4280    4.8730   27.7930 C.3      10 GLP5        0.0000 
     36 NZ         -2.4790    5.2410   23.3130 N.4       4 LYC4        0.0000 
     37 NZ         -1.5360    6.4610   23.1780 N.4      14 LYL4        0.0000 
     38 NZ         -3.4220    4.0210   23.4480 N.4       9 LYP4        0.0000 
     39 N          -2.0255    7.7545   23.4845 N.am      2 SEC2        0.0000 
     40 N          -1.5360    6.4610   23.1780 N.am     12 SEL2        0.0000 
     41 N          -2.5150    9.0480   23.7910 N.am      7 SEP2        0.0000 
     42 NZ         -2.2030    5.1885   24.4400 N.4       4 LYC4        0.0000 
     43 NZ         -0.9840    6.3560   25.4320 N.4      14 LYL4        0.0000 
     44 N          -0.3080    6.8355   26.4760 N.am      2 SEC2        0.0000 
     45 N          -0.9840    6.3560   25.4320 N.am     12 SEL2        0.0000 
     46 N           0.3680    7.3150   27.5200 N.am      7 SEP2        0.0000 
     47 N           1.7335    6.7780   25.1285 N.am      2 SEC2        0.0000 
     48 N           0.7490    7.1760   23.9940 N.am     12 SEL2        0.0000 
     49 N           2.7180    6.3800   26.2630 N.am      7 SEP2        0.0000 
     50 CA          7.7320   -5.4045   25.8578 C.3       5 GLC5        0.0000 
     51 CA          6.7920   -4.0060   25.7380 C.3      15 GLL5        0.0000 
     52 CA          9.2730   -6.5370   25.5910 C.3      10 GLP5        0.0000 
     53 CA          4.5766    0.8306   25.2055 C.3       5 GLC5        0.0000 
     54 CA          4.3740   -0.4930   23.3750 C.3      15 GLL5        0.0000 
     55 CA          4.4700    1.4590   27.1290 C.3      10 GLP5        0.0000 
@<TRIPOS>BOND
@<TRIPOS>SUBSTRUCTURE
     1 ALC1       10 GROUP        1 X    ALC  0     ROOT ALC X 1
     2 SEC2        7 GROUP        1 X    SEC  0     **** SEC X 2
     3 ASC3        4 GROUP        1 X    ASC  0     **** ASC X 3
     4 LYC4       36 GROUP        1 X    LYC  0     **** LYC X 4
     5 GLC5        1 GROUP        1 X    GLC  0     **** GLC X 6
     6 ALP1       12 GROUP        1 Y    ALP  0     ROOT ALP Y 8
     7 SEP2        9 GROUP        1 Y    SEP  0     **** SEP Y 9
     8 ASP3        6 GROUP        1 Y    ASP  0     **** ASP Y 10
     9 LYP4       38 GROUP        1 Y    LYP  0     **** LYP Y 11
    10 GLP5        3 GROUP        1 Y    GLP  0     **** GLP Y 13
    11 ALL1       11 GROUP        1 Z    ALL  0     ROOT ALL Z 15
    12 SEL2        8 GROUP        1 Z    SEL  0     **** SEL Z 16
    13 ASL3        5 GROUP        1 Z    ASL  0     **** ASL Z 17
    14 LYL4       37 GROUP        1 Z    LYL  0     **** LYL Z 18
    15 GLL5        2 GROUP        1 Z    GLL  0     **** GLL Z 20
@<TRIPOS>SET

