#    Name: 1lsp_BUL_1_ligand
#    Modification time : Tue Mar 25 11:16:42 2014

@<TRIPOS>MOLECULE
1lsp_BUL_1_ligand
   61    62     1     0     0
SMALL
NO_CHARGES


@<TRIPOS>ATOM
      1 O1          4.1630   -3.1270   24.9870 O.3       1 BUL295      0.0000 
      2 C2          5.2550   -2.4470   24.4930 C.3       1 BUL295      0.0000 
      3 C3          6.5050   -2.5870   25.2740 C.3       1 BUL295      0.0000 
      4 C4          6.7920   -4.0060   25.7380 C.3       1 BUL295      0.0000 
      5 C5          5.5900   -4.5380   26.5110 C.3       1 BUL295      0.0000 
      6 C6          4.3250   -4.2310   25.7680 C.3       1 BUL295      0.0000 
      7 N7          4.9160    1.7760   22.7120 N.4       1 BUL295      0.0000 
      8 C8          3.3880    1.5440   22.6640 C.3       1 BUL295      0.0000 
      9 C9          3.1450    0.3540   23.5890 C.3       1 BUL295      0.0000 
     10 C10         4.3740   -0.4930   23.3750 C.3       1 BUL295      0.0000 
     11 C11         5.6070    0.4740   23.0820 C.3       1 BUL295      0.0000 
     12 C12         3.0080   -4.6940   26.2870 C.3       1 BUL295      0.0000 
     13 O13         2.1120   -4.8420   25.1480 O.3       1 BUL295      0.0000 
     14 O14         5.8080   -5.9770   26.4580 O.3       1 BUL295      0.0000 
     15 O15         7.6010   -3.5370   26.7920 O.3       1 BUL295      0.0000 
     16 N16         7.5630   -1.7880   24.6870 N.am      1 BUL295      0.0000 
     17 C17         8.0930   -0.6680   25.2200 C.2       1 BUL295      0.0000 
     18 O18         7.4350   -0.0490   26.0300 O.2       1 BUL295      0.0000 
     19 C19         9.2050    0.0170   24.4870 C.3       1 BUL295      0.0000 
     20 O20         4.7910   -1.1840   24.5250 O.3       1 BUL295      0.0000 
     21 C21         6.3910   -0.0530   21.8440 C.3       1 BUL295      0.0000 
     22 O22         5.6250    0.3840   20.7370 O.3       1 BUL295      0.0000 
     23 C23         2.8560    2.9250   22.9870 C.2       1 BUL295      0.0000 
     24 O24         3.4520    3.7150   23.7390 O.2       1 BUL295      0.0000 
     25 N25         1.5710    3.1100   22.6190 N.am      1 BUL295      0.0000 
     26 C26         0.9760    4.4850   22.6990 C.3       1 BUL295      0.0000 
     27 C27         0.0290    4.5770   23.8900 C.3       1 BUL295      0.0000 
     28 S28        -0.4100    6.2840   24.0780 S.o2      1 BUL295      0.0000 
     29 O29        -1.5360    6.4610   23.1780 O.co2     1 BUL295      0.0000 
     30 O30        -0.9840    6.3560   25.4320 O.co2     1 BUL295      0.0000 
     31 O31         0.7490    7.1760   23.9940 O.co2     1 BUL295      0.0000 
     32 S32         5.8650   -6.4570   27.9240 S.o2      1 BUL295      0.0000 
     33 O33         4.7050   -5.9000   28.6250 O.co2     1 BUL295      0.0000 
     34 O34         5.3900   -7.8400   27.8850 O.co2     1 BUL295      0.0000 
     35 O35         7.2140   -6.5820   28.4590 O.co2     1 BUL295      0.0000 
     36 H           5.4422   -2.7473   23.4583 H         1 BUL295      0.0000 
     37 H           6.2341   -2.0174   26.2848 H         1 BUL295      0.0000 
     38 H           7.1958   -4.5647   25.1005 H         1 BUL295      0.0000 
     39 H           5.5928   -4.1783   27.4719 H         1 BUL295      0.0000 
     40 H           4.4297   -5.1259   24.8348 H         1 BUL295      0.0000 
     41 H           3.1771    1.2891   21.6454 H         1 BUL295      0.0000 
     42 H           2.2785   -0.1681   23.2757 H         1 BUL295      0.0000 
     43 H           3.0981    0.6883   24.5928 H         1 BUL295      0.0000 
     44 H           4.2798   -1.1080   22.5248 H         1 BUL295      0.0000 
     45 H           6.1791    0.5633   23.9102 H         1 BUL295      0.0000 
     46 H           2.6188   -3.9601   26.9895 H         1 BUL295      0.0000 
     47 H           3.1366   -5.6442   26.8010 H         1 BUL295      0.0000 
     48 H           7.9281   -2.1501   23.7516 H         1 BUL295      0.0000 
     49 H           6.4379   -1.1217   21.9278 H         1 BUL295      0.0000 
     50 H           7.3702    0.3843   21.8772 H         1 BUL295      0.0000 
     51 H           0.9595    2.3742   22.2839 H         1 BUL295      0.0000 
     52 H           0.4211    4.7033   21.7877 H         1 BUL295      0.0000 
     53 H           1.7660    5.2253   22.8167 H         1 BUL295      0.0000 
     54 H           0.4875    4.3395   24.8070 H         1 BUL295      0.0000 
     55 H          -0.8959    4.1029   23.7253 H         1 BUL295      0.0000 
     56 H           9.5180    0.8358   24.9682 H         1 BUL295      0.0000 
     57 H           9.9998   -0.5797   24.3762 H         1 BUL295      0.0000 
     58 H           8.9244    0.3045   23.5712 H         1 BUL295      0.0000 
     59 H           2.2899   -4.0432   24.5734 H         1 BUL295      0.0000 
     60 H           7.6055   -4.2776   27.4639 H         1 BUL295      0.0000 
     61 H           6.2780    0.8456   20.1366 H         1 BUL295      0.0000 
@<TRIPOS>BOND
     1    2    1 1    
     2    6    1 1    
     3    3    2 1    
     4   20    2 1    
     5   36    2 1    
     6    4    3 1    
     7   16    3 1    
     8   37    3 1    
     9    5    4 1    
    10   15    4 1    
    11   38    4 1    
    12    6    5 1    
    13   14    5 1    
    14   39    5 1    
    15   12    6 1    
    16   40    6 1    
    17    8    7 1    
    18   11    7 1    
    19    9    8 1    
    20   23    8 1    
    21   41    8 1    
    22   10    9 1    
    23   42    9 1    
    24   43    9 1    
    25   11   10 1    
    26   20   10 1    
    27   44   10 1    
    28   21   11 1    
    29   45   11 1    
    30   13   12 1    
    31   46   12 1    
    32   47   12 1    
    33   59   13 1    
    34   32   14 1    
    35   60   15 1    
    36   17   16 am   
    37   48   16 1    
    38   18   17 2    
    39   19   17 1    
    40   56   19 1    
    41   57   19 1    
    42   58   19 1    
    43   22   21 1    
    44   49   21 1    
    45   50   21 1    
    46   61   22 1    
    47   24   23 2    
    48   25   23 am   
    49   26   25 1    
    50   51   25 1    
    51   27   26 1    
    52   52   26 1    
    53   53   26 1    
    54   28   27 1    
    55   54   27 1    
    56   55   27 1    
    57   29   28 ar   
    58   30   28 ar   
    59   31   28 ar   
    60   33   32 ar   
    61   34   32 ar   
    62   35   32 ar   
@<TRIPOS>SUBSTRUCTURE
     1 BUL295      1 GROUP   
@<TRIPOS>SET

