#    Name: 4e5i_0N9_4_ligand
#    Modification time : Mon Apr  7 23:19:18 2014

@<TRIPOS>MOLECULE
4e5i_0N9_4_ligand
   23    24     1     0     0
SMALL
NO_CHARGES


@<TRIPOS>ATOM
      1 O16       -52.1810  -15.0200   24.3830 O.co2     1 0N9305      0.0000 
      2 C14       -51.2660  -15.8020   24.0410 C.2       1 0N9305      0.0000 
      3 O15       -51.1160  -16.1480   22.8470 O.co2     1 0N9305      0.0000 
      4 C3        -50.3360  -16.3510   25.0900 C.2       1 0N9305      0.0000 
      5 C2        -49.1120  -17.1120   24.7230 C.2       1 0N9305      0.0000 
      6 O13       -48.7710  -17.3400   23.4230 O.co2     1 0N9305      0.0000 
      7 N4        -50.6050  -16.1760   26.4060 N.2       1 0N9305      0.0000 
      8 C5        -49.7890  -16.6650   27.3790 C.2       1 0N9305      0.0000 
      9 N6        -48.6650  -17.3570   27.1010 N.am      1 0N9305      0.0000 
     10 C1        -48.2750  -17.6110   25.8410 C.2       1 0N9305      0.0000 
     11 O12       -47.2270  -18.2550   25.6150 O.2       1 0N9305      0.0000 
     12 C7        -50.1570  -16.4180   28.8030 C.2       1 0N9305      0.0000 
     13 N11       -49.5240  -15.5880   29.6620 N.2       1 0N9305      0.0000 
     14 C10       -50.1770  -15.6580   30.8470 C.2       1 0N9305      0.0000 
     15 N9        -51.2050  -16.5160   30.7360 N.pl3     1 0N9305      0.0000 
     16 C17       -52.1660  -16.8680   31.8130 C.3       1 0N9305      0.0000 
     17 C8        -51.2170  -16.9970   29.4860 C.2       1 0N9305      0.0000 
     18 H         -48.0729  -17.7102   27.9033 H         1 0N9305      0.0000 
     19 H         -49.9351  -15.1634   31.6468 H         1 0N9305      0.0000 
     20 H         -51.8301  -17.6239   29.1069 H         1 0N9305      0.0000 
     21 H         -51.7062  -17.2730   32.6033 H         1 0N9305      0.0000 
     22 H         -52.6641  -16.0661   32.1429 H         1 0N9305      0.0000 
     23 H         -52.8484  -17.5288   31.5005 H         1 0N9305      0.0000 
@<TRIPOS>BOND
     1    2    1 ar   
     2    3    2 ar   
     3    4    2 1    
     4    5    4 2    
     5    7    4 1    
     6    6    5 ar   
     7   10    5 1    
     8    8    7 2    
     9    9    8 1    
    10   12    8 1    
    11   10    9 am   
    12   18    9 1    
    13   11   10 2    
    14   13   12 1    
    15   17   12 2    
    16   14   13 2    
    17   15   14 1    
    18   19   14 1    
    19   16   15 1    
    20   17   15 1    
    21   21   16 1    
    22   22   16 1    
    23   23   16 1    
    24   20   17 1    
@<TRIPOS>SUBSTRUCTURE
     1 0N9305      1 GROUP   
@<TRIPOS>SET

