#    Name: 3sz1_LU2_1_INTS_M
#    Modification time : Mon Mar 24 18:54:21 2014

@<TRIPOS>MOLECULE
3sz1_LU2_1_INTS_M
   51     0     9     0     0
SMALL
NO_CHARGES


@<TRIPOS>ATOM
      1 CA         37.2450  -23.5660   40.3315 C.3       3 GLC5        0.0000 
      2 CA         36.8060  -22.3400   41.8430 C.3       9 GLL5        0.0000 
      3 CA         37.6840  -24.7920   38.8200 C.3       6 GLP5        0.0000 
      4 CA         33.9840  -21.1035   40.9550 C.3       3 GLC5        0.0000 
      5 CA         35.9230  -21.2870   42.0110 C.3       9 GLL5        0.0000 
      6 CA         32.0450  -20.9200   39.8990 C.3       6 GLP5        0.0000 
      7 CA         34.6270  -19.8490   43.9705 C.3       3 GLC5        0.0000 
      8 CA         36.2520  -20.1270   42.7220 C.3       9 GLL5        0.0000 
      9 CA         33.0020  -19.5710   45.2190 C.3       6 GLP5        0.0000 
     10 N          45.3480  -26.6055   42.9910 N.am      2 SEC2        0.0000 
     11 N          44.4170  -25.6550   42.5200 N.am      8 SEL2        0.0000 
     12 N          46.2790  -27.5560   43.4620 N.am      5 SEP2        0.0000 
     13 N          45.9810  -25.5465   42.3635 N.am      2 SEC2        0.0000 
     14 N          47.5450  -25.4380   42.2070 N.am      5 SEP2        0.0000 
     15 O          44.8620  -24.5180   42.8920 O.2       1 ALC1        0.0000 
     16 O          44.4170  -25.6550   42.5200 O.2       7 ALL1        0.0000 
     17 O          45.3070  -23.3810   43.2640 O.2       4 ALP1        0.0000 
     18 CA         38.5835  -23.2390   40.6045 C.3       3 GLC5        0.0000 
     19 CA         38.0640  -22.2850   42.4050 C.3       9 GLL5        0.0000 
     20 CA         39.1030  -24.1930   38.8040 C.3       6 GLP5        0.0000 
     21 O          42.5855  -29.0875   41.3420 O.2       1 ALC1        0.0000 
     22 O          43.1840  -27.9510   41.8420 O.2       7 ALL1        0.0000 
     23 O          41.9870  -30.2240   40.8420 O.2       4 ALP1        0.0000 
     24 CA         38.4035  -23.6740   44.1495 C.3       3 GLC5        0.0000 
     25 CA         40.1160  -23.3940   42.7490 C.3       9 GLL5        0.0000 
     26 CA         36.6910  -23.9540   45.5500 C.3       6 GLP5        0.0000 
     27 CA         42.8520  -22.6140   42.0435 C.3       3 GLC5        0.0000 
     28 CA         42.3250  -24.4880   42.6400 C.3       9 GLL5        0.0000 
     29 CA         43.3790  -20.7400   41.4470 C.3       6 GLP5        0.0000 
     30 CA         44.1350  -26.5185   44.0060 C.3       3 GLC5        0.0000 
     31 CA         43.0740  -25.6550   42.4080 C.3       9 GLL5        0.0000 
     32 CA         45.1960  -27.3820   45.6040 C.3       6 GLP5        0.0000 
     33 CA         37.4557  -19.3825   41.7182 C.3       3 GLC5        0.0000 
     34 CA         38.8240  -18.0580   41.0700 C.3       6 GLP5        0.0000 
     35 CA         35.0422  -19.1520   42.1562 C.3       3 GLC5        0.0000 
     36 CA         33.9970  -17.5970   41.9460 C.3       6 GLP5        0.0000 
     37 CA         36.1661  -21.8131   43.9138 C.3       3 GLC5        0.0000 
     38 CA         36.0240  -22.6560   45.5030 C.3       6 GLP5        0.0000 
     39 CA         38.5468  -19.8798   41.9260 C.3       3 GLC5        0.0000 
     40 CA         37.1467  -22.1788   44.1425 C.3       3 GLC5        0.0000 
     41 CA         38.4750  -21.1180   43.1590 C.3       9 GLL5        0.0000 
     42 CA         41.1275  -23.7110   44.8415 C.3       3 GLC5        0.0000 
     43 CA         41.8970  -24.5940   46.5490 C.3       6 GLP5        0.0000 
     44 CA         41.8685  -21.7840   42.2905 C.3       3 GLC5        0.0000 
     45 CA         40.6000  -22.2620   43.5190 C.3       9 GLL5        0.0000 
     46 CA         44.4642  -23.8648   42.5250 C.3       3 GLC5        0.0000 
     47 CA         46.2290  -22.6580   42.5260 C.3       6 GLP5        0.0000 
     48 CA         39.3702  -27.1833   43.3470 C.3       3 GLC5        0.0000 
     49 CA         40.2710  -25.7670   42.1500 C.3       9 GLL5        0.0000 
     50 CA         38.0870  -28.0230   44.6700 C.3       6 GLP5        0.0000 
     51 CA         39.7465  -24.5308   40.5971 C.3       3 GLC5        0.0000 
@<TRIPOS>BOND
@<TRIPOS>SUBSTRUCTURE
     1 ALC1       15 GROUP        1 X    ALC  0     ROOT ALC X 1
     2 SEC2       10 GROUP        1 X    SEC  0     **** SEC X 2
     3 GLC5        1 GROUP        1 X    GLC  0     **** GLC X 6
     4 ALP1       17 GROUP        1 Y    ALP  0     ROOT ALP Y 8
     5 SEP2       12 GROUP        1 Y    SEP  0     **** SEP Y 9
     6 GLP5        3 GROUP        1 Y    GLP  0     **** GLP Y 13
     7 ALL1       16 GROUP        1 Z    ALL  0     ROOT ALL Z 15
     8 SEL2       11 GROUP        1 Z    SEL  0     **** SEL Z 16
     9 GLL5        2 GROUP        1 Z    GLL  0     **** GLL Z 20
@<TRIPOS>SET

