#    Name: 3sz1_LU2_1_ligand
#    Modification time : Mon Mar 24 18:54:21 2014

@<TRIPOS>MOLECULE
3sz1_LU2_1_ligand
   30    32     1     0     0
SMALL
NO_CHARGES


@<TRIPOS>ATOM
      1 C1         36.8060  -22.3400   41.8430 C.ar      1 LU21        0.0000 
      2 O1         34.7180  -21.4410   41.4730 O.3       1 LU21        0.0000 
      3 C2         35.9230  -21.2870   42.0110 C.ar      1 LU21        0.0000 
      4 O2         37.8020  -18.8800   44.0150 O.co2     1 LU21        0.0000 
      5 C3         36.2520  -20.1270   42.7220 C.ar      1 LU21        0.0000 
      6 O3         40.2110  -20.1420   44.3810 O.2       1 LU21        0.0000 
      7 C4         37.5270  -20.0300   43.3170 C.ar      1 LU21        0.0000 
      8 O4         38.8410  -23.4110   42.1940 O.3       1 LU21        0.0000 
      9 C5         38.4750  -21.1180   43.1590 C.ar      1 LU21        0.0000 
     10 O5         44.4170  -25.6550   42.5200 O.3       1 LU21        0.0000 
     11 C6         38.0640  -22.2850   42.4050 C.ar      1 LU21        0.0000 
     12 O6         43.1840  -27.9510   41.8420 O.3       1 LU21        0.0000 
     13 C7         39.7830  -21.1150   43.7220 C.2       1 LU21        0.0000 
     14 C8         40.6000  -22.2620   43.5190 C.2       1 LU21        0.0000 
     15 C9         40.1160  -23.3940   42.7490 C.2       1 LU21        0.0000 
     16 C10        40.9020  -24.5460   42.5120 C.ar      1 LU21        0.0000 
     17 C11        42.3250  -24.4880   42.6400 C.ar      1 LU21        0.0000 
     18 C12        43.0740  -25.6550   42.4080 C.ar      1 LU21        0.0000 
     19 C13        42.4320  -26.8520   42.0460 C.ar      1 LU21        0.0000 
     20 C14        41.0360  -26.9200   41.8980 C.ar      1 LU21        0.0000 
     21 C15        40.2710  -25.7670   42.1500 C.ar      1 LU21        0.0000 
     22 H          36.5197  -23.1669   41.2955 H         1 LU21        0.0000 
     23 H          35.5865  -19.3646   42.8108 H         1 LU21        0.0000 
     24 H          41.5385  -22.3019   43.9137 H         1 LU21        0.0000 
     25 H          42.7739  -23.6186   42.8931 H         1 LU21        0.0000 
     26 H          40.5877  -27.7850   41.6145 H         1 LU21        0.0000 
     27 H          39.2499  -25.8009   42.0737 H         1 LU21        0.0000 
     28 H          34.5408  -22.4244   41.5126 H         1 LU21        0.0000 
     29 H          44.6185  -24.9659   43.2160 H         1 LU21        0.0000 
     30 H          42.5599  -28.6204   41.4391 H         1 LU21        0.0000 
@<TRIPOS>BOND
     1    3    1 ar   
     2   11    1 ar   
     3   22    1 1    
     4    3    2 1    
     5   28    2 1    
     6    5    3 ar   
     7    7    4 ar   
     8    7    5 ar   
     9   23    5 1    
    10   13    6 2    
    11    9    7 ar   
    12   11    8 1    
    13   15    8 1    
    14   11    9 ar   
    15   13    9 1    
    16   18   10 1    
    17   29   10 1    
    18   19   12 1    
    19   30   12 1    
    20   14   13 1    
    21   15   14 2    
    22   24   14 1    
    23   16   15 1    
    24   17   16 ar   
    25   21   16 ar   
    26   18   17 ar   
    27   25   17 1    
    28   19   18 ar   
    29   20   19 ar   
    30   21   20 ar   
    31   26   20 1    
    32   27   21 1    
@<TRIPOS>SUBSTRUCTURE
     1 LU21        1 GROUP   
@<TRIPOS>SET

