#    Name: 3RJM_2_CAVITY_N1_ALL.mol2
#    Modification time : Mon Mar 10 20:42:25 2014

@<TRIPOS>MOLECULE
3RJM_2_CAVITY_N1_ALL.mol2
   92     0     6     0     0
SMALL
NO_CHARGES


@<TRIPOS>ATOM
      1 DU        -25.0466   28.0386   25.5824 H         6 CUB7        0.0000 
      2 DU        -26.1304   28.4561   26.5317 H         6 CUB7        0.0000 
      3 CZ        -24.9952   27.3191   23.5875 C.ar      4 PHE5        0.0000 
      4 CZ        -26.0789   27.7365   24.5368 C.ar      4 PHE5        0.0000 
      5 CZ        -27.1626   28.1540   25.4861 C.ar      4 PHE5        0.0000 
      6 DU        -28.2464   28.5714   26.4355 H         6 CUB7        0.0000 
      7 CZ        -27.1112   27.4344   23.4912 C.ar      4 PHE5        0.0000 
      8 CZ        -28.1949   27.8519   24.4406 C.ar      4 PHE5        0.0000 
      9 DU        -29.2786   28.2693   25.3899 H         6 CUB7        0.0000 
     10 CZ        -28.1434   27.1323   22.4457 C.ar      4 PHE5        0.0000 
     11 CZ        -29.2271   27.5498   23.3950 C.ar      4 PHE5        0.0000 
     12 DU        -30.3109   27.9672   24.3444 H         6 CUB7        0.0000 
     13 CA        -30.2594   27.2477   22.3495 C.3       5 GLY6        0.0000 
     14 DU        -31.3431   27.6651   23.2988 H         6 CUB7        0.0000 
     15 DU        -25.2494   28.0690   30.0777 H         6 CUB7        0.0000 
     16 O         -27.4169   28.9040   31.9764 O.2       2 ALA2        0.0000 
     17 NZ        -24.1142   26.9320   27.1335 N.2       3 LYS4        0.0000 
     18 NZ        -25.1979   27.3495   28.0828 N.2       3 LYS4        0.0000 
     19 DU        -27.3654   28.1844   29.9815 H         6 CUB7        0.0000 
     20 O         -28.4491   28.6018   30.9308 O.2       2 ALA2        0.0000 
     21 N         -24.0627   26.2125   25.1386 N.2       2 ALA2        0.0000 
     22 DU        -25.1464   26.6299   26.0879 H         6 CUB7        0.0000 
     23 DU        -26.2302   27.0474   27.0372 H         6 CUB7        0.0000 
     24 CA        -28.3976   27.8823   28.9359 C.3       5 GLY6        0.0000 
     25 N         -24.0112   25.4929   23.1437 N.2       2 ALA2        0.0000 
     26 N         -25.0949   25.9104   24.0930 N.2       2 ALA2        0.0000 
     27 DU        -26.1787   26.3278   25.0423 H         6 CUB7        0.0000 
     28 DU        -27.2624   26.7453   25.9917 H         6 CUB7        0.0000 
     29 DU        -29.4299   27.5802   27.8904 H         6 CUB7        0.0000 
     30 OG        -25.0435   25.1908   22.0981 O.2       1 SER1        0.0000 
     31 CZ        -26.1272   25.6083   23.0475 C.ar      4 PHE5        0.0000 
     32 CZ        -27.2109   26.0257   23.9968 C.ar      4 PHE5        0.0000 
     33 DU        -28.2947   26.4432   24.9461 H         6 CUB7        0.0000 
     34 DU        -30.4621   27.2781   26.8448 H         6 CUB7        0.0000 
     35 O         -31.5459   27.6955   27.7942 O.2       2 ALA2        0.0000 
     36 CA        -27.1595   25.3062   22.0019 C.3       5 GLY6        0.0000 
     37 CA        -28.2432   25.7236   22.9512 C.3       5 GLY6        0.0000 
     38 CA        -29.3269   26.1411   23.9006 C.3       5 GLY6        0.0000 
     39 DU        -30.4107   26.5585   24.8499 H         6 CUB7        0.0000 
     40 O         -31.4944   26.9760   25.7993 O.2       2 ALA2        0.0000 
     41 O         -32.5781   27.3934   26.7486 O.2       2 ALA2        0.0000 
     42 CA        -30.3592   25.8390   22.8550 C.3       5 GLY6        0.0000 
     43 DU        -31.4429   26.2564   23.8044 H         6 CUB7        0.0000 
     44 O         -32.5267   26.6739   24.7537 O.2       2 ALA2        0.0000 
     45 NZ        -24.2654   26.2429   29.6339 N.2       3 LYS4        0.0000 
     46 DU        -25.3492   26.6603   30.5832 H         6 CUB7        0.0000 
     47 CA        -26.4329   27.0778   31.5326 C.3       5 GLY6        0.0000 
     48 NZ        -25.2977   25.9408   28.5883 N.2       3 LYS4        0.0000 
     49 DU        -26.3814   26.3582   29.5377 H         6 CUB7        0.0000 
     50 O         -27.4652   26.7757   30.4870 O.2       2 ALA2        0.0000 
     51 N         -28.5489   27.1931   31.4364 N.2       2 ALA2        0.0000 
     52 NZ        -25.2462   25.2212   26.5934 N.2       3 LYS4        0.0000 
     53 DU        -26.3299   25.6387   27.5428 H         6 CUB7        0.0000 
     54 O         -27.4137   26.0561   28.4921 O.2       2 ALA2        0.0000 
     55 O         -28.4974   26.4736   29.4415 O.2       2 ALA2        0.0000 
     56 CA        -25.1947   24.5017   24.5986 C.3       5 GLY6        0.0000 
     57 CA        -26.2785   24.9191   25.5479 C.3       5 GLY6        0.0000 
     58 CA        -27.3622   25.3366   26.4972 C.3       5 GLY6        0.0000 
     59 DU        -28.4459   25.7540   27.4466 H         6 CUB7        0.0000 
     60 O         -29.5297   26.1715   28.3959 O.2       2 ALA2        0.0000 
     61 CA        -26.2270   24.1996   23.5530 C.3       5 GLY6        0.0000 
     62 N         -27.3107   24.6170   24.5023 N.2       2 ALA2        0.0000 
     63 N         -28.3945   25.0345   25.4517 N.2       2 ALA2        0.0000 
     64 DU        -29.4782   25.4519   26.4010 H         6 CUB7        0.0000 
     65 O         -30.5619   25.8694   27.3504 O.2       2 ALA2        0.0000 
     66 N         -28.3430   24.3149   23.4568 N.2       2 ALA2        0.0000 
     67 N         -29.4267   24.7324   24.4061 N.2       2 ALA2        0.0000 
     68 DU        -30.5104   25.1498   25.3555 H         6 CUB7        0.0000 
     69 O         -31.5942   25.5673   26.3048 O.2       2 ALA2        0.0000 
     70 CA        -30.4590   24.4303   23.3606 C.3       5 GLY6        0.0000 
     71 O         -31.5427   24.8477   24.3099 O.2       2 ALA2        0.0000 
     72 O         -32.6264   25.2652   25.2593 O.2       2 ALA2        0.0000 
     73 NZ        -24.3652   24.8342   30.1394 N.2       3 LYS4        0.0000 
     74 CA        -25.4489   25.2516   31.0888 C.3       5 GLY6        0.0000 
     75 CA        -26.5327   25.6691   32.0381 C.3       5 GLY6        0.0000 
     76 NZ        -25.3975   24.5321   29.0939 N.2       3 LYS4        0.0000 
     77 O         -26.4812   24.9495   30.0432 O.2       2 ALA2        0.0000 
     78 CA        -25.3460   23.8125   27.0990 C.3       5 GLY6        0.0000 
     79 CA        -26.4297   24.2300   28.0483 C.3       5 GLY6        0.0000 
     80 O         -27.5135   24.6474   28.9977 O.2       2 ALA2        0.0000 
     81 O         -28.5457   24.3453   27.9521 O.2       2 ALA2        0.0000 
     82 CA        -27.4105   23.2083   25.0079 C.3       5 GLY6        0.0000 
     83 CA        -28.4942   23.6258   25.9572 C.3       5 GLY6        0.0000 
     84 CA        -29.5780   24.0432   26.9066 C.3       5 GLY6        0.0000 
     85 O         -30.6617   24.4607   27.8559 O.2       2 ALA2        0.0000 
     86 N         -30.6102   23.7411   25.8610 N.2       2 ALA2        0.0000 
     87 O         -31.6425   23.4390   24.8155 O.2       2 ALA2        0.0000 
     88 CA        -25.4972   23.1234   29.5994 C.3       5 GLY6        0.0000 
     89 O         -26.5810   23.5408   30.5488 O.2       2 ALA2        0.0000 
     90 CA        -28.6455   22.9366   28.4577 C.3       5 GLY6        0.0000 
     91 CA        -29.6777   22.6345   27.4121 C.3       5 GLY6        0.0000 
     92 N         -30.7100   22.3324   26.3666 N.2       2 ALA2        0.0000 
@<TRIPOS>BOND
@<TRIPOS>SUBSTRUCTURE
     1 SER1       30 GROUP   
     2 ALA2       16 GROUP   
     3 LYS4       17 GROUP   
     4 PHE5        3 GROUP   
     5 GLY6       13 GROUP   
     6 CUB7        1 GROUP   
@<TRIPOS>SET

