#    Name: 3rjm_VAL_ASP_VAL_ACE_3PX_ASJ_2_INTS_M
#    Modification time : Tue Mar 25 11:34:44 2014

@<TRIPOS>MOLECULE
3rjm_VAL_ASP_VAL_ACE_3PX_ASJ_2_INTS_M
   98     0    12     0     0
SMALL
NO_CHARGES


@<TRIPOS>ATOM
      1 O         -38.9715   28.6025   21.1535 O.2       1 ALC1        0.0000 
      2 O         -38.6850   28.7720   19.6500 O.2       9 ALL1        0.0000 
      3 O         -39.2580   28.4330   22.6570 O.2       5 ALP1        0.0000 
      4 N         -37.6720   26.4660   21.9920 N.am      2 SEC2        0.0000 
      5 N         -36.8730   27.2020   21.0790 N.am     10 SEL2        0.0000 
      6 N         -38.4710   25.7300   22.9050 N.am      6 SEP2        0.0000 
      7 N         -38.0655   27.8175   21.8680 N.am      2 SEC2        0.0000 
      8 N         -39.2580   28.4330   22.6570 N.am      6 SEP2        0.0000 
      9 CA        -34.6830   30.0860   18.3600 C.3       4 GLC5        0.0000 
     10 CA        -36.5700   30.1470   19.4800 C.3      12 GLL5        0.0000 
     11 CA        -32.7960   30.0250   17.2400 C.3       8 GLP5        0.0000 
     12 CA        -37.0260   29.3955   22.6720 C.3       4 GLC5        0.0000 
     13 CA        -36.4660   30.5040   20.9700 C.3      12 GLL5        0.0000 
     14 CA        -37.5860   28.2870   24.3740 C.3       8 GLP5        0.0000 
     15 O         -35.2020   27.7355   17.9575 O.2       1 ALC1        0.0000 
     16 O         -35.3250   27.3650   19.4380 O.2       9 ALL1        0.0000 
     17 O         -35.0790   28.1060   16.4770 O.2       5 ALP1        0.0000 
     18 CA        -35.9475   25.1285   20.8500 C.3       4 GLC5        0.0000 
     19 CA        -34.4340   26.3520   19.9930 C.3      12 GLL5        0.0000 
     20 CA        -37.4610   23.9050   21.7070 C.3       8 GLP5        0.0000 
     21 CA        -31.8415   25.1360   19.6135 C.3       4 GLC5        0.0000 
     22 CA        -33.8150   25.5210   18.8590 C.3      12 GLL5        0.0000 
     23 CA        -29.8680   24.7510   20.3680 C.3       8 GLP5        0.0000 
     24 CA        -33.1980   23.6475   18.0490 C.3       4 GLC5        0.0000 
     25 CA        -32.5810   21.7740   17.2390 C.3       8 GLP5        0.0000 
     26 CA        -32.9755   25.1080   16.8595 C.3       4 GLC5        0.0000 
     27 CA        -32.1360   24.6950   14.8600 C.3       8 GLP5        0.0000 
     28 N         -37.0560   24.4365   18.7535 N.am      2 SEC2        0.0000 
     29 N         -35.7730   24.1530   18.7780 N.am     10 SEL2        0.0000 
     30 N         -38.3390   24.7200   18.7290 N.am      6 SEP2        0.0000 
     31 N         -35.1255   22.7200   18.7815 N.am      2 SEC2        0.0000 
     32 N         -34.4780   21.2870   18.7850 N.am      6 SEP2        0.0000 
     33 N         -34.3815   25.3320   15.7645 N.am      2 SEC2        0.0000 
     34 N         -34.7400   24.5280   16.8860 N.am     10 SEL2        0.0000 
     35 N         -34.0230   26.1360   14.6430 N.am      6 SEP2        0.0000 
     36 O         -34.0175   25.4865   22.4390 O.2       1 ALC1        0.0000 
     37 O         -33.0090   26.4190   21.9680 O.2       9 ALL1        0.0000 
     38 O         -35.0260   24.5540   22.9100 O.2       5 ALP1        0.0000 
     39 CA        -30.9485   25.8735   21.6325 C.3       4 GLC5        0.0000 
     40 CA        -32.0290   26.9960   22.8970 C.3      12 GLL5        0.0000 
     41 N         -32.3250   23.5205   23.1285 N.am      2 SEC2        0.0000 
     42 N         -31.5190   24.7060   23.3350 N.am     10 SEL2        0.0000 
     43 N         -33.1310   22.3350   22.9220 N.am      6 SEP2        0.0000 
     44 CA        -35.5995   28.5755   23.9705 C.3       4 GLC5        0.0000 
     45 CA        -33.6130   28.8640   23.5670 C.3      12 GLL5        0.0000 
     46 CA        -34.0065   24.6125   24.9565 C.3       4 GLC5        0.0000 
     47 CA        -33.5220   26.7820   24.9490 C.3      12 GLL5        0.0000 
     48 CA        -34.4910   22.4430   24.9640 C.3       8 GLP5        0.0000 
     49 CA        -35.5540   27.5345   24.6615 C.3       4 GLC5        0.0000 
     50 CA        -42.2275   27.0035   20.5670 C.3       4 GLC5        0.0000 
     51 CA        -41.0060   28.1090   19.4560 C.3      12 GLL5        0.0000 
     52 CA        -43.4490   25.8980   21.6780 C.3       8 GLP5        0.0000 
     53 CA        -28.8860   24.3165   22.6175 C.3       4 GLC5        0.0000 
     54 CA        -29.0840   25.1780   24.4890 C.3      12 GLL5        0.0000 
     55 CA        -28.6880   23.4550   20.7460 C.3       8 GLP5        0.0000 
     56 CA        -28.7335   28.8740   22.8960 C.3       4 GLC5        0.0000 
     57 CA        -29.3180   27.5400   24.0720 C.3      12 GLL5        0.0000 
     58 CA        -28.1490   30.2080   21.7200 C.3       8 GLP5        0.0000 
     59 CA        -27.4275   28.4740   23.3570 C.3       4 GLC5        0.0000 
     60 CA        -27.9520   27.2920   24.6970 C.3      12 GLL5        0.0000 
     61 CA        -26.9030   29.6560   22.0170 C.3       8 GLP5        0.0000 
     62 CA        -24.0455   25.0550   20.6725 C.3       4 GLC5        0.0000 
     63 CA        -25.2800   25.0920   21.8610 C.3      12 GLL5        0.0000 
     64 CA        -22.8110   25.0180   19.4840 C.3       8 GLP5        0.0000 
     65 CA        -23.1710   25.0320   25.1440 C.3       4 GLC5        0.0000 
     66 CA        -24.8650   25.3250   24.3350 C.3      12 GLL5        0.0000 
     67 CA        -21.4770   24.7390   25.9530 C.3       8 GLP5        0.0000 
     68 N         -27.6995   20.4340   29.0305 N.am      2 SEC2        0.0000 
     69 N         -28.2430   21.9880   29.2380 N.am     10 SEL2        0.0000 
     70 N         -27.1560   18.8800   28.8230 N.am      6 SEP2        0.0000 
     71 O         -28.7595   22.9715   30.1690 O.2       1 ALC1        0.0000 
     72 O         -28.2430   21.9880   29.2380 O.2       9 ALL1        0.0000 
     73 O         -29.2760   23.9550   31.1000 O.2       5 ALP1        0.0000 
     74 CA        -29.6070   19.9420   25.7095 C.3       4 GLC5        0.0000 
     75 CA        -30.2830   21.4260   26.8110 C.3      12 GLL5        0.0000 
     76 CA        -28.9310   18.4580   24.6080 C.3       8 GLP5        0.0000 
     77 NZ        -32.4075   21.6695   29.9320 N.4       3 LYC4        0.0000 
     78 NZ        -31.5650   21.8120   28.7540 N.4      11 LYL4        0.0000 
     79 NZ        -34.2270   20.6200   31.0570 N.4       7 LYP4        0.0000 
     80 NZ        -32.8700   23.0300   28.2855 N.4       3 LYC4        0.0000 
     81 NZ        -34.1750   24.2480   27.8170 N.4       7 LYP4        0.0000 
     82 N         -32.4075   21.6695   29.9320 N.am      2 SEC2        0.0000 
     83 N         -31.5650   21.8120   28.7540 N.am     10 SEL2        0.0000 
     84 N         -33.2500   21.5270   31.1100 N.am      6 SEP2        0.0000 
     85 N         -33.0415   19.8165   28.8875 N.am      2 SEC2        0.0000 
     86 N         -31.8390   19.9060   27.7080 N.am     10 SEL2        0.0000 
     87 N         -34.2440   19.7270   30.0670 N.am      6 SEP2        0.0000 
     88 N         -32.0915   18.6895   26.8565 N.am      2 SEC2        0.0000 
     89 N         -32.3440   17.4730   26.0050 N.am      6 SEP2        0.0000 
     90 CA        -27.0963   24.4392   21.6290 C.3       4 GLC5        0.0000 
     91 CA        -25.9398   27.0463   21.8525 C.3       4 GLC5        0.0000 
     92 CA        -26.3750   28.6690   21.1930 C.3       8 GLP5        0.0000 
     93 CA        -25.0459   23.7036   23.4053 C.3       4 GLC5        0.0000 
     94 CA        -25.7290   25.7550   23.1630 C.3      12 GLL5        0.0000 
     95 CA        -24.9070   22.0330   23.3870 C.3       8 GLP5        0.0000 
     96 CA        -28.1793   21.7870   27.0774 C.3       4 GLC5        0.0000 
     97 CA        -28.1770   22.0830   28.0190 C.3      12 GLL5        0.0000 
     98 CA        -26.8200   21.6880   26.9310 C.3       8 GLP5        0.0000 
@<TRIPOS>BOND
@<TRIPOS>SUBSTRUCTURE
     1 ALC1        1 GROUP        1 X    ALC  0     ROOT ALC X 1
     2 SEC2        4 GROUP        1 X    SEC  0     **** SEC X 2
     3 LYC4       77 GROUP        1 X    LYC  0     **** LYC X 4
     4 GLC5        9 GROUP        1 X    GLC  0     **** GLC X 6
     5 ALP1        3 GROUP        1 Y    ALP  0     ROOT ALP Y 8
     6 SEP2        6 GROUP        1 Y    SEP  0     **** SEP Y 9
     7 LYP4       79 GROUP        1 Y    LYP  0     **** LYP Y 11
     8 GLP5       11 GROUP        1 Y    GLP  0     **** GLP Y 13
     9 ALL1        2 GROUP        1 Z    ALL  0     ROOT ALL Z 15
    10 SEL2        5 GROUP        1 Z    SEL  0     **** SEL Z 16
    11 LYL4       78 GROUP        1 Z    LYL  0     **** LYL Z 18
    12 GLL5       10 GROUP        1 Z    GLL  0     **** GLL Z 20
@<TRIPOS>SET

