#    Name: 3rjm_VAL_ASP_VAL_ACE_3PX_ASJ_2_ligand
#    Modification time : Tue Mar 25 11:34:44 2014

@<TRIPOS>MOLECULE
3rjm_VAL_ASP_VAL_ACE_3PX_ASJ_2_ligand
   88    88     6     0     0
SMALL
NO_CHARGES


@<TRIPOS>ATOM
      1 N         -38.6850   28.7720   19.6500 N.am      1 VAL402      0.0000
      2 CA        -37.2780   28.7600   19.2670 C.3       1 VAL402      0.0000
      3 C         -36.4760   27.6970   20.0130 C.2       1 VAL402      0.0000
      4 O         -36.8730   27.2020   21.0790 O.2       1 VAL402      0.0000
      5 CB        -36.5700   30.1470   19.4800 C.3       1 VAL402      0.0000
      6 CG1       -37.2750   31.2690   18.6710 C.3       1 VAL402      0.0000
      7 CG2       -36.4660   30.5040   20.9700 C.3       1 VAL402      0.0000
      8 HNCA      -38.8954   29.1514   20.5961 H         1 VAL402      0.0000
      9 HA        -37.1774   28.5378   18.1909 H         1 VAL402      0.0000
     10 HB        -35.5506   30.0474   19.0835 H         1 VAL402      0.0000
     11 H         -36.8332   32.1562   18.8038 H         1 VAL402      0.0000
     12 H         -37.2654   31.0808   17.6889 H         1 VAL402      0.0000
     13 H         -38.2323   31.3751   18.9397 H         1 VAL402      0.0000
     14 HG21      -35.9410   29.8223   21.4795 H         1 VAL402      0.0000
     15 HG22      -36.0154   31.3857   21.1101 H         1 VAL402      0.0000
     16 HG23      -37.3662   30.5631   21.4015 H         1 VAL402      0.0000
     17 N         -35.3250   27.3650   19.4380 N.am      2 ASP403      0.0000
     18 CA        -34.4340   26.3520   19.9930 C.3       2 ASP403      0.0000
     19 C         -33.3720   27.0370   20.8500 C.2       2 ASP403      0.0000
     20 O         -32.9130   28.1170   20.5170 O.2       2 ASP403      0.0000
     21 CB        -33.8150   25.5210   18.8590 C.3       2 ASP403      0.0000
     22 CG        -34.8510   24.6800   18.1190 C.2       2 ASP403      0.0000
     23 OD1       -35.7730   24.1530   18.7780 O.co2     2 ASP403      0.0000
     24 OD2       -34.7400   24.5280   16.8860 O.co2     2 ASP403      0.0000
     25 HNCA      -34.9965   27.8157   18.5522 H         2 ASP403      0.0000
     26 HA        -35.0005   25.6794   20.6320 H         2 ASP403      0.0000
     27 HB2       -33.0488   24.8617   19.2807 H         2 ASP403      0.0000
     28 HB3       -33.3260   26.1979   18.1503 H         2 ASP403      0.0000
     29 N         -33.0090   26.4190   21.9680 N.am      3 VAL404      0.0000
     30 CA        -32.0290   26.9960   22.8970 C.3       3 VAL404      0.0000
     31 C         -31.1520   25.8770   23.4250 C.2       3 VAL404      0.0000
     32 O         -31.5190   24.7060   23.3350 O.2       3 VAL404      0.0000
     33 CB        -32.7210   27.7480   24.0880 C.3       3 VAL404      0.0000
     34 CG1       -33.6130   28.8640   23.5670 C.3       3 VAL404      0.0000
     35 CG2       -33.5220   26.7820   24.9490 C.3       3 VAL404      0.0000
     36 HNCA      -33.3978   25.4928   22.2482 H         3 VAL404      0.0000
     37 HA        -31.3983   27.7076   22.3832 H         3 VAL404      0.0000
     38 HB        -31.9343   28.1860   24.6940 H         3 VAL404      0.0000
     39 H         -33.0953   29.5377   23.0397 H         3 VAL404      0.0000
     40 H         -34.3339   28.5145   22.9685 H         3 VAL404      0.0000
     41 H         -34.0634   29.3575   24.3111 H         3 VAL404      0.0000
     42 HG21      -32.9439   26.0656   25.3395 H         3 VAL404      0.0000
     43 HG22      -33.9679   27.2479   25.7133 H         3 VAL404      0.0000
     44 HG23      -34.2406   26.3254   24.4246 H         3 VAL404      0.0000
     45 C         -39.6410   28.3230   18.8340 C.2       4 ACE401      0.0000
     46 O         -39.4880   28.2610   17.6090 O.2       4 ACE401      0.0000
     47 CH3       -41.0060   28.1090   19.4560 C.3       4 ACE401      0.0000
     48 H         -40.9743   27.4427   20.2010 H         4 ACE401      0.0000
     49 H         -41.3779   28.9560   19.8359 H         4 ACE401      0.0000
     50 H         -41.6695   27.7710   18.7885 H         4 ACE401      0.0000
     51 C         -29.4480   24.6330   25.8350 C.2       5 3PX405      0.0000
     52 N         -29.9880   26.2230   23.9840 N.4       5 3PX405      0.0000
     53 O         -30.0120   25.3410   26.6680 O.co2     5 3PX405      0.0000
     54 CA        -29.0840   25.1780   24.4890 C.3       5 3PX405      0.0000
     55 CB        -27.7130   25.8000   24.5660 C.3       5 3PX405      0.0000
     56 CD        -29.3180   27.5400   24.0720 C.3       5 3PX405      0.0000
     57 CG        -27.9520   27.2920   24.6970 C.3       5 3PX405      0.0000
     58 OB1       -27.0980   25.3980   23.3480 O.3       5 3PX405      0.0000
     59 CB2       -25.7290   25.7550   23.1630 C.3       5 3PX405      0.0000
     60 CB3       -25.2800   25.0920   21.8610 C.3       5 3PX405      0.0000
     61 CB4       -24.8650   25.3250   24.3350 C.3       5 3PX405      0.0000
     62 H         -30.5155   26.3772   25.2830 H         5 3PX405      0.0000
     63 H         -29.0259   24.3659   23.7712 H         5 3PX405      0.0000
     64 H         -27.2328   25.4235   25.4227 H         5 3PX405      0.0000
     65 H         -29.8765   28.2106   24.7038 H         5 3PX405      0.0000
     66 H         -29.1833   27.9656   23.0915 H         5 3PX405      0.0000
     67 H         -27.2050   27.8293   24.1538 H         5 3PX405      0.0000
     68 H         -27.9732   27.5679   25.7291 H         5 3PX405      0.0000
     69 H         -25.6312   26.8268   23.0275 H         5 3PX405      0.0000
     70 H         -24.3232   25.2942   21.6519 H         5 3PX405      0.0000
     71 H         -25.3670   24.0966   21.9018 H         5 3PX405      0.0000
     72 H         -25.8225   25.4018   21.0801 H         5 3PX405      0.0000
     73 H         -23.9068   25.5789   24.2029 H         5 3PX405      0.0000
     74 H         -25.1644   25.7460   25.1912 H         5 3PX405      0.0000
     75 H         -24.8897   24.3346   24.4710 H         5 3PX405      0.0000
     76 C         -28.1770   22.0830   28.0190 C.3       6 ASJ406      0.0000
     77 N         -29.0610   23.3790   26.0540 N.4       6 ASJ406      0.0000
     78 O         -28.2430   21.9880   29.2380 O.3       6 ASJ406      0.0000
     79 CA        -29.4110   22.6090   27.2540 C.3       6 ASJ406      0.0000
     80 CB        -30.2830   21.4260   26.8110 C.3       6 ASJ406      0.0000
     81 CG        -31.2960   21.0210   27.8340 C.2       6 ASJ406      0.0000
     82 OD1       -31.5650   21.8120   28.7540 O.co2     6 ASJ406      0.0000
     83 OD2       -31.8390   19.9060   27.7080 O.co2     6 ASJ406      0.0000
     84 H         -27.6665   23.4406   28.0247 H         6 ASJ406      0.0000
     85 H         -30.0027   23.2105   27.9291 H         6 ASJ406      0.0000
     86 H         -29.6211   20.5747   26.5819 H         6 ASJ406      0.0000
     87 H         -30.7893   21.7018   25.8713 H         6 ASJ406      0.0000
     88 H         -28.8105   22.7589   29.5273 H         6 ASJ406      0.0000
@<TRIPOS>BOND
     1    2    1 1
     2    8    1 1
     3    3    2 1
     4    5    2 1
     5    9    2 1
     6    4    3 2
     7    6    5 1
     8    7    5 1
     9   10    5 1
    10   11    6 1
    11   12    6 1
    12   13    6 1
    13   14    7 1
    14   15    7 1
    15   16    7 1
    16   18   17 1
    17   25   17 1
    18   19   18 1
    19   21   18 1
    20   26   18 1
    21   20   19 2
    22   22   21 1
    23   27   21 1
    24   28   21 1
    25   23   22 ar
    26   24   22 ar
    27   30   29 1
    28   36   29 1
    29   31   30 1
    30   33   30 1
    31   37   30 1
    32   32   31 2
    33   34   33 1
    34   35   33 1
    35   38   33 1
    36   39   34 1
    37   40   34 1
    38   41   34 1
    39   42   35 1
    40   43   35 1
    41   44   35 1
    42   46   45 2
    43   47   45 1
    44   48   47 1
    45   49   47 1
    46   50   47 1
    47   53   51 ar
    48   54   51 1
    49   54   52 1
    50   56   52 1
    51   62   52 1
    52   55   54 1
    53   63   54 1
    54   57   55 1
    55   58   55 1
    56   64   55 1
    57   57   56 1
    58   65   56 1
    59   66   56 1
    60   67   57 1
    61   68   57 1
    62   59   58 1
    63   60   59 1
    64   61   59 1
    65   69   59 1
    66   70   60 1
    67   71   60 1
    68   72   60 1
    69   73   61 1
    70   74   61 1
    71   75   61 1
    72   78   76 1
    73   79   76 1
    74   84   76 1
    75   79   77 1
    76   88   78 1
    77   80   79 1
    78   85   79 1
    79   81   80 1
    80   86   80 1
    81   87   80 1
    82   82   81 ar
    83   83   81 ar
    84   45    1 1 
    85   17    3 am
    86   29   19 am
    87   52   31 1 
    88   77   51 1 
@<TRIPOS>SUBSTRUCTURE
     1 VAL402      1 RESIDUE
     2 ASP403     17 RESIDUE
     3 VAL404     29 RESIDUE
     4 ACE401     45 GROUP
     5 3PX405     51 GROUP
     6 ASJ406     76 GROUP
@<TRIPOS>SET

