#    Name: 3p97_SAM_1_INTS_M
#    Modification time : Tue Mar 25 06:05:34 2014

@<TRIPOS>MOLECULE
3p97_SAM_1_INTS_M
   60     0    12     0     0
SMALL
NO_CHARGES


@<TRIPOS>ATOM
      1 OD1         5.5400   -7.4900   43.4090 O.co2     3 ASC3        0.0000 
      2 OD1         6.9870   -7.4590   43.6400 O.co2    11 ASL3        0.0000 
      3 OD1         4.0930   -7.5210   43.1780 O.co2     7 ASP3        0.0000 
      4 O           5.5400   -7.4900   43.4090 O.2       1 ALC1        0.0000 
      5 O           6.9870   -7.4590   43.6400 O.2       9 ALL1        0.0000 
      6 O           4.0930   -7.5210   43.1780 O.2       5 ALP1        0.0000 
      7 O           7.4305   -7.0625   42.3910 O.2       1 ALC1        0.0000 
      8 O           7.8740   -6.6660   41.1420 O.2       5 ALP1        0.0000 
      9 CA          7.5420   -8.6775   44.1090 C.3       4 GLC5        0.0000 
     10 CA          7.4760   -6.5400   44.7120 C.3      12 GLL5        0.0000 
     11 CA          7.6080  -10.8150   43.5060 C.3       8 GLP5        0.0000 
     12 N           8.5295   -7.5215   47.8550 N.am      2 SEC2        0.0000 
     13 N           8.6110   -6.7440   46.8340 N.am     10 SEL2        0.0000 
     14 N           8.4480   -8.2990   48.8760 N.am      6 SEP2        0.0000 
     15 N          10.0095   -7.3840   46.5765 N.am      2 SEC2        0.0000 
     16 N          11.4080   -8.0240   46.3190 N.am      6 SEP2        0.0000 
     17 CA          5.2105   -5.8450   42.4905 C.3       4 GLC5        0.0000 
     18 CA          5.8520   -4.7990   44.0730 C.3      12 GLL5        0.0000 
     19 CA          4.5690   -6.8910   40.9080 C.3       8 GLP5        0.0000 
     20 CA          6.8025   -1.8445   41.4260 C.3       4 GLC5        0.0000 
     21 CA          5.6750   -1.5570   43.0450 C.3      12 GLL5        0.0000 
     22 CA          7.9300   -2.1320   39.8070 C.3       8 GLP5        0.0000 
     23 CA          7.6895   -1.2745   44.6135 C.3       4 GLC5        0.0000 
     24 CA          5.6750   -0.4950   44.1640 C.3      12 GLL5        0.0000 
     25 CA          9.7040   -2.0540   45.0630 C.3       8 GLP5        0.0000 
     26 N           5.8065    3.0970   43.9715 N.am      2 SEC2        0.0000 
     27 N           6.2890    1.8550   44.0070 N.am     10 SEL2        0.0000 
     28 N           5.3240    4.3390   43.9360 N.am      6 SEP2        0.0000 
     29 CA          6.9515   -0.8400   40.9145 C.3       4 GLC5        0.0000 
     30 CA          5.9730    0.4520   42.0220 C.3      12 GLL5        0.0000 
     31 CA          7.2610    4.1175   36.9125 C.3       4 GLC5        0.0000 
     32 CA          5.6950    2.9950   37.8450 C.3      12 GLL5        0.0000 
     33 CA          8.8270    5.2400   35.9800 C.3       8 GLP5        0.0000 
     34 CA          6.1010    1.8060   36.1225 C.3       4 GLC5        0.0000 
     35 CA          6.5070    0.6170   34.4000 C.3       8 GLP5        0.0000 
     36 O           5.5200    4.5530   36.0335 O.2       1 ALC1        0.0000 
     37 O           4.8930    3.7180   37.0450 O.2       9 ALL1        0.0000 
     38 O           6.1470    5.3880   35.0220 O.2       5 ALP1        0.0000 
     39 N           7.6595    2.9530   36.1635 N.am      2 SEC2        0.0000 
     40 N           7.0110    2.7620   37.4780 N.am     10 SEL2        0.0000 
     41 N           8.3080    3.1440   34.8490 N.am      6 SEP2        0.0000 
     42 CA          7.8890   -0.0655   39.0405 C.3       4 GLC5        0.0000 
     43 CA          7.8480    2.0010   38.2740 C.3      12 GLL5        0.0000 
     44 CA          9.3495    1.4620   39.3475 C.3       4 GLC5        0.0000 
     45 CA         10.8510    0.9230   40.4210 C.3       8 GLP5        0.0000 
     46 CA          7.9575    3.3835   39.6790 C.3       4 GLC5        0.0000 
     47 CA          8.0670    4.7660   41.0840 C.3       8 GLP5        0.0000 
     48 CA          8.3375    3.6205   37.1270 C.3       4 GLC5        0.0000 
     49 CA          8.3745    1.1505   36.7145 C.3       4 GLC5        0.0000 
     50 CA          8.9010    0.3000   35.1550 C.3       8 GLP5        0.0000 
     51 CA          6.5845    0.4550   37.6995 C.3       4 GLC5        0.0000 
     52 CA          5.3210   -1.0910   37.1250 C.3       8 GLP5        0.0000 
     53 N           8.5640    2.2385   40.1765 N.am      2 SEC2        0.0000 
     54 N           7.3930    1.4740   39.4730 N.am     10 SEL2        0.0000 
     55 N           9.7350    3.0030   40.8800 N.am      6 SEP2        0.0000 
     56 CA          7.0140   -0.2250   39.8260 C.3       4 GLC5        0.0000 
     57 CA          6.0980    1.6820   39.8450 C.3      12 GLL5        0.0000 
     58 CA          6.9234    3.4825   40.1165 C.3       4 GLC5        0.0000 
     59 CA          5.2280    2.4370   39.0610 C.3      12 GLL5        0.0000 
     60 CA          5.5504    0.5540   38.1370 C.3       4 GLC5        0.0000 
@<TRIPOS>BOND
@<TRIPOS>SUBSTRUCTURE
     1 ALC1        4 GROUP        1 X    ALC  0     ROOT ALC X 1
     2 SEC2       12 GROUP        1 X    SEC  0     **** SEC X 2
     3 ASC3        1 GROUP        1 X    ASC  0     **** ASC X 3
     4 GLC5        9 GROUP        1 X    GLC  0     **** GLC X 6
     5 ALP1        6 GROUP        1 Y    ALP  0     ROOT ALP Y 8
     6 SEP2       14 GROUP        1 Y    SEP  0     **** SEP Y 9
     7 ASP3        3 GROUP        1 Y    ASP  0     **** ASP Y 10
     8 GLP5       11 GROUP        1 Y    GLP  0     **** GLP Y 13
     9 ALL1        5 GROUP        1 Z    ALL  0     ROOT ALL Z 15
    10 SEL2       13 GROUP        1 Z    SEL  0     **** SEL Z 16
    11 ASL3        2 GROUP        1 Z    ASL  0     **** ASL Z 17
    12 GLL5       10 GROUP        1 Z    GLL  0     **** GLL Z 20
@<TRIPOS>SET

