#    Name: 3p97_SAM_1_ligand
#    Modification time : Tue Mar 25 06:05:34 2014

@<TRIPOS>MOLECULE
3p97_SAM_1_ligand
   50    52     1     0     0
SMALL
NO_CHARGES


@<TRIPOS>ATOM
      1 N           6.9870   -7.4590   43.6400 N.4       1 SAM263      0.0000 
      2 CA          7.4760   -6.5400   44.7120 C.3       1 SAM263      0.0000 
      3 C           8.1500   -7.3090   45.8390 C.2       1 SAM263      0.0000 
      4 O           8.2630   -8.5380   45.7360 O.co2     1 SAM263      0.0000 
      5 OXT         8.6110   -6.7440   46.8340 O.co2     1 SAM263      0.0000 
      6 CB          6.2880   -5.7190   45.2190 C.3       1 SAM263      0.0000 
      7 CG          5.8520   -4.7990   44.0730 C.3       1 SAM263      0.0000 
      8 SD          4.6440   -3.5530   44.5820 S.3       1 SAM263      0.0000 
      9 CE          3.0850   -4.4760   44.5450 C.3       1 SAM263      0.0000 
     10 C5'         4.5280   -2.5440   43.0880 C.3       1 SAM263      0.0000 
     11 C4'         5.6750   -1.5570   43.0450 C.3       1 SAM263      0.0000 
     12 O4'         5.4810   -0.8620   41.8470 O.3       1 SAM263      0.0000 
     13 C3'         5.6750   -0.4950   44.1640 C.3       1 SAM263      0.0000 
     14 O3'         6.9130   -0.5130   44.8520 O.3       1 SAM263      0.0000 
     15 C2'         5.5190    0.8270   43.4360 C.3       1 SAM263      0.0000 
     16 O2'         6.2890    1.8550   44.0070 O.3       1 SAM263      0.0000 
     17 C1'         5.9730    0.4520   42.0220 C.3       1 SAM263      0.0000 
     18 N9          5.4080    1.2870   40.9680 N.pl3     1 SAM263      0.0000 
     19 C8          4.1110    1.7570   40.8490 C.2       1 SAM263      0.0000 
     20 N7          4.0260    2.4780   39.6950 N.2       1 SAM263      0.0000 
     21 C5          5.2280    2.4370   39.0610 C.ar      1 SAM263      0.0000 
     22 C6          5.6950    2.9950   37.8450 C.ar      1 SAM263      0.0000 
     23 N6          4.8930    3.7180   37.0450 N.pl3     1 SAM263      0.0000 
     24 N1          7.0110    2.7620   37.4780 N.ar      1 SAM263      0.0000 
     25 C2          7.8480    2.0010   38.2740 C.ar      1 SAM263      0.0000 
     26 N3          7.3930    1.4740   39.4730 N.ar      1 SAM263      0.0000 
     27 C4          6.0980    1.6820   39.8450 C.ar      1 SAM263      0.0000 
     28 H           8.1948   -5.8493   44.2792 H         1 SAM263      0.0000 
     29 H           6.5931   -5.1252   46.0586 H         1 SAM263      0.0000 
     30 H           5.4806   -6.3762   45.4776 H         1 SAM263      0.0000 
     31 H           5.3351   -5.3166   43.2861 H         1 SAM263      0.0000 
     32 H           6.6532   -4.2000   43.6810 H         1 SAM263      0.0000 
     33 H           3.5723   -2.0907   43.1924 H         1 SAM263      0.0000 
     34 H           4.5580   -3.2744   42.3164 H         1 SAM263      0.0000 
     35 H           6.5999   -2.0744   43.0444 H         1 SAM263      0.0000 
     36 H           4.8358   -0.6541   44.7756 H         1 SAM263      0.0000 
     37 H           4.4682    1.0379   43.3808 H         1 SAM263      0.0000 
     38 H           7.0398    0.4545   42.0018 H         1 SAM263      0.0000 
     39 H           3.4075    1.5971   41.4733 H         1 SAM263      0.0000 
     40 H           3.9395    3.7991   37.3351 H         1 SAM263      0.0000 
     41 H           5.3213    4.1103   36.2310 H         1 SAM263      0.0000 
     42 H           8.8212    1.8229   37.9737 H         1 SAM263      0.0000 
     43 H           7.1863   -8.4158   43.8517 H         1 SAM263      0.0000 
     44 H           5.9978   -7.3871   43.5118 H         1 SAM263      0.0000 
     45 H           7.4122   -7.2593   42.7572 H         1 SAM263      0.0000 
     46 H           2.8872   -4.8344   43.6326 H         1 SAM263      0.0000 
     47 H           3.1008   -5.2568   45.1696 H         1 SAM263      0.0000 
     48 H           2.3085   -3.9043   44.8100 H         1 SAM263      0.0000 
     49 H           6.6697   -0.5492   45.8213 H         1 SAM263      0.0000 
     50 H           6.8550    1.4021   44.6958 H         1 SAM263      0.0000 
@<TRIPOS>BOND
     1    2    1 1    
     2   43    1 1    
     3   44    1 1    
     4   45    1 1    
     5    3    2 1    
     6    6    2 1    
     7   28    2 1    
     8    4    3 ar   
     9    5    3 ar   
    10    7    6 1    
    11   29    6 1    
    12   30    6 1    
    13    8    7 1    
    14   31    7 1    
    15   32    7 1    
    16    9    8 1    
    17   10    8 1    
    18   46    9 1    
    19   47    9 1    
    20   48    9 1    
    21   11   10 1    
    22   33   10 1    
    23   34   10 1    
    24   12   11 1    
    25   13   11 1    
    26   35   11 1    
    27   17   12 1    
    28   14   13 1    
    29   15   13 1    
    30   36   13 1    
    31   49   14 1    
    32   16   15 1    
    33   17   15 1    
    34   37   15 1    
    35   50   16 1    
    36   18   17 1    
    37   38   17 1    
    38   19   18 1    
    39   27   18 1    
    40   20   19 2    
    41   39   19 1    
    42   21   20 1    
    43   22   21 ar   
    44   27   21 ar   
    45   23   22 1    
    46   24   22 ar   
    47   40   23 1    
    48   41   23 1    
    49   25   24 ar   
    50   26   25 ar   
    51   42   25 1    
    52   27   26 ar   
@<TRIPOS>SUBSTRUCTURE
     1 SAM263      1 GROUP   
@<TRIPOS>SET

