#    Name: 2f35_UBC_1_INTS_M
#    Modification time : Mon Apr  7 18:03:52 2014

@<TRIPOS>MOLECULE
2f35_UBC_1_INTS_M
   47     0    12     0     0
SMALL
NO_CHARGES


@<TRIPOS>ATOM
      1 N          -0.8030   -7.5260   13.3975 N.am      2 SEC2        0.0000 
      2 N          -1.2690   -6.6560   14.3420 N.am     10 SEL2        0.0000 
      3 N          -0.3370   -8.3960   12.4530 N.am      6 SEP2        0.0000 
      4 N          -2.0005   -9.4615   14.3000 N.am      2 SEC2        0.0000 
      5 N          -1.7410   -8.5660   15.3400 N.am     10 SEL2        0.0000 
      6 N          -2.2600  -10.3570   13.2600 N.am      6 SEP2        0.0000 
      7 N          -1.0390   -8.4810   13.8965 N.am      2 SEC2        0.0000 
      8 CA          0.0120   -8.1650   18.4480 C.3       4 GLC5        0.0000 
      9 CA         -1.4680   -7.1120   17.8600 C.3      12 GLL5        0.0000 
     10 CA          1.4920   -9.2180   19.0360 C.3       8 GLP5        0.0000 
     11 CA         -2.3705   -9.0660   17.6380 C.3       4 GLC5        0.0000 
     12 CA         -3.2730  -11.0200   17.4160 C.3       8 GLP5        0.0000 
     13 CA         -0.5670   -7.8210   19.6530 C.3       4 GLC5        0.0000 
     14 CA         -1.7500   -6.4090   19.0390 C.3      12 GLL5        0.0000 
     15 CA          0.6160   -9.2330   20.2670 C.3       8 GLP5        0.0000 
     16 CA         -2.4510   -4.5960   13.3845 C.3       4 GLC5        0.0000 
     17 CA         -3.0810   -4.7130   15.3310 C.3      12 GLL5        0.0000 
     18 CA         -1.8210   -4.4790   11.4380 C.3       8 GLP5        0.0000 
     19 CA         -7.7935   -1.7255   16.8315 C.3       4 GLC5        0.0000 
     20 CA         -6.5030   -2.2140   15.6410 C.3      12 GLL5        0.0000 
     21 CA         -9.0840   -1.2370   18.0220 C.3       8 GLP5        0.0000 
     22 CA         -7.2155   -0.2930   14.7995 C.3       4 GLC5        0.0000 
     23 CA         -7.9280    1.6280   13.9580 C.3       8 GLP5        0.0000 
     24 CA         -9.0215   -3.7130   17.2940 C.3       4 GLC5        0.0000 
     25 CA         -8.0500   -4.0790   15.8100 C.3      12 GLL5        0.0000 
     26 CA         -9.9930   -3.3470   18.7780 C.3       8 GLP5        0.0000 
     27 CA         -9.7735   -3.3140   15.7025 C.3       4 GLC5        0.0000 
     28 CA         -8.4820   -4.4880   14.3860 C.3      12 GLL5        0.0000 
     29 CA        -11.0650   -2.1400   17.0190 C.3       8 GLP5        0.0000 
     30 O          -8.8260   -2.0575   13.6605 O.2       1 ALC1        0.0000 
     31 O          -8.2560   -3.4230   13.4080 O.2       9 ALL1        0.0000 
     32 O          -9.3960   -0.6920   13.9130 O.2       5 ALP1        0.0000 
     33 O          -8.6210   -3.8810   12.0340 O.2       1 ALC1        0.0000 
     34 O          -8.9860   -4.3390   10.6600 O.2       5 ALP1        0.0000 
     35 NZ        -11.8640   -4.9030   13.2705 N.4       3 LYC4        0.0000 
     36 NZ        -10.7210   -4.2070   13.6910 N.4      11 LYL4        0.0000 
     37 NZ        -13.6220   -6.3380   13.7600 N.4       7 LYP4        0.0000 
     38 N         -11.0425   -3.5615   12.4775 N.am      2 SEC2        0.0000 
     39 N         -10.7210   -4.2070   13.6910 N.am     10 SEL2        0.0000 
     40 N         -11.3640   -2.9160   11.2640 N.am      6 SEP2        0.0000 
     41 N         -11.8640   -4.9030   13.2705 N.am      2 SEC2        0.0000 
     42 N         -13.0070   -5.5990   12.8500 N.am      6 SEP2        0.0000 
     43 NZ        -11.6760   -6.1960   15.0330 N.4       3 LYC4        0.0000 
     44 NZ        -10.3280   -5.8080   15.1360 N.4      11 LYL4        0.0000 
     45 N         -11.6760   -6.1960   15.0330 N.am      2 SEC2        0.0000 
     46 N         -10.3280   -5.8080   15.1360 N.am     10 SEL2        0.0000 
     47 N         -13.0240   -6.5840   14.9300 N.am      6 SEP2        0.0000 
@<TRIPOS>BOND
@<TRIPOS>SUBSTRUCTURE
     1 ALC1       30 GROUP        1 X    ALC  0     ROOT ALC X 1
     2 SEC2        1 GROUP        1 X    SEC  0     **** SEC X 2
     3 LYC4       35 GROUP        1 X    LYC  0     **** LYC X 4
     4 GLC5        8 GROUP        1 X    GLC  0     **** GLC X 6
     5 ALP1       32 GROUP        1 Y    ALP  0     ROOT ALP Y 8
     6 SEP2        3 GROUP        1 Y    SEP  0     **** SEP Y 9
     7 LYP4       37 GROUP        1 Y    LYP  0     **** LYP Y 11
     8 GLP5       10 GROUP        1 Y    GLP  0     **** GLP Y 13
     9 ALL1       31 GROUP        1 Z    ALL  0     ROOT ALL Z 15
    10 SEL2        2 GROUP        1 Z    SEL  0     **** SEL Z 16
    11 LYL4       36 GROUP        1 Z    LYL  0     **** LYL Z 18
    12 GLL5        9 GROUP        1 Z    GLL  0     **** GLL Z 20
@<TRIPOS>SET

