#    Name: 2f35_UBC_1_ligand
#    Modification time : Mon Apr  7 18:03:52 2014

@<TRIPOS>MOLECULE
2f35_UBC_1_ligand
   38    39     1     0     0
SMALL
NO_CHARGES


@<TRIPOS>ATOM
      1 O1         -1.2690   -6.6560   14.3420 O.co2     1 UBC801      0.0000 
      2 C10        -1.6110   -7.3180   15.3520 C.2       1 UBC801      0.0000 
      3 O2         -1.7410   -8.5660   15.3400 O.co2     1 UBC801      0.0000 
      4 C22        -1.8850   -6.5910   16.6350 C.ar      1 UBC801      0.0000 
      5 C23        -1.4680   -7.1120   17.8600 C.ar      1 UBC801      0.0000 
      6 C24        -1.7500   -6.4090   19.0390 C.ar      1 UBC801      0.0000 
      7 C25        -2.4360   -5.1970   19.0220 C.ar      1 UBC801      0.0000 
      8 C26        -2.8640   -4.6420   17.8260 C.ar      1 UBC801      0.0000 
      9 C21        -2.6190   -5.3030   16.6370 C.ar      1 UBC801      0.0000 
     10 C17        -3.0810   -4.7130   15.3310 C.3       1 UBC801      0.0000 
     11 N6         -4.3010   -3.9020   15.4660 N.am      1 UBC801      0.0000 
     12 C5         -5.5890   -4.4390   15.5960 C.2       1 UBC801      0.0000 
     13 O8         -5.7670   -5.6790   15.6440 O.2       1 UBC801      0.0000 
     14 C1         -4.1410   -2.5150   15.4140 C.2       1 UBC801      0.0000 
     15 O7         -2.9900   -2.0900   15.2800 O.2       1 UBC801      0.0000 
     16 C2         -5.2300   -1.6630   15.5060 C.2       1 UBC801      0.0000 
     17 C3         -6.5030   -2.2140   15.6410 C.2       1 UBC801      0.0000 
     18 N4         -6.6870   -3.5430   15.6980 N.am      1 UBC801      0.0000 
     19 CB         -8.0500   -4.0790   15.8100 C.3       1 UBC801      0.0000 
     20 CA         -8.4820   -4.4880   14.3860 C.3       1 UBC801      0.0000 
     21 N          -8.2560   -3.4230   13.4080 N.4       1 UBC801      0.0000 
     22 C          -9.9370   -4.8630   14.4070 C.2       1 UBC801      0.0000 
     23 O         -10.7210   -4.2070   13.6910 O.co2     1 UBC801      0.0000 
     24 OXT       -10.3280   -5.8080   15.1360 O.co2     1 UBC801      0.0000 
     25 H          -0.9612   -7.9982   17.9003 H         1 UBC801      0.0000 
     26 H          -1.4380   -6.8048   19.9466 H         1 UBC801      0.0000 
     27 H          -2.6267   -4.7081   19.9127 H         1 UBC801      0.0000 
     28 H          -3.3617   -3.7419   17.8252 H         1 UBC801      0.0000 
     29 H          -3.2517   -5.5367   14.6116 H         1 UBC801      0.0000 
     30 H          -2.2620   -4.0978   14.9116 H         1 UBC801      0.0000 
     31 H          -5.1061   -0.6511   15.4759 H         1 UBC801      0.0000 
     32 H          -7.3172   -1.5607   15.6972 H         1 UBC801      0.0000 
     33 H          -8.7365   -3.3317   16.1702 H         1 UBC801      0.0000 
     34 H          -8.0764   -4.9546   16.4361 H         1 UBC801      0.0000 
     35 H          -7.9106   -5.3741   14.1147 H         1 UBC801      0.0000 
     36 H          -8.7642   -2.5932   13.6384 H         1 UBC801      0.0000 
     37 H          -7.2904   -3.1692   13.3518 H         1 UBC801      0.0000 
     38 H          -8.5413   -3.6959   12.4892 H         1 UBC801      0.0000 
@<TRIPOS>BOND
     1    2    1 ar   
     2    3    2 ar   
     3    4    2 1    
     4    5    4 ar   
     5    9    4 ar   
     6    6    5 ar   
     7   25    5 1    
     8    7    6 ar   
     9   26    6 1    
    10    8    7 ar   
    11   27    7 1    
    12    9    8 ar   
    13   28    8 1    
    14   10    9 1    
    15   11   10 1    
    16   29   10 1    
    17   30   10 1    
    18   12   11 am   
    19   14   11 am   
    20   13   12 2    
    21   18   12 am   
    22   15   14 2    
    23   16   14 1    
    24   17   16 2    
    25   31   16 1    
    26   18   17 1    
    27   32   17 1    
    28   19   18 1    
    29   20   19 1    
    30   33   19 1    
    31   34   19 1    
    32   21   20 1    
    33   22   20 1    
    34   35   20 1    
    35   36   21 1    
    36   37   21 1    
    37   38   21 1    
    38   23   22 ar   
    39   24   22 ar   
@<TRIPOS>SUBSTRUCTURE
     1 UBC801      1 GROUP   
@<TRIPOS>SET

