#    Name: 2fwz_H71_1_INTS_M
#    Modification time : Tue Mar 25 13:12:16 2014

@<TRIPOS>MOLECULE
2fwz_H71_1_INTS_M
   58     0     6     0     0
SMALL
NO_CHARGES


@<TRIPOS>ATOM
      1 CA         -1.7585    5.8445   26.5760 C.3       2 GLC5        0.0000 
      2 CA          0.3730    5.3590   26.9650 C.3       6 GLL5        0.0000 
      3 CA         -3.8900    6.3300   26.1870 C.3       4 GLP5        0.0000 
      4 CA         -0.3915    4.0915   28.5760 C.3       2 GLC5        0.0000 
      5 CA         -1.1560    2.8240   30.1870 C.3       4 GLP5        0.0000 
      6 CA         -1.0495    6.2215   28.4230 C.3       2 GLC5        0.0000 
      7 CA         -2.4720    7.0840   29.8810 C.3       4 GLP5        0.0000 
      8 CA          2.7835   11.0325   26.9245 C.3       2 GLC5        0.0000 
      9 CA          3.3810    9.4550   25.8880 C.3       6 GLL5        0.0000 
     10 CA          2.1860   12.6100   27.9610 C.3       4 GLP5        0.0000 
     11 CA         -2.3265    8.8275   26.7375 C.3       2 GLC5        0.0000 
     12 CA         -0.8470    9.8180   27.2610 C.3       6 GLL5        0.0000 
     13 CA         -3.8060    7.8370   26.2140 C.3       4 GLP5        0.0000 
     14 CA         -1.6595    8.4510   28.5710 C.3       2 GLC5        0.0000 
     15 CA         -1.8365   10.5740   29.1295 C.3       2 GLC5        0.0000 
     16 CA         -2.8260   11.3300   30.9980 C.3       4 GLP5        0.0000 
     17 CA          0.3120   10.7730   28.3010 C.3       2 GLC5        0.0000 
     18 CA          1.4710   11.7280   29.3410 C.3       4 GLP5        0.0000 
     19 CA         -2.4995    9.3770   25.7320 C.3       2 GLC5        0.0000 
     20 CA         -1.1930   10.9170   25.2500 C.3       6 GLL5        0.0000 
     21 CA         -0.1080   12.4060   26.4825 C.3       2 GLC5        0.0000 
     22 CA          0.9770   13.8950   27.7150 C.3       4 GLP5        0.0000 
     23 CA         -2.2095   12.5715   25.9920 C.3       2 GLC5        0.0000 
     24 CA         -3.2260   14.2260   26.7340 C.3       4 GLP5        0.0000 
     25 O          -3.5765   11.7465   24.4335 O.2       1 ALC1        0.0000 
     26 O          -2.0210   11.5340   24.4120 O.2       5 ALL1        0.0000 
     27 O          -5.1320   11.9590   24.4550 O.2       3 ALP1        0.0000 
     28 CA         -0.1110   10.0435   22.9110 C.3       2 GLC5        0.0000 
     29 CA          0.1440   10.7340   24.9260 C.3       6 GLL5        0.0000 
     30 CA         -0.3660    9.3530   20.8960 C.3       4 GLP5        0.0000 
     31 CA          4.7790   15.9295   27.5070 C.3       2 GLC5        0.0000 
     32 CA          5.2370   16.1460   25.4200 C.3       6 GLL5        0.0000 
     33 CA          4.3210   15.7130   29.5940 C.3       4 GLP5        0.0000 
     34 CA          4.8305   16.3695   23.7810 C.3       2 GLC5        0.0000 
     35 CA          4.4240   16.5930   22.1420 C.3       4 GLP5        0.0000 
     36 CA          3.5525   17.3165   24.9310 C.3       2 GLC5        0.0000 
     37 CA          1.8680   18.4870   24.4420 C.3       4 GLP5        0.0000 
     38 CA          6.2375   17.4740   25.7035 C.3       2 GLC5        0.0000 
     39 CA          7.2380   18.8020   25.9870 C.3       4 GLP5        0.0000 
     40 CA          5.7065   11.4830   21.7895 C.3       2 GLC5        0.0000 
     41 CA          6.8040   10.2360   23.3020 C.3       6 GLL5        0.0000 
     42 CA          4.6090   12.7300   20.2770 C.3       4 GLP5        0.0000 
     43 CA          8.1355   11.5255   22.1550 C.3       2 GLC5        0.0000 
     44 CA          9.4670   12.8150   21.0080 C.3       4 GLP5        0.0000 
     45 CA          4.6426    8.6496   26.8205 C.3       2 GLC5        0.0000 
     46 CA          3.5090    7.9660   25.5650 C.3       6 GLL5        0.0000 
     47 CA          6.1060    8.7880   27.7250 C.3       4 GLP5        0.0000 
     48 CA          1.3665   11.5060   26.6707 C.3       2 GLC5        0.0000 
     49 CA          0.9500   10.0700   25.8350 C.3       6 GLL5        0.0000 
     50 CA          3.1345   13.1342   26.3220 C.3       2 GLC5        0.0000 
     51 CA          3.7310   13.1550   24.3640 C.3       6 GLL5        0.0000 
     52 CA          5.3462   12.6423   26.6190 C.3       2 GLC5        0.0000 
     53 CA          4.4350   14.1620   25.0020 C.3       6 GLL5        0.0000 
     54 CA          5.5640   11.1730   28.1640 C.3       4 GLP5        0.0000 
     55 CA          5.8498   11.8070   26.2488 C.3       2 GLC5        0.0000 
     56 CA          6.4870   12.9460   24.6520 C.3       6 GLL5        0.0000 
     57 CA          4.7099   12.4210   22.1190 C.3       2 GLC5        0.0000 
     58 CA          5.7840   11.9360   24.0150 C.3       6 GLL5        0.0000 
@<TRIPOS>BOND
@<TRIPOS>SUBSTRUCTURE
     1 ALC1       25 GROUP        1 X    ALC  0     ROOT ALC X 1
     2 GLC5        1 GROUP        1 X    GLC  0     **** GLC X 6
     3 ALP1       27 GROUP        1 Y    ALP  0     ROOT ALP Y 8
     4 GLP5        3 GROUP        1 Y    GLP  0     **** GLP Y 13
     5 ALL1       26 GROUP        1 Z    ALL  0     ROOT ALL Z 15
     6 GLL5        2 GROUP        1 Z    GLL  0     **** GLL Z 20
@<TRIPOS>SET

