#    Name: 2fwz_H71_1_ligand
#    Modification time : Tue Mar 25 13:12:16 2014

@<TRIPOS>MOLECULE
2fwz_H71_1_ligand
   48    51     1     0     0
SMALL
NO_CHARGES


@<TRIPOS>ATOM
      1 C96         2.3670    5.2300   28.4990 C.3       1 H711001     0.0000 
      2 C95         1.8480    4.9660   27.0850 C.3       1 H711001     0.0000 
      3 C97         0.3730    5.3590   26.9650 C.3       1 H711001     0.0000 
      4 N94         2.6460    5.7280   26.1140 N.4       1 H711001     0.0000 
      5 C93         2.4460    7.1690   26.3230 C.3       1 H711001     0.0000 
      6 C92         3.5090    7.9660   25.5650 C.3       1 H711001     0.0000 
      7 C91         3.3810    9.4550   25.8880 C.3       1 H711001     0.0000 
      8 N9          2.1650   10.0230   25.2820 N.pl3     1 H711001     0.0000 
      9 C4          0.9500   10.0700   25.8350 C.ar      1 H711001     0.0000 
     10 N3          0.4310    9.6260   26.9860 N.ar      1 H711001     0.0000 
     11 C2         -0.8470    9.8180   27.2610 C.ar      1 H711001     0.0000 
     12 N1         -1.6490   10.4480   26.4220 N.ar      1 H711001     0.0000 
     13 C6         -1.1930   10.9170   25.2500 C.ar      1 H711001     0.0000 
     14 N6         -2.0210   11.5340   24.4120 N.pl3     1 H711001     0.0000 
     15 C5          0.1440   10.7340   24.9260 C.ar      1 H711001     0.0000 
     16 N7          0.8870   11.0630   23.8630 N.2       1 H711001     0.0000 
     17 C8          2.1170   10.6170   24.1040 C.2       1 H711001     0.0000 
     18 S           3.4950   10.7990   23.0330 S.3       1 H711001     0.0000 
     19 C1'         4.3930   12.0430   23.8670 C.ar      1 H711001     0.0000 
     20 C6'         3.7310   13.1550   24.3640 C.ar      1 H711001     0.0000 
     21 C5'         4.4350   14.1620   25.0020 C.ar      1 H711001     0.0000 
     22 O3'         4.0540   15.3480   25.5500 O.3       1 H711001     0.0000 
     23 C'2         5.2370   16.1460   25.4200 C.3       1 H711001     0.0000 
     24 O1'         6.2530   15.1930   25.7630 O.3       1 H711001     0.0000 
     25 C4'         5.8220   14.0610   25.1460 C.ar      1 H711001     0.0000 
     26 C3'         6.4870   12.9460   24.6520 C.ar      1 H711001     0.0000 
     27 C2'         5.7840   11.9360   24.0150 C.ar      1 H711001     0.0000 
     28 I           6.8040   10.2360   23.3020 I         1 H711001     0.0000 
     29 H           1.9346    3.9078   26.8832 H         1 H711001     0.0000 
     30 H           2.5194    7.4202   27.3840 H         1 H711001     0.0000 
     31 H           1.4619    7.4794   25.9633 H         1 H711001     0.0000 
     32 H           3.3762    7.8171   24.4979 H         1 H711001     0.0000 
     33 H           4.4948    7.6183   25.8577 H         1 H711001     0.0000 
     34 H           4.2738    9.9670   25.5125 H         1 H711001     0.0000 
     35 H           3.3587    9.5706   26.9772 H         1 H711001     0.0000 
     36 H          -1.2389    9.4565   28.1799 H         1 H711001     0.0000 
     37 H          -2.9688   11.6254   24.7175 H         1 H711001     0.0000 
     38 H          -1.6211   11.8509   23.5520 H         1 H711001     0.0000 
     39 H           2.7067   13.2319   24.2573 H         1 H711001     0.0000 
     40 H           5.2278   16.9626   26.1147 H         1 H711001     0.0000 
     41 H           5.3594   16.4901   24.4120 H         1 H711001     0.0000 
     42 H           7.5105   12.8708   24.7608 H         1 H711001     0.0000 
     43 H           3.3297    4.9770   28.5945 H         1 H711001     0.0000 
     44 H           2.2916    6.1955   28.7481 H         1 H711001     0.0000 
     45 H           1.8578    4.7098   29.1847 H         1 H711001     0.0000 
     46 H           0.2301    6.3293   27.1602 H         1 H711001     0.0000 
     47 H           0.0170    5.1893   26.0460 H         1 H711001     0.0000 
     48 H          -0.2014    4.8443   27.6015 H         1 H711001     0.0000 
@<TRIPOS>BOND
     1    2    1 1    
     2   43    1 1    
     3   44    1 1    
     4   45    1 1    
     5    3    2 1    
     6    4    2 1    
     7   29    2 1    
     8   46    3 1    
     9   47    3 1    
    10   48    3 1    
    11    5    4 1    
    12    6    5 1    
    13   30    5 1    
    14   31    5 1    
    15    7    6 1    
    16   32    6 1    
    17   33    6 1    
    18    8    7 1    
    19   34    7 1    
    20   35    7 1    
    21    9    8 1    
    22   17    8 1    
    23   10    9 ar   
    24   15    9 ar   
    25   11   10 ar   
    26   12   11 ar   
    27   36   11 1    
    28   13   12 ar   
    29   14   13 1    
    30   15   13 ar   
    31   37   14 1    
    32   38   14 1    
    33   16   15 1    
    34   17   16 2    
    35   18   17 1    
    36   19   18 1    
    37   20   19 ar   
    38   27   19 ar   
    39   21   20 ar   
    40   39   20 1    
    41   22   21 1    
    42   25   21 ar   
    43   23   22 1    
    44   24   23 1    
    45   40   23 1    
    46   41   23 1    
    47   25   24 1    
    48   26   25 ar   
    49   27   26 ar   
    50   42   26 1    
    51   28   27 1    
@<TRIPOS>SUBSTRUCTURE
     1 H711001     1 GROUP   
@<TRIPOS>SET

