#    Name: 2r3f_SC8_1_INTS_M
#    Modification time : Mon Mar 24 23:04:49 2014

@<TRIPOS>MOLECULE
2r3f_SC8_1_INTS_M
   68     0     9     0     0
SMALL
NO_CHARGES


@<TRIPOS>ATOM
      1 CA         -0.3825   33.3370    8.7170 C.3       3 GLC5        0.0000 
      2 CA         -0.5430   31.2880    8.0500 C.3       9 GLL5        0.0000 
      3 CA         -0.2220   35.3860    9.3840 C.3       6 GLP5        0.0000 
      4 CA         -1.9170   32.7705    7.4915 C.3       3 GLC5        0.0000 
      5 CA         -3.2910   34.2530    6.9330 C.3       6 GLP5        0.0000 
      6 N           2.6070   32.0815    6.1355 N.am      2 SEC2        0.0000 
      7 N           1.4750   31.1120    6.9180 N.am      8 SEL2        0.0000 
      8 N           3.7390   33.0510    5.3530 N.am      5 SEP2        0.0000 
      9 N          -1.7410   28.9700    9.7515 N.am      2 SEC2        0.0000 
     10 N          -0.4140   28.9930    9.1660 N.am      8 SEL2        0.0000 
     11 N          -3.0680   28.9470   10.3370 N.am      5 SEP2        0.0000 
     12 CA          2.7630   28.7730    9.8365 C.3       3 GLC5        0.0000 
     13 CA          1.6690   27.8320    8.5880 C.3       9 GLL5        0.0000 
     14 CA          3.8570   29.7140   11.0850 C.3       6 GLP5        0.0000 
     15 CA          2.3380   30.2120    8.9220 C.3       3 GLC5        0.0000 
     16 CA          2.1090   28.8990    7.7780 C.3       9 GLL5        0.0000 
     17 CA          2.5670   31.5250   10.0660 C.3       6 GLP5        0.0000 
     18 O           4.0870   29.7725    6.3295 O.2       1 ALC1        0.0000 
     19 O           3.3240   28.9410    7.1360 O.2       7 ALL1        0.0000 
     20 O           4.8500   30.6040    5.5230 O.2       4 ALP1        0.0000 
     21 CA          4.1010   28.8550    9.3130 C.3       3 GLC5        0.0000 
     22 CA          4.3450   27.9960    7.5410 C.3       9 GLL5        0.0000 
     23 CA          2.8365   24.5300    5.0020 C.3       3 GLC5        0.0000 
     24 CA          4.4810   24.5020    6.1000 C.3       9 GLL5        0.0000 
     25 CA          1.1920   24.5580    3.9040 C.3       6 GLP5        0.0000 
     26 CA          5.6595   23.1565    7.2455 C.3       3 GLC5        0.0000 
     27 CA          6.8380   21.8110    8.3910 C.3       6 GLP5        0.0000 
     28 CA          3.2435   25.4665    3.4430 C.3       3 GLC5        0.0000 
     29 CA          4.7570   25.9950    4.3600 C.3       9 GLL5        0.0000 
     30 CA          1.7300   24.9380    2.5260 C.3       6 GLP5        0.0000 
     31 CA          6.0525   28.6575    4.9130 C.3       3 GLC5        0.0000 
     32 CA          4.6540   27.0980    5.2270 C.3       9 GLL5        0.0000 
     33 CA          7.4510   30.2170    4.5990 C.3       6 GLP5        0.0000 
     34 CA          0.0660   25.2835    6.2835 C.3       3 GLC5        0.0000 
     35 CA          0.0400   25.0550    8.1620 C.3       9 GLL5        0.0000 
     36 CA          0.0920   25.5120    4.4050 C.3       6 GLP5        0.0000 
     37 CA         -0.4140   23.3000    7.5285 C.3       3 GLC5        0.0000 
     38 CA         -0.8680   21.5450    6.8950 C.3       6 GLP5        0.0000 
     39 CA         -1.6585   25.2400    7.3255 C.3       3 GLC5        0.0000 
     40 CA         -3.3570   25.4250    6.4890 C.3       6 GLP5        0.0000 
     41 CA         -0.9080   22.2620    8.5505 C.3       3 GLC5        0.0000 
     42 CA         -0.9480   22.9790   10.2060 C.3       9 GLL5        0.0000 
     43 CA         -2.3985   21.6110    9.5100 C.3       3 GLC5        0.0000 
     44 CA         -3.8490   20.2430    8.8140 C.3       6 GLP5        0.0000 
     45 CA         -2.8610   22.9755   10.7365 C.3       3 GLC5        0.0000 
     46 CA         -4.7740   22.9720   11.2670 C.3       6 GLP5        0.0000 
     47 CA         -0.9958   30.8510    6.5072 C.3       3 GLC5        0.0000 
     48 CA          0.0220   30.0200    8.3790 C.3       9 GLL5        0.0000 
     49 CA         -1.7310   31.0480    4.8000 C.3       6 GLP5        0.0000 
     50 CA         -1.9688   29.9670    8.6122 C.3       3 GLC5        0.0000 
     51 CA         -3.6770   29.2800    9.0100 C.3       6 GLP5        0.0000 
     52 CA          1.1532   31.0895    9.1402 C.3       3 GLC5        0.0000 
     53 CA          1.2410   27.6673    6.4080 C.3       3 GLC5        0.0000 
     54 CA          0.5930   26.9690    4.6330 C.3       6 GLP5        0.0000 
     55 CA          6.3640   27.9120    7.4333 C.3       3 GLC5        0.0000 
     56 CA          8.3210   28.3960    7.8020 C.3       6 GLP5        0.0000 
     57 CA          2.5773   26.9740    5.2702 C.3       3 GLC5        0.0000 
     58 CA          4.4690   26.8600    6.5880 C.3       9 GLL5        0.0000 
     59 CA         -0.0195   27.7903   13.6890 C.3       3 GLC5        0.0000 
     60 CA         -0.2800   27.2010   11.4940 C.3       9 GLL5        0.0000 
     61 CA          0.4660   28.8510   15.4300 C.3       6 GLP5        0.0000 
     62 CA         -2.7818   23.8675   11.3023 C.3       3 GLC5        0.0000 
     63 CA         -0.9080   24.9430   12.0010 C.3       9 GLL5        0.0000 
     64 CA         -2.2230   25.2510    9.0457 C.3       3 GLC5        0.0000 
     65 CA         -0.6710   24.5830   10.6740 C.3       9 GLL5        0.0000 
     66 CA         -3.9920   25.4500    7.8810 C.3       6 GLP5        0.0000 
     67 CA          0.6605   24.4199   12.5164 C.3       3 GLC5        0.0000 
     68 CA          2.0660   23.7480   13.5950 C.3       6 GLP5        0.0000 
@<TRIPOS>BOND
@<TRIPOS>SUBSTRUCTURE
     1 ALC1       18 GROUP        1 X    ALC  0     ROOT ALC X 1
     2 SEC2        6 GROUP        1 X    SEC  0     **** SEC X 2
     3 GLC5        1 GROUP        1 X    GLC  0     **** GLC X 6
     4 ALP1       20 GROUP        1 Y    ALP  0     ROOT ALP Y 8
     5 SEP2        8 GROUP        1 Y    SEP  0     **** SEP Y 9
     6 GLP5        3 GROUP        1 Y    GLP  0     **** GLP Y 13
     7 ALL1       19 GROUP        1 Z    ALL  0     ROOT ALL Z 15
     8 SEL2        7 GROUP        1 Z    SEL  0     **** SEL Z 16
     9 GLL5        2 GROUP        1 Z    GLL  0     **** GLL Z 20
@<TRIPOS>SET

