#    Name: 2r3f_SC8_1_ligand
#    Modification time : Mon Mar 24 23:04:49 2014

@<TRIPOS>MOLECULE
2r3f_SC8_1_ligand
   38    41     1     0     0
SMALL
NO_CHARGES


@<TRIPOS>ATOM
      1 C01        -0.5430   31.2880    8.0500 C.2       1 SC8501      0.0000 
      2 C02         0.0220   30.0200    8.3790 C.2       1 SC8501      0.0000 
      3 N03         1.2750   29.9830    7.6510 N.pl3     1 SC8501      0.0000 
      4 N04         1.4750   31.1120    6.9180 N.2       1 SC8501      0.0000 
      5 C05         0.4140   31.9190    7.1880 C.2       1 SC8501      0.0000 
      6 N06        -0.4140   28.9930    9.1660 N.2       1 SC8501      0.0000 
      7 C07         0.3850   27.9270    9.2360 C.2       1 SC8501      0.0000 
      8 C08         1.6690   27.8320    8.5880 C.2       1 SC8501      0.0000 
      9 C09         2.1090   28.8990    7.7780 C.2       1 SC8501      0.0000 
     10 N10         3.3240   28.9410    7.1360 N.pl3     1 SC8501      0.0000 
     11 C11        -0.0330   26.8450   10.1610 C.ar      1 SC8501      0.0000 
     12 C12         4.3450   27.9960    7.5410 C.3       1 SC8501      0.0000 
     13 C13         4.4690   26.8600    6.5880 C.ar      1 SC8501      0.0000 
     14 C14         4.3760   25.5440    7.0440 C.ar      1 SC8501      0.0000 
     15 C15         4.4810   24.5020    6.1000 C.ar      1 SC8501      0.0000 
     16 N16         4.6460   24.7110    4.7810 N.ar      1 SC8501      0.0000 
     17 C17         4.7570   25.9950    4.3600 C.ar      1 SC8501      0.0000 
     18 C18         4.6540   27.0980    5.2270 C.ar      1 SC8501      0.0000 
     19 C19        -0.2800   27.2010   11.4940 C.ar      1 SC8501      0.0000 
     20 C20        -0.7300   26.2580   12.4020 C.ar      1 SC8501      0.0000 
     21 C21        -0.9080   24.9430   12.0010 C.ar      1 SC8501      0.0000 
     22 C22        -0.6710   24.5830   10.6740 C.ar      1 SC8501      0.0000 
     23 C23        -0.2370   25.5210    9.7470 C.ar      1 SC8501      0.0000 
     24 CL24        0.0400   25.0550    8.1620 Cl        1 SC8501      0.0000 
     25 CL25       -0.9480   22.9790   10.2060 Cl        1 SC8501      0.0000 
     26 H          -1.3439   31.6297    8.3272 H         1 SC8501      0.0000 
     27 H           0.2830   32.8240    6.8547 H         1 SC8501      0.0000 
     28 H           2.2355   27.0062    8.7213 H         1 SC8501      0.0000 
     29 H           3.5326   29.5982    6.3995 H         1 SC8501      0.0000 
     30 H           4.1195   27.5936    8.5482 H         1 SC8501      0.0000 
     31 H           5.3272   28.5018    7.6227 H         1 SC8501      0.0000 
     32 H           4.2370   25.3366    8.0245 H         1 SC8501      0.0000 
     33 H           4.4240   23.5153    6.4741 H         1 SC8501      0.0000 
     34 H           4.9283   26.1981    3.3412 H         1 SC8501      0.0000 
     35 H           4.7138   28.0436    4.8639 H         1 SC8501      0.0000 
     36 H          -0.1229   28.1753   11.7932 H         1 SC8501      0.0000 
     37 H          -0.9323   26.5318   13.3733 H         1 SC8501      0.0000 
     38 H          -1.2137   24.2319   12.6765 H         1 SC8501      0.0000 
@<TRIPOS>BOND
     1    2    1 2    
     2    5    1 1    
     3   26    1 1    
     4    3    2 1    
     5    6    2 1    
     6    4    3 1    
     7    9    3 1    
     8    5    4 2    
     9   27    5 1    
    10    7    6 2    
    11    8    7 1    
    12   11    7 1    
    13    9    8 2    
    14   28    8 1    
    15   10    9 1    
    16   12   10 1    
    17   29   10 1    
    18   19   11 ar   
    19   23   11 ar   
    20   13   12 1    
    21   30   12 1    
    22   31   12 1    
    23   14   13 ar   
    24   18   13 ar   
    25   15   14 ar   
    26   32   14 1    
    27   16   15 ar   
    28   33   15 1    
    29   17   16 ar   
    30   18   17 ar   
    31   34   17 1    
    32   35   18 1    
    33   20   19 ar   
    34   36   19 1    
    35   21   20 ar   
    36   37   20 1    
    37   22   21 ar   
    38   38   21 1    
    39   23   22 ar   
    40   25   22 1    
    41   24   23 1    
@<TRIPOS>SUBSTRUCTURE
     1 SC8501      1 GROUP   
@<TRIPOS>SET

