#    Name: 1gsf_EAA_1_INTS_M
#    Modification time : Tue Mar 25 03:42:08 2014

@<TRIPOS>MOLECULE
1gsf_EAA_1_INTS_M
   36     0     6     0     0
SMALL
NO_CHARGES


@<TRIPOS>ATOM
      1 CA         89.2080   28.2160   12.1680 C.3       2 GLC5        0.0000 
      2 CA         90.6280   28.3360   13.4790 C.3       6 GLL5        0.0000 
      3 CA         87.7880   28.0960   10.8570 C.3       4 GLP5        0.0000 
      4 CA         92.1270   29.1095   12.9165 C.3       2 GLC5        0.0000 
      5 CA         93.6260   29.8830   12.3540 C.3       4 GLP5        0.0000 
      6 CA         91.9865   29.0170   14.8155 C.3       2 GLC5        0.0000 
      7 CA         93.3450   29.6980   16.1520 C.3       4 GLP5        0.0000 
      8 CA         90.1680   30.0450   13.7325 C.3       2 GLC5        0.0000 
      9 CA         89.7080   31.7540   13.9860 C.3       4 GLP5        0.0000 
     10 CA         90.3675   24.8485   12.7265 C.3       2 GLC5        0.0000 
     11 CA         91.3830   25.4320   14.1560 C.3       6 GLL5        0.0000 
     12 CA         89.3520   24.2650   11.2970 C.3       4 GLP5        0.0000 
     13 CA         92.9085   25.0140   14.5115 C.3       2 GLC5        0.0000 
     14 CA         94.4340   24.5960   14.8670 C.3       4 GLP5        0.0000 
     15 CA         92.2300   24.6895   18.4670 C.3       2 GLC5        0.0000 
     16 CA         90.5260   23.8250   17.8620 C.3       6 GLL5        0.0000 
     17 CA         93.9340   25.5540   19.0720 C.3       4 GLP5        0.0000 
     18 CA         87.7100   22.2100   18.5375 C.3       2 GLC5        0.0000 
     19 CA         89.2370   23.6450   18.6760 C.3       6 GLL5        0.0000 
     20 CA         86.1830   20.7750   18.3990 C.3       4 GLP5        0.0000 
     21 CA         86.7885   29.4355   12.7885 C.3       2 GLC5        0.0000 
     22 CA         86.5960   29.6750   14.8530 C.3       6 GLL5        0.0000 
     23 CA         86.9810   29.1960   10.7240 C.3       4 GLP5        0.0000 
     24 CA         87.5650   31.0320   15.4375 C.3       2 GLC5        0.0000 
     25 CA         88.5340   32.3890   16.0220 C.3       4 GLP5        0.0000 
     26 N          86.5685   27.5795   12.6655 N.am      1 SEC2        0.0000 
     27 N          85.5860   27.9510   13.4650 N.am      5 SEL2        0.0000 
     28 N          87.5510   27.2080   11.8660 N.am      3 SEP2        0.0000 
     29 CA         89.3550   25.1321   13.1856 C.3       2 GLC5        0.0000 
     30 CA         89.5140   27.3760   14.4540 C.3       6 GLL5        0.0000 
     31 CA         92.6835   23.8915   15.5428 C.3       2 GLC5        0.0000 
     32 CA         90.4860   23.5100   16.4790 C.3       6 GLL5        0.0000 
     33 CA         90.8218   23.5225   19.5820 C.3       2 GLC5        0.0000 
     34 CA         91.7620   23.3100   20.8950 C.3       4 GLP5        0.0000 
     35 CA         90.1987   25.4385   18.9670 C.3       2 GLC5        0.0000 
     36 CA         90.5160   27.1420   19.6650 C.3       4 GLP5        0.0000 
@<TRIPOS>BOND
@<TRIPOS>SUBSTRUCTURE
     1 SEC2       26 GROUP        1 X    SEC  0     ROOT SEC X 2
     2 GLC5        1 GROUP        1 X    GLC  0     **** GLC X 6
     3 SEP2       28 GROUP        1 Y    SEP  0     ROOT SEP Y 9
     4 GLP5        3 GROUP        1 Y    GLP  0     **** GLP Y 13
     5 SEL2       27 GROUP        1 Z    SEL  0     ROOT SEL Z 16
     6 GLL5        2 GROUP        1 Z    GLL  0     **** GLL Z 20
@<TRIPOS>SET

