#    Name: 1gsf_EAA_1_ligand
#    Modification time : Tue Mar 25 03:42:08 2014

@<TRIPOS>MOLECULE
1gsf_EAA_1_ligand
   28    28     1     0     0
SMALL
NO_CHARGES


@<TRIPOS>ATOM
      1 C1         88.3190   27.9380   14.8870 C.ar      1 EAA223      0.0000 
      2 O2         87.9030   29.1770   14.4270 O.3       1 EAA223      0.0000 
      3 C2         89.5140   27.3760   14.4540 C.ar      1 EAA223      0.0000 
      4 CL1        90.6280   28.3360   13.4790 Cl        1 EAA223      0.0000 
      5 C3         89.8600   26.0750   14.7670 C.ar      1 EAA223      0.0000 
      6 CL2        91.3830   25.4320   14.1560 Cl        1 EAA223      0.0000 
      7 C4         89.0290   25.2730   15.5380 C.ar      1 EAA223      0.0000 
      8 C5         87.8620   25.8500   16.0180 C.ar      1 EAA223      0.0000 
      9 C6         87.5200   27.1610   15.6980 C.ar      1 EAA223      0.0000 
     10 C7         89.3290   23.8910   15.7610 C.2       1 EAA223      0.0000 
     11 O1         88.5420   23.0440   15.3240 O.2       1 EAA223      0.0000 
     12 C8         90.4860   23.5100   16.4790 C.2       1 EAA223      0.0000 
     13 C9         90.5260   23.8250   17.8620 C.3       1 EAA223      0.0000 
     14 C10        89.2370   23.6450   18.6760 C.3       1 EAA223      0.0000 
     15 C11        91.3800   22.8640   15.9580 C.2       1 EAA223      0.0000 
     16 C12        86.5960   29.6750   14.8530 C.3       1 EAA223      0.0000 
     17 C13        85.4390   29.0540   14.0450 C.2       1 EAA223      0.0000 
     18 O          85.5860   27.9510   13.4650 O.co2     1 EAA223      0.0000 
     19 OXT        84.3550   29.6770   14.0310 O.co2     1 EAA223      0.0000 
     20 H          87.2311   25.2958   16.6269 H         1 EAA223      0.0000 
     21 H          86.6384   27.5586   16.0835 H         1 EAA223      0.0000 
     22 H          90.8608   24.8939   18.0242 H         1 EAA223      0.0000 
     23 H          91.3258   23.2238   18.3911 H         1 EAA223      0.0000 
     24 H          86.5360   30.7689   14.7373 H         1 EAA223      0.0000 
     25 H          86.4188   29.4520   15.9172 H         1 EAA223      0.0000 
     26 H          89.3654   23.8964   19.6353 H         1 EAA223      0.0000 
     27 H          88.4921   24.2105   18.3220 H         1 EAA223      0.0000 
     28 H          88.9179   22.6974   18.6615 H         1 EAA223      0.0000 
@<TRIPOS>BOND
     1    2    1 1    
     2    3    1 ar   
     3    9    1 ar   
     4   16    2 1    
     5    4    3 1    
     6    5    3 ar   
     7    6    5 1    
     8    7    5 ar   
     9    8    7 ar   
    10   10    7 1    
    11    9    8 ar   
    12   20    8 1    
    13   21    9 1    
    14   11   10 2    
    15   12   10 1    
    16   13   12 1    
    17   15   12 2    
    18   14   13 1    
    19   22   13 1    
    20   23   13 1    
    21   26   14 1    
    22   27   14 1    
    23   28   14 1    
    24   17   16 1    
    25   24   16 1    
    26   25   16 1    
    27   18   17 ar   
    28   19   17 ar   
@<TRIPOS>SUBSTRUCTURE
     1 EAA223      1 GROUP   
@<TRIPOS>SET

