#    Name: 2cda_NAP_2_INTS_M
#    Modification time : Mon Mar 24 23:29:39 2014

@<TRIPOS>MOLECULE
2cda_NAP_2_INTS_M
   86     0    12     0     0
SMALL
NO_CHARGES


@<TRIPOS>ATOM
      1 NZ         39.3635   24.8335   60.0265 N.4       3 LYC4        0.0000 
      2 NZ         39.0820   23.4350   58.9180 N.4      11 LYL4        0.0000 
      3 NZ         39.6450   26.2320   61.1350 N.4       7 LYP4        0.0000 
      4 CA         33.6030   20.0635   59.5390 C.3       4 GLC5        0.0000 
      5 CA         35.1070   20.9680   60.2450 C.3      12 GLL5        0.0000 
      6 CA         32.0990   19.1590   58.8330 C.3       8 GLP5        0.0000 
      7 CA         35.2490   23.2230   58.8945 C.3       4 GLC5        0.0000 
      8 CA         34.9250   22.3270   60.9310 C.3      12 GLL5        0.0000 
      9 CA         35.5730   24.1190   56.8580 C.3       8 GLP5        0.0000 
     10 N          32.0015   22.5970   62.5705 N.am      2 SEC2        0.0000 
     11 N          33.4000   23.0630   62.7180 N.am     10 SEL2        0.0000 
     12 N          30.6030   22.1310   62.4230 N.am      6 SEP2        0.0000 
     13 CA         32.8705   19.8895   60.4025 C.3       4 GLC5        0.0000 
     14 CA         33.6420   20.6200   61.9720 C.3      12 GLL5        0.0000 
     15 CA         33.5500   18.5090   61.5155 C.3       4 GLC5        0.0000 
     16 CA         33.4580   16.3980   61.0590 C.3       8 GLP5        0.0000 
     17 CA         34.0865   16.6215   64.5055 C.3       4 GLC5        0.0000 
     18 CA         32.5000   18.0930   64.3100 C.3      12 GLL5        0.0000 
     19 CA         35.6730   15.1500   64.7010 C.3       8 GLP5        0.0000 
     20 CA         30.2280   17.6905   65.9290 C.3       4 GLC5        0.0000 
     21 CA         31.4530   17.2070   64.6250 C.3      12 GLL5        0.0000 
     22 CA         29.0030   18.1740   67.2330 C.3       8 GLP5        0.0000 
     23 CA         30.5160   15.3750   64.2495 C.3       4 GLC5        0.0000 
     24 CA         29.5790   13.5430   63.8740 C.3       8 GLP5        0.0000 
     25 CA         30.0715   16.6330   61.5880 C.3       4 GLC5        0.0000 
     26 CA         30.2800   17.9110   62.7280 C.3      12 GLL5        0.0000 
     27 CA         29.8630   15.3550   60.4480 C.3       8 GLP5        0.0000 
     28 CA         31.1895   18.5350   60.7805 C.3       4 GLC5        0.0000 
     29 CA         29.0030   19.4895   62.3135 C.3       4 GLC5        0.0000 
     30 CA         27.7260   21.0680   61.8990 C.3       8 GLP5        0.0000 
     31 CA         31.8690   17.1545   61.8935 C.3       4 GLC5        0.0000 
     32 CA         32.2300   19.0150   60.9990 C.3       4 GLC5        0.0000 
     33 CA         32.3610   18.8710   63.1650 C.3      12 GLL5        0.0000 
     34 N          37.6705   21.4845   54.9015 N.am      2 SEC2        0.0000 
     35 N          38.0880   21.2730   56.3390 N.am     10 SEL2        0.0000 
     36 N          37.2530   21.6960   53.4640 N.am      6 SEP2        0.0000 
     37 CA         38.3390   18.7825   55.5130 C.3       4 GLC5        0.0000 
     38 CA         38.9000   18.2850   57.2850 C.3      12 GLL5        0.0000 
     39 CA         37.7780   19.2800   53.7410 C.3       8 GLP5        0.0000 
     40 N          41.0650   14.7380   59.0175 N.am      2 SEC2        0.0000 
     41 N          41.1810   16.1490   59.2910 N.am     10 SEL2        0.0000 
     42 N          40.9490   13.3270   58.7440 N.am      6 SEP2        0.0000 
     43 CA         40.6305   15.9725   54.3505 C.3       4 GLC5        0.0000 
     44 CA         41.5090   16.2590   56.3120 C.3      12 GLL5        0.0000 
     45 CA         39.7520   15.6860   52.3890 C.3       8 GLP5        0.0000 
     46 CA         40.2160   14.9600   56.9025 C.3       4 GLC5        0.0000 
     47 CA         38.9230   13.6610   57.4930 C.3       8 GLP5        0.0000 
     48 N          43.7460   12.7625   49.8955 N.am      2 SEC2        0.0000 
     49 N          43.4230   13.5170   51.2250 N.am     10 SEL2        0.0000 
     50 N          44.0690   12.0080   48.5660 N.am      6 SEP2        0.0000 
     51 O          41.2450   12.5930   54.0780 O.2       1 ALC1        0.0000 
     52 O          42.2300   12.6040   52.9060 O.2       9 ALL1        0.0000 
     53 O          40.2600   12.5820   55.2500 O.2       5 ALP1        0.0000 
     54 O          41.6070   11.4580   52.3555 O.2       1 ALC1        0.0000 
     55 O          40.9840   10.3120   51.8050 O.2       5 ALP1        0.0000 
     56 CA         42.7385   15.9480   50.3010 C.3       4 GLC5        0.0000 
     57 CA         43.3030   16.1050   52.4370 C.3      12 GLL5        0.0000 
     58 CA         42.1740   15.7910   48.1650 C.3       8 GLP5        0.0000 
     59 CA         41.4825   18.5040   52.5995 C.3       4 GLC5        0.0000 
     60 CA         43.2220   17.3310   53.0980 C.3      12 GLL5        0.0000 
     61 CA         39.7430   19.6770   52.1010 C.3       8 GLP5        0.0000 
     62 CA         40.9690   18.4060   53.9530 C.3       4 GLC5        0.0000 
     63 CA         42.6340   17.4120   54.3490 C.3      12 GLL5        0.0000 
     64 CA         39.3040   19.4000   53.5570 C.3       8 GLP5        0.0000 
     65 NZ         32.5440   25.7535   61.3630 N.4       3 LYC4        0.0000 
     66 NZ         33.8840   25.5520   61.5430 N.4      11 LYL4        0.0000 
     67 NZ         30.1760   26.2490   61.9670 N.4       7 LYP4        0.0000 
     68 N          32.5440   25.7535   61.3630 N.am      2 SEC2        0.0000 
     69 N          33.8840   25.5520   61.5430 N.am     10 SEL2        0.0000 
     70 N          31.2040   25.9550   61.1830 N.am      6 SEP2        0.0000 
     71 NZ         32.1905   25.7380   62.5960 N.4       3 LYC4        0.0000 
     72 NZ         33.1770   25.5210   64.0090 N.4      11 LYL4        0.0000 
     73 N          31.7470   25.8520   63.6510 N.am      2 SEC2        0.0000 
     74 N          33.1770   25.5210   64.0090 N.am     10 SEL2        0.0000 
     75 N          30.3170   26.1830   63.2930 N.am      6 SEP2        0.0000 
     76 N          32.1905   25.7380   62.5960 N.am      2 SEC2        0.0000 
     77 CA         35.8558   18.7283   60.2627 C.3       4 GLC5        0.0000 
     78 CA         35.8430   16.5960   60.3590 C.3       8 GLP5        0.0000 
     79 CA         32.8134   17.3293   62.4376 C.3       4 GLC5        0.0000 
     80 CA         39.7890   16.7272   59.9788 C.3       4 GLC5        0.0000 
     81 CA         39.6880   17.0450   57.5710 C.3      12 GLL5        0.0000 
     82 CA         39.2410   16.3030   61.9730 C.3       8 GLP5        0.0000 
     83 CA         39.6300   15.4062   57.7387 C.3       4 GLC5        0.0000 
     84 CA         40.9860   17.2580   58.3980 C.3      12 GLL5        0.0000 
     85 CA         43.0803   15.1885   56.9295 C.3       4 GLC5        0.0000 
     86 CA         44.3500   13.6290   57.0460 C.3       8 GLP5        0.0000 
@<TRIPOS>BOND
@<TRIPOS>SUBSTRUCTURE
     1 ALC1       51 GROUP        1 X    ALC  0     ROOT ALC X 1
     2 SEC2       10 GROUP        1 X    SEC  0     **** SEC X 2
     3 LYC4        1 GROUP        1 X    LYC  0     **** LYC X 4
     4 GLC5        4 GROUP        1 X    GLC  0     **** GLC X 6
     5 ALP1       53 GROUP        1 Y    ALP  0     ROOT ALP Y 8
     6 SEP2       12 GROUP        1 Y    SEP  0     **** SEP Y 9
     7 LYP4        3 GROUP        1 Y    LYP  0     **** LYP Y 11
     8 GLP5        6 GROUP        1 Y    GLP  0     **** GLP Y 13
     9 ALL1       52 GROUP        1 Z    ALL  0     ROOT ALL Z 15
    10 SEL2       11 GROUP        1 Z    SEL  0     **** SEL Z 16
    11 LYL4        2 GROUP        1 Z    LYL  0     **** LYL Z 18
    12 GLL5        5 GROUP        1 Z    GLL  0     **** GLL Z 20
@<TRIPOS>SET

