#    Name: 2cda_NAP_2_ligand
#    Modification time : Mon Mar 24 23:29:39 2014

@<TRIPOS>MOLECULE
2cda_NAP_2_ligand
   73    77     1     0     0
SMALL
NO_CHARGES


@<TRIPOS>ATOM
      1 PA         38.7840   22.1280   59.5160 P.3       1 NAP1367     0.0000 
      2 O1A        39.3260   21.6920   60.8620 O.co2     1 NAP1367     0.0000 
      3 O2A        39.0820   23.4350   58.9180 O.co2     1 NAP1367     0.0000 
      4 O5B        37.1990   21.9480   59.4870 O.3       1 NAP1367     0.0000 
      5 C5B        36.6300   20.7530   60.0880 C.3       1 NAP1367     0.0000 
      6 C4B        35.1070   20.9680   60.2450 C.3       1 NAP1367     0.0000 
      7 O4B        34.5130   19.9400   61.0890 O.3       1 NAP1367     0.0000 
      8 C3B        34.9250   22.3270   60.9310 C.3       1 NAP1367     0.0000 
      9 O3B        34.0540   23.1190   60.1280 O.3       1 NAP1367     0.0000 
     10 C2B        34.3040   21.9860   62.2920 C.3       1 NAP1367     0.0000 
     11 O2B        33.4000   23.0630   62.7180 O.3       1 NAP1367     0.0000 
     12 C1B        33.6420   20.6200   61.9720 C.3       1 NAP1367     0.0000 
     13 N9A        33.4500   19.6320   63.0630 N.pl3     1 NAP1367     0.0000 
     14 C8A        34.2600   19.3590   64.1080 C.2       1 NAP1367     0.0000 
     15 N7A        33.6780   18.4210   64.8670 N.2       1 NAP1367     0.0000 
     16 C5A        32.5000   18.0930   64.3100 C.ar      1 NAP1367     0.0000 
     17 C6A        31.4530   17.2070   64.6250 C.ar      1 NAP1367     0.0000 
     18 N6A        31.5200   16.4120   65.7110 N.pl3     1 NAP1367     0.0000 
     19 N1A        30.3660   17.1520   63.8020 N.ar      1 NAP1367     0.0000 
     20 C2A        30.2800   17.9110   62.7280 C.ar      1 NAP1367     0.0000 
     21 N3A        31.2610   18.7480   62.4040 N.ar      1 NAP1367     0.0000 
     22 C4A        32.3610   18.8710   63.1650 C.ar      1 NAP1367     0.0000 
     23 O3         39.2420   20.8840   58.5650 O.3       1 NAP1367     0.0000 
     24 PN         39.4310   20.9170   56.9450 P.3       1 NAP1367     0.0000 
     25 O1N        40.6620   21.6080   56.5170 O.co2     1 NAP1367     0.0000 
     26 O2N        38.0880   21.2730   56.3390 O.co2     1 NAP1367     0.0000 
     27 O5D        39.8190   19.2740   56.8620 O.3       1 NAP1367     0.0000 
     28 C5D        38.9000   18.2850   57.2850 C.3       1 NAP1367     0.0000 
     29 C4D        39.6880   17.0450   57.5710 C.3       1 NAP1367     0.0000 
     30 O4D        40.1080   16.7110   56.2320 O.3       1 NAP1367     0.0000 
     31 C3D        40.9860   17.2580   58.3980 C.3       1 NAP1367     0.0000 
     32 O3D        41.1810   16.1490   59.2910 O.3       1 NAP1367     0.0000 
     33 C2D        42.1120   17.2370   57.3140 C.3       1 NAP1367     0.0000 
     34 O2D        43.3410   16.7300   57.7970 O.3       1 NAP1367     0.0000 
     35 C1D        41.5090   16.2590   56.3120 C.3       1 NAP1367     0.0000 
     36 N1N        42.1400   16.2450   54.9690 N.pl3     1 NAP1367     0.0000 
     37 C2N        42.2200   15.0080   54.2980 C.ar      1 NAP1367     0.0000 
     38 C3N        42.7890   14.9470   53.0300 C.ar      1 NAP1367     0.0000 
     39 C7N        42.8430   13.6160   52.3030 C.2       1 NAP1367     0.0000 
     40 O7N        43.4230   13.5170   51.2250 O.2       1 NAP1367     0.0000 
     41 N7N        42.2300   12.6040   52.9060 N.am      1 NAP1367     0.0000 
     42 C4N        43.3030   16.1050   52.4370 C.ar      1 NAP1367     0.0000 
     43 C5N        43.2220   17.3310   53.0980 C.ar      1 NAP1367     0.0000 
     44 C6N        42.6340   17.4120   54.3490 C.ar      1 NAP1367     0.0000 
     45 P2B        33.9480   24.7440   62.9700 P.3       1 NAP1367     0.0000 
     46 O1X        35.5800   24.7720   63.3710 O.co2     1 NAP1367     0.0000 
     47 O2X        33.8840   25.5520   61.5430 O.co2     1 NAP1367     0.0000 
     48 O3X        33.1770   25.5210   64.0090 O.co2     1 NAP1367     0.0000 
     49 H          37.0431   20.5661   61.0737 H         1 NAP1367     0.0000 
     50 H          36.7800   19.8803   59.4611 H         1 NAP1367     0.0000 
     51 H          34.6651   21.0114   59.2857 H         1 NAP1367     0.0000 
     52 H          35.8769   22.7497   61.0813 H         1 NAP1367     0.0000 
     53 H          35.1087   21.8122   62.9650 H         1 NAP1367     0.0000 
     54 H          32.7039   20.7967   61.4660 H         1 NAP1367     0.0000 
     55 H          35.1185   19.7756   64.2758 H         1 NAP1367     0.0000 
     56 H          32.3574   16.4779   66.2536 H         1 NAP1367     0.0000 
     57 H          30.7263   15.8269   65.8776 H         1 NAP1367     0.0000 
     58 H          29.4227   17.8575   62.1132 H         1 NAP1367     0.0000 
     59 H          38.1635   18.0578   56.5139 H         1 NAP1367     0.0000 
     60 H          38.3751   18.5798   58.1940 H         1 NAP1367     0.0000 
     61 H          39.0969   16.2985   57.9719 H         1 NAP1367     0.0000 
     62 H          40.9642   18.1884   58.8421 H         1 NAP1367     0.0000 
     63 H          42.1471   18.1831   56.8680 H         1 NAP1367     0.0000 
     64 H          41.5186   15.2788   56.7630 H         1 NAP1367     0.0000 
     65 H          41.8589   14.1635   54.7485 H         1 NAP1367     0.0000 
     66 H          42.2240   11.7352   52.4108 H         1 NAP1367     0.0000 
     67 H          41.8298   12.8021   53.8008 H         1 NAP1367     0.0000 
     68 H          43.7427   16.0507   51.5087 H         1 NAP1367     0.0000 
     69 H          43.6027   18.1770   52.6495 H         1 NAP1367     0.0000 
     70 H          42.5523   18.3116   54.8328 H         1 NAP1367     0.0000 
     71 H          34.3423   24.0632   60.2874 H         1 NAP1367     0.0000 
     72 H          42.1383   15.8857   59.1713 H         1 NAP1367     0.0000 
     73 H          43.9069   17.5377   57.9624 H         1 NAP1367     0.0000 
@<TRIPOS>BOND
     1    2    1 ar   
     2    3    1 ar   
     3    4    1 1    
     4   23    1 1    
     5    5    4 1    
     6    6    5 1    
     7   49    5 1    
     8   50    5 1    
     9    7    6 1    
    10    8    6 1    
    11   51    6 1    
    12   12    7 1    
    13    9    8 1    
    14   10    8 1    
    15   52    8 1    
    16   71    9 1    
    17   11   10 1    
    18   12   10 1    
    19   53   10 1    
    20   45   11 1    
    21   13   12 1    
    22   54   12 1    
    23   14   13 1    
    24   22   13 1    
    25   15   14 2    
    26   55   14 1    
    27   16   15 1    
    28   17   16 ar   
    29   22   16 ar   
    30   18   17 1    
    31   19   17 ar   
    32   56   18 1    
    33   57   18 1    
    34   20   19 ar   
    35   21   20 ar   
    36   58   20 1    
    37   22   21 ar   
    38   24   23 1    
    39   25   24 ar   
    40   26   24 ar   
    41   27   24 1    
    42   28   27 1    
    43   29   28 1    
    44   59   28 1    
    45   60   28 1    
    46   30   29 1    
    47   31   29 1    
    48   61   29 1    
    49   35   30 1    
    50   32   31 1    
    51   33   31 1    
    52   62   31 1    
    53   72   32 1    
    54   34   33 1    
    55   35   33 1    
    56   63   33 1    
    57   73   34 1    
    58   36   35 1    
    59   64   35 1    
    60   37   36 ar   
    61   44   36 ar   
    62   38   37 ar   
    63   65   37 1    
    64   39   38 1    
    65   42   38 ar   
    66   40   39 2    
    67   41   39 am   
    68   66   41 1    
    69   67   41 1    
    70   43   42 ar   
    71   68   42 1    
    72   44   43 ar   
    73   69   43 1    
    74   70   44 1    
    75   46   45 ar   
    76   47   45 ar   
    77   48   45 ar   
@<TRIPOS>SUBSTRUCTURE
     1 NAP1367     1 GROUP   
@<TRIPOS>SET

