#    Name: 1pyo_LEU_ASP_GLU_SER_ACE_ASA_1_INTS_M
#    Modification time : Mon Mar 24 22:27:52 2014

@<TRIPOS>MOLECULE
1pyo_LEU_ASP_GLU_SER_ACE_ASA_1_INTS_M
   97     0    12     0     0
SMALL
NO_CHARGES


@<TRIPOS>ATOM
      1 O          30.3555   65.0610   18.4660 O.2       1 ALC1        0.0000 
      2 O          29.4290   65.5620   17.5430 O.2       9 ALL1        0.0000 
      3 O          31.2820   64.5600   19.3890 O.2       5 ALP1        0.0000 
      4 N          29.1700   62.7945   19.0385 N.am      2 SEC2        0.0000 
      5 N          28.9630   62.8410   17.6240 N.am     10 SEL2        0.0000 
      6 N          29.3770   62.7480   20.4530 N.am      6 SEP2        0.0000 
      7 CA         28.6000   68.0680   13.8045 C.3       4 GLC5        0.0000 
      8 CA         30.0940   66.7740   14.0360 C.3      12 GLL5        0.0000 
      9 CA         27.1060   69.3620   13.5730 C.3       8 GLP5        0.0000 
     10 O          26.9285   63.9620   14.8640 O.2       1 ALC1        0.0000 
     11 O          27.5020   62.9840   15.9030 O.2       9 ALL1        0.0000 
     12 O          26.3550   64.9400   13.8250 O.2       5 ALP1        0.0000 
     13 CA         26.9510   61.9705   18.3050 C.3       4 GLC5        0.0000 
     14 CA         26.9060   61.6650   16.1830 C.3      12 GLL5        0.0000 
     15 CA         26.9960   62.2760   20.4270 C.3       8 GLP5        0.0000 
     16 CA         23.2730   61.3510   16.2365 C.3       4 GLC5        0.0000 
     17 CA         25.3870   61.6710   15.8560 C.3      12 GLL5        0.0000 
     18 CA         21.1590   61.0310   16.6170 C.3       8 GLP5        0.0000 
     19 CA         23.5545   62.2970   14.7200 C.3       4 GLC5        0.0000 
     20 CA         21.7220   62.9230   13.5840 C.3       8 GLP5        0.0000 
     21 N          25.4455   64.0125   18.6130 N.am      2 SEC2        0.0000 
     22 N          24.8010   62.7480   17.8920 N.am     10 SEL2        0.0000 
     23 N          26.0900   65.2770   19.3340 N.am      6 SEP2        0.0000 
     24 N          23.5810   62.0230   18.3545 N.am      2 SEC2        0.0000 
     25 N          22.3610   61.2980   18.8170 N.am      6 SEP2        0.0000 
     26 N          23.6430   64.0640   14.8255 N.am      2 SEC2        0.0000 
     27 N          23.8530   63.5320   16.1060 N.am     10 SEL2        0.0000 
     28 N          23.4330   64.5960   13.5450 N.am      6 SEP2        0.0000 
     29 O          27.5720   59.7045   17.5600 O.2       1 ALC1        0.0000 
     30 O          27.8580   59.4550   16.1960 O.2       9 ALL1        0.0000 
     31 O          27.2860   59.9540   18.9240 O.2       5 ALP1        0.0000 
     32 CA         26.4185   58.2050   15.3385 C.3       4 GLC5        0.0000 
     33 CA         28.5060   58.1950   15.7860 C.3      12 GLL5        0.0000 
     34 CA         24.3310   58.2150   14.8910 C.3       8 GLP5        0.0000 
     35 CA         28.1830   58.1455   13.6915 C.3       4 GLC5        0.0000 
     36 CA         27.8600   58.0960   11.5970 C.3       8 GLP5        0.0000 
     37 N          25.9790   57.5930   18.2315 N.am      2 SEC2        0.0000 
     38 N          26.7360   57.2470   17.1080 N.am     10 SEL2        0.0000 
     39 N          25.2220   57.9390   19.3550 N.am      6 SEP2        0.0000 
     40 CA         31.2690   60.7760   17.9445 C.3       4 GLC5        0.0000 
     41 CA         30.6110   59.2500   16.9570 C.3      12 GLL5        0.0000 
     42 CA         31.9270   62.3020   18.9320 C.3       8 GLP5        0.0000 
     43 NZ         31.3810   57.8700   19.5225 N.4       3 LYC4        0.0000 
     44 NZ         32.1490   58.2210   18.4980 N.4      11 LYL4        0.0000 
     45 NZ         29.9780   56.3650   20.7400 N.4       7 LYP4        0.0000 
     46 N          31.3810   57.8700   19.5225 N.am      2 SEC2        0.0000 
     47 N          32.1490   58.2210   18.4980 N.am     10 SEL2        0.0000 
     48 N          30.6130   57.5190   20.5470 N.am      6 SEP2        0.0000 
     49 CA         25.3025   52.7900   14.7070 C.3       4 GLC5        0.0000 
     50 CA         26.7350   53.7980   14.9560 C.3      12 GLL5        0.0000 
     51 CA         23.8700   51.7820   14.4580 C.3       8 GLP5        0.0000 
     52 CA         26.5230   54.7925   13.3615 C.3       4 GLC5        0.0000 
     53 CA         26.3110   55.7870   11.7670 C.3       8 GLP5        0.0000 
     54 CA         29.6960   67.2035   21.0290 C.3       4 GLC5        0.0000 
     55 CA         29.5460   67.2820   18.9950 C.3      12 GLL5        0.0000 
     56 CA         29.8460   67.1250   23.0630 C.3       8 GLP5        0.0000 
     57 CA         29.4620   51.5175   19.1825 C.3       4 GLC5        0.0000 
     58 CA         27.4820   51.8110   19.0950 C.3      12 GLL5        0.0000 
     59 CA         31.4420   51.2240   19.2700 C.3       8 GLP5        0.0000 
     60 N          29.2180   49.8495   19.3015 N.am      2 SEC2        0.0000 
     61 N          27.8090   49.4920   19.1020 N.am     10 SEL2        0.0000 
     62 N          30.6270   50.2070   19.5010 N.am      6 SEP2        0.0000 
     63 N          27.8325   48.0295   19.8710 N.am      2 SEC2        0.0000 
     64 N          27.8560   46.5670   20.6400 N.am      6 SEP2        0.0000 
     65 N          26.2880   49.2290   19.6435 N.am      2 SEC2        0.0000 
     66 N          24.7670   48.9660   20.1850 N.am      6 SEP2        0.0000 
     67 CA         25.5940   50.6685   21.4510 C.3       4 GLC5        0.0000 
     68 CA         26.5540   52.0730   20.3100 C.3      12 GLL5        0.0000 
     69 CA         24.6340   49.2640   22.5920 C.3       8 GLP5        0.0000 
     70 CA         24.5170   52.3090   20.1070 C.3       4 GLC5        0.0000 
     71 CA         22.4800   52.5450   19.9040 C.3       8 GLP5        0.0000 
     72 NZ         27.1835   53.7060   23.3460 N.4       3 LYC4        0.0000 
     73 NZ         26.3250   53.6180   22.1230 N.4      11 LYL4        0.0000 
     74 NZ         29.2410   53.2250   24.5840 N.4       7 LYP4        0.0000 
     75 N          27.1835   53.7060   23.3460 N.am      2 SEC2        0.0000 
     76 N          26.3250   53.6180   22.1230 N.am     10 SEL2        0.0000 
     77 N          28.0420   53.7940   24.5690 N.am      6 SEP2        0.0000 
     78 N          24.8700   53.9140   22.5515 N.am      2 SEC2        0.0000 
     79 N          23.4150   54.2100   22.9800 N.am      6 SEP2        0.0000 
     80 NZ         28.1595   53.6810   22.8395 N.4       3 LYC4        0.0000 
     81 NZ         28.2770   53.5680   21.1100 N.4      11 LYL4        0.0000 
     82 NZ         28.7055   54.8930   21.4365 N.4       3 LYC4        0.0000 
     83 N          28.9965   53.1405   22.2815 N.am      2 SEC2        0.0000 
     84 N          28.2770   53.5680   21.1100 N.am     10 SEL2        0.0000 
     85 N          29.7160   52.7130   23.4530 N.am      6 SEP2        0.0000 
     86 N          28.1595   53.6810   22.8395 N.am      2 SEC2        0.0000 
     87 N          28.7055   54.8930   21.4365 N.am      2 SEC2        0.0000 
     88 N          29.1340   56.2180   21.7630 N.am      6 SEP2        0.0000 
     89 N          29.2225   54.4640   20.4965 N.am      2 SEC2        0.0000 
     90 N          30.1680   55.3600   19.8830 N.am      6 SEP2        0.0000 
     91 CA         25.2387   59.9415   15.4552 C.3       4 GLC5        0.0000 
     92 CA         26.3385   52.3875   16.5410 C.3       4 GLC5        0.0000 
     93 CA         27.1010   54.6400   16.1880 C.3      12 GLL5        0.0000 
     94 CA         25.7590   50.5560   17.5100 C.3       8 GLP5        0.0000 
     95 CA         25.2225   55.4215   15.3320 C.3       4 GLC5        0.0000 
     96 CA         23.5270   56.6240   15.0920 C.3       8 GLP5        0.0000 
     97 CA         26.3885   51.2490   18.6063 C.3       4 GLC5        0.0000 
@<TRIPOS>BOND
@<TRIPOS>SUBSTRUCTURE
     1 ALC1        1 GROUP        1 X    ALC  0     ROOT ALC X 1
     2 SEC2        4 GROUP        1 X    SEC  0     **** SEC X 2
     3 LYC4       43 GROUP        1 X    LYC  0     **** LYC X 4
     4 GLC5        7 GROUP        1 X    GLC  0     **** GLC X 6
     5 ALP1        3 GROUP        1 Y    ALP  0     ROOT ALP Y 8
     6 SEP2        6 GROUP        1 Y    SEP  0     **** SEP Y 9
     7 LYP4       45 GROUP        1 Y    LYP  0     **** LYP Y 11
     8 GLP5        9 GROUP        1 Y    GLP  0     **** GLP Y 13
     9 ALL1        2 GROUP        1 Z    ALL  0     ROOT ALL Z 15
    10 SEL2        5 GROUP        1 Z    SEL  0     **** SEL Z 16
    11 LYL4       44 GROUP        1 Z    LYL  0     **** LYL Z 18
    12 GLL5        8 GROUP        1 Z    GLL  0     **** GLL Z 20
@<TRIPOS>SET

