#    Name: 1pyo_LEU_ASP_GLU_SER_ACE_ASA_1_ligand
#    Modification time : Mon Mar 24 22:27:52 2014

@<TRIPOS>MOLECULE
1pyo_LEU_ASP_GLU_SER_ACE_ASA_1_ligand
   74    73     6     0     0
SMALL
NO_CHARGES


@<TRIPOS>ATOM
      1 N          29.4290   65.5620   17.5430 N.am      1 LEU402      0.0000
      2 CA         29.0500   64.8460   16.3090 C.3       1 LEU402      0.0000
      3 C          28.4960   63.4640   16.6670 C.2       1 LEU402      0.0000
      4 O          28.9630   62.8410   17.6240 O.2       1 LEU402      0.0000
      5 CB         30.2840   64.6600   15.3970 C.3       1 LEU402      0.0000
      6 CG         31.0320   65.9060   14.8800 C.3       1 LEU402      0.0000
      7 CD1        32.2190   65.4550   14.0230 C.3       1 LEU402      0.0000
      8 CD2        30.0940   66.7740   14.0360 C.3       1 LEU402      0.0000
      9 HNCA       29.9866   65.0063   18.2089 H         1 LEU402      0.0000
     10 HA         28.3053   65.3846   15.7660 H         1 LEU402      0.0000
     11 HB2        29.9720   64.0457   14.5103 H         1 LEU402      0.0000
     12 HB3        31.0213   64.0081   15.9377 H         1 LEU402      0.0000
     13 HG         31.3904   66.4679   15.7096 H         1 LEU402      0.0000
     14 HD11       32.7353   66.2329   13.6649 H         1 LEU402      0.0000
     15 HD12       32.8607   64.8922   14.5441 H         1 LEU402      0.0000
     16 HD13       31.9243   64.9119   13.2368 H         1 LEU402      0.0000
     17 HD21       30.5558   67.5898   13.6878 H         1 LEU402      0.0000
     18 HD22       29.7403   66.2768   13.2437 H         1 LEU402      0.0000
     19 HD23       29.3035   67.0869   14.5625 H         1 LEU402      0.0000
     20 N          27.5020   62.9840   15.9030 N.am      2 ASP403      0.0000
     21 CA         26.9060   61.6650   16.1830 C.3       2 ASP403      0.0000
     22 C          27.6280   60.5320   15.4210 C.2       2 ASP403      0.0000
     23 O          27.9510   60.6120   14.2170 O.2       2 ASP403      0.0000
     24 CB         25.3870   61.6710   15.8560 C.3       2 ASP403      0.0000
     25 CG         24.6260   62.7380   16.6630 C.2       2 ASP403      0.0000
     26 OD1        24.8010   62.7480   17.8920 O.co2     2 ASP403      0.0000
     27 OD2        23.8530   63.5320   16.1060 O.co2     2 ASP403      0.0000
     28 HNCA       27.1119   63.4976   15.1008 H         2 ASP403      0.0000
     29 HA         26.9960   61.4456   17.2553 H         2 ASP403      0.0000
     30 HB2        24.9767   60.6871   16.0834 H         2 ASP403      0.0000
     31 HB3        25.2595   61.8662   14.7912 H         2 ASP403      0.0000
     32 N          27.8580   59.4550   16.1960 N.am      3 GLU404      0.0000
     33 CA         28.5060   58.1950   15.7860 C.3       3 GLU404      0.0000
     34 C          27.6350   57.0340   16.2760 C.2       3 GLU404      0.0000
     35 O          26.7360   57.2470   17.1080 O.2       3 GLU404      0.0000
     36 CB         29.9360   58.0190   16.3650 C.3       3 GLU404      0.0000
     37 CG         30.6110   59.2500   16.9570 C.3       3 GLU404      0.0000
     38 CD         32.0120   58.9550   17.4860 C.2       3 GLU404      0.0000
     39 OE1        32.1490   58.2210   18.4980 O.co2     3 GLU404      0.0000
     40 OE2        32.9840   59.4650   16.8850 O.co2     3 GLU404      0.0000
     41 HNCA       27.5570   59.4669   17.2245 H         3 GLU404      0.0000
     42 HA         28.5636   58.1276   14.7124 H         3 GLU404      0.0000
     43 HB2        30.5836   57.6040   15.5562 H         3 GLU404      0.0000
     44 HB3        29.8939   57.2193   17.1425 H         3 GLU404      0.0000
     45 HG2        29.9939   59.6398   17.7762 H         3 GLU404      0.0000
     46 HG3        30.6757   60.0298   16.1878 H         3 GLU404      0.0000
     47 N          27.8890   55.8230   15.7770 N.am      4 SER405      0.0000
     48 CA         27.1010   54.6400   16.1880 C.3       4 SER405      0.0000
     49 C          27.8580   53.7490   17.1850 C.2       4 SER405      0.0000
     50 O          29.0900   53.6980   17.2680 O.2       4 SER405      0.0000
     51 CB         26.7350   53.7980   14.9560 C.3       4 SER405      0.0000
     52 OG         27.8820   53.1660   14.3970 O.3       4 SER405      0.0000
     53 HNCA       28.6377   55.6424   15.0862 H         4 SER405      0.0000
     54 HA         26.1728   54.9519   16.6546 H         4 SER405      0.0000
     55 HB2        26.2447   54.4710   14.2326 H         4 SER405      0.0000
     56 HB3        25.9766   53.0630   15.2745 H         4 SER405      0.0000
     57 HG         28.5532   53.1458   15.1380 H         4 SER405      0.0000
     58 C          29.0560   66.7420   17.6750 C.2       5 ACE401      0.0000
     59 O          28.3960   67.5000   16.9520 O.2       5 ACE401      0.0000
     60 CH3        29.5460   67.2820   18.9950 C.3       5 ACE401      0.0000
     61 H          30.5436   67.2573   19.0591 H         5 ACE401      0.0000
     62 H          29.2668   68.2321   19.1343 H         5 ACE401      0.0000
     63 H          29.1896   66.7556   19.7669 H         5 ACE401      0.0000
     64 N          27.1930   52.8630   18.1070 N.4       6 ASA406      0.0000
     65 CA         27.4820   51.8110   19.0950 C.3       6 ASA406      0.0000
     66 C          27.1870   50.4440   18.5370 C.2       6 ASA406      0.0000
     67 O          27.8090   49.4920   19.1020 O.2       6 ASA406      0.0000
     68 CB         26.5540   52.0730   20.3100 C.3       6 ASA406      0.0000
     69 CG         27.0760   53.1500   21.2380 C.2       6 ASA406      0.0000
     70 OD1        26.3250   53.6180   22.1230 O.co2     6 ASA406      0.0000
     71 OD2        28.2770   53.5680   21.1100 O.co2     6 ASA406      0.0000
     72 H          28.4862   51.8690   19.4322 H         6 ASA406      0.0000
     73 H          26.4383   51.1318   20.8635 H         6 ASA406      0.0000
     74 H          25.5640   52.3590   19.9310 H         6 ASA406      0.0000
@<TRIPOS>BOND
     1    2    1 1
     2    9    1 1
     3    3    2 1
     4    5    2 1
     5   10    2 1
     6    4    3 2
     7    6    5 1
     8   11    5 1
     9   12    5 1
    10    7    6 1
    11    8    6 1
    12   13    6 1
    13   14    7 1
    14   15    7 1
    15   16    7 1
    16   17    8 1
    17   18    8 1
    18   19    8 1
    19   21   20 1
    20   28   20 1
    21   22   21 1
    22   24   21 1
    23   29   21 1
    24   23   22 2
    25   25   24 1
    26   30   24 1
    27   31   24 1
    28   26   25 ar
    29   27   25 ar
    30   33   32 1
    31   41   32 1
    32   34   33 1
    33   36   33 1
    34   42   33 1
    35   35   34 2
    36   37   36 1
    37   43   36 1
    38   44   36 1
    39   38   37 1
    40   45   37 1
    41   46   37 1
    42   39   38 ar
    43   40   38 ar
    44   48   47 1
    45   53   47 1
    46   49   48 1
    47   51   48 1
    48   54   48 1
    49   50   49 2
    50   52   51 1
    51   55   51 1
    52   56   51 1
    53   57   52 1
    54   59   58 2
    55   60   58 1
    56   61   60 1
    57   62   60 1
    58   63   60 1
    59   65   64 1
    60   66   65 1
    61   68   65 1
    62   72   65 1
    63   67   66 2
    64   69   68 1
    65   73   68 1
    66   74   68 1
    67   70   69 ar
    68   71   69 ar
    69   58    1 1 
    70   20    3 am
    71   32   22 am
    72   47   34 am
    73   64   49 1 
@<TRIPOS>SUBSTRUCTURE
     1 LEU402      1 RESIDUE
     2 ASP403     20 RESIDUE
     3 GLU404     32 RESIDUE
     4 SER405     47 RESIDUE
     5 ACE401     58 GROUP
     6 ASA406     64 GROUP
@<TRIPOS>SET

