#    Name: 3l3z_DHT_1_INTS_M
#    Modification time : Mon Mar 24 20:57:30 2014

@<TRIPOS>MOLECULE
3l3z_DHT_1_INTS_M
   72     0     9     0     0
SMALL
NO_CHARGES


@<TRIPOS>ATOM
      1 CA         -0.8970   28.0445    5.7500 C.3       3 GLC5        0.0000 
      2 CA          0.9240   28.4360    4.8940 C.3       9 GLL5        0.0000 
      3 CA         -2.7180   27.6530    6.6060 C.3       6 GLP5        0.0000 
      4 CA          0.8215   27.8220    7.0400 C.3       3 GLC5        0.0000 
      5 CA          0.7190   27.2080    9.1860 C.3       6 GLP5        0.0000 
      6 CA          2.5640   27.1305    7.0845 C.3       3 GLC5        0.0000 
      7 CA          1.6740   27.1360    5.2910 C.3       9 GLL5        0.0000 
      8 CA          3.4540   27.1250    8.8780 C.3       6 GLP5        0.0000 
      9 CA          3.6540   27.8305    6.9350 C.3       3 GLC5        0.0000 
     10 CA          3.8540   28.5360    4.9920 C.3       9 GLL5        0.0000 
     11 CA          5.5135   27.3040    4.6225 C.3       3 GLC5        0.0000 
     12 CA          7.1730   26.0720    4.2530 C.3       6 GLP5        0.0000 
     13 CA          4.0140   28.4765    3.0880 C.3       3 GLC5        0.0000 
     14 CA          4.1740   28.4170    1.1840 C.3       6 GLP5        0.0000 
     15 CA          5.2350   31.1025    6.2115 C.3       3 GLC5        0.0000 
     16 CA          3.7650   31.0880    4.7500 C.3       9 GLL5        0.0000 
     17 CA          6.7050   31.1170    7.6730 C.3       6 GLP5        0.0000 
     18 CA          5.7335   31.7100    4.2020 C.3       3 GLC5        0.0000 
     19 CA          7.7020   32.3320    3.6540 C.3       6 GLP5        0.0000 
     20 CA          3.1810   33.5385    2.4205 C.3       3 GLC5        0.0000 
     21 CA          2.9480   32.2810    4.2030 C.3       9 GLL5        0.0000 
     22 CA          3.4140   34.7960    0.6380 C.3       6 GLP5        0.0000 
     23 CA          2.3360   32.7755    6.8635 C.3       3 GLC5        0.0000 
     24 CA          1.5390   32.3260    4.8400 C.3       9 GLL5        0.0000 
     25 CA          3.1330   33.2250    8.8870 C.3       6 GLP5        0.0000 
     26 CA         -1.6750   29.3615    5.9325 C.3       3 GLC5        0.0000 
     27 CA         -0.6320   31.0700    5.2590 C.3       9 GLL5        0.0000 
     28 CA         -1.4210   31.7370    2.8620 C.3       3 GLC5        0.0000 
     29 CA         -1.4940   32.2770    4.8170 C.3       9 GLL5        0.0000 
     30 CA         -1.3480   31.1970    0.9070 C.3       6 GLP5        0.0000 
     31 CA         -3.2445   31.5940    4.1945 C.3       3 GLC5        0.0000 
     32 CA         -4.9950   30.9110    3.5720 C.3       6 GLP5        0.0000 
     33 CA          3.1515   35.4750    4.5590 C.3       3 GLC5        0.0000 
     34 CA          1.2000   34.8770    4.2440 C.3       9 GLL5        0.0000 
     35 CA          5.1030   36.0730    4.8740 C.3       6 GLP5        0.0000 
     36 CA          0.3475   37.5820    3.3725 C.3       3 GLC5        0.0000 
     37 CA         -0.0080   35.7250    3.8210 C.3       9 GLL5        0.0000 
     38 CA          0.7030   39.4390    2.9240 C.3       6 GLP5        0.0000 
     39 N          -2.5410   36.1230    5.7220 N.am      2 SEC2        0.0000 
     40 N          -2.3590   35.4750    4.4530 N.am      8 SEL2        0.0000 
     41 N          -2.7230   36.7710    6.9910 N.am      5 SEP2        0.0000 
     42 O          -3.3835   34.5550    4.1810 O.2       1 ALC1        0.0000 
     43 O          -2.3590   35.4750    4.4530 O.2       7 ALL1        0.0000 
     44 O          -4.4080   33.6350    3.9090 O.2       4 ALP1        0.0000 
     45 CA         -0.8890   33.2845    8.3750 C.3       3 GLC5        0.0000 
     46 CA         -0.7450   34.0610    6.3670 C.3       9 GLL5        0.0000 
     47 CA         -1.0330   32.5080   10.3830 C.3       6 GLP5        0.0000 
     48 CA          0.4860   34.2125    7.7520 C.3       3 GLC5        0.0000 
     49 CA          1.7170   34.3640    9.1370 C.3       6 GLP5        0.0000 
     50 CA         -1.1200   35.7595    6.7775 C.3       3 GLC5        0.0000 
     51 CA         -1.4950   37.4580    7.1880 C.3       6 GLP5        0.0000 
     52 CA         -2.2320   32.6380    7.0325 C.3       3 GLC5        0.0000 
     53 CA         -3.7190   31.2150    7.6980 C.3       6 GLP5        0.0000 
     54 CA          0.6675   30.6235    8.4120 C.3       3 GLC5        0.0000 
     55 CA          1.6570   29.8970    6.7500 C.3       9 GLL5        0.0000 
     56 CA         -0.3220   31.3500   10.0740 C.3       6 GLP5        0.0000 
     57 CA          2.3950   31.5610    7.8185 C.3       3 GLC5        0.0000 
     58 CA          1.1880   28.5525    7.9680 C.3       3 GLC5        0.0000 
     59 CA          0.8130   26.7080    3.5968 C.3       3 GLC5        0.0000 
     60 CA          0.3270   25.6300    2.1010 C.3       6 GLP5        0.0000 
     61 CA          4.6867   33.0093    5.4592 C.3       3 GLC5        0.0000 
     62 CA          6.0170   34.3340    6.4420 C.3       6 GLP5        0.0000 
     63 CA          3.9560   30.5075    2.8550 C.3       3 GLC5        0.0000 
     64 CA          4.7420   29.6660    1.2820 C.3       6 GLP5        0.0000 
     65 CA         -0.6330   31.1118    2.9350 C.3       3 GLC5        0.0000 
     66 CA          0.7960   30.9830    4.6670 C.3       9 GLL5        0.0000 
     67 CA         -2.3910   31.4443    6.3680 C.3       3 GLC5        0.0000 
     68 CA          1.8620   35.8665    2.6248 C.3       3 GLC5        0.0000 
     69 CA          3.1280   36.4320    1.2170 C.3       6 GLP5        0.0000 
     70 CA         -1.0633   35.5363    2.0810 C.3       3 GLC5        0.0000 
     71 CA         -1.5140   35.8250    0.2560 C.3       6 GLP5        0.0000 
     72 CA         -1.0537   36.3528    5.5470 C.3       3 GLC5        0.0000 
@<TRIPOS>BOND
@<TRIPOS>SUBSTRUCTURE
     1 ALC1       42 GROUP        1 X    ALC  0     ROOT ALC X 1
     2 SEC2       39 GROUP        1 X    SEC  0     **** SEC X 2
     3 GLC5        1 GROUP        1 X    GLC  0     **** GLC X 6
     4 ALP1       44 GROUP        1 Y    ALP  0     ROOT ALP Y 8
     5 SEP2       41 GROUP        1 Y    SEP  0     **** SEP Y 9
     6 GLP5        3 GROUP        1 Y    GLP  0     **** GLP Y 13
     7 ALL1       43 GROUP        1 Z    ALL  0     ROOT ALL Z 15
     8 SEL2       40 GROUP        1 Z    SEL  0     **** SEL Z 16
     9 GLL5        2 GROUP        1 Z    GLL  0     **** GLL Z 20
@<TRIPOS>SET

