#    Name: 3l3z_DHT_1_ligand
#    Modification time : Mon Mar 24 20:57:30 2014

@<TRIPOS>MOLECULE
3l3z_DHT_1_ligand
   51    54     1     0     0
SMALL
NO_CHARGES


@<TRIPOS>ATOM
      1 C1          0.9240   28.4360    4.8940 C.3       1 DHT1        0.0000 
      2 C2          1.6740   27.1360    5.2910 C.3       1 DHT1        0.0000 
      3 C3          3.1160   27.2220    4.7900 C.2       1 DHT1        0.0000 
      4 O3          3.6500   26.2500    4.2300 O.2       1 DHT1        0.0000 
      5 C4          3.8540   28.5360    4.9920 C.3       1 DHT1        0.0000 
      6 C5          3.0190   29.7460    4.5560 C.3       1 DHT1        0.0000 
      7 C6          3.7650   31.0880    4.7500 C.3       1 DHT1        0.0000 
      8 C7          2.9480   32.2810    4.2030 C.3       1 DHT1        0.0000 
      9 C8          1.5390   32.3260    4.8400 C.3       1 DHT1        0.0000 
     10 C9          0.7960   30.9830    4.6670 C.3       1 DHT1        0.0000 
     11 C10         1.6040   29.7770    5.2060 C.3       1 DHT1        0.0000 
     12 C11        -0.6320   31.0700    5.2590 C.3       1 DHT1        0.0000 
     13 C12        -1.4940   32.2770    4.8170 C.3       1 DHT1        0.0000 
     14 C13        -0.7430   33.6170    4.8980 C.3       1 DHT1        0.0000 
     15 C14         0.6430   33.4490    4.2690 C.3       1 DHT1        0.0000 
     16 C15         1.2000   34.8770    4.2440 C.3       1 DHT1        0.0000 
     17 C16        -0.0080   35.7250    3.8210 C.3       1 DHT1        0.0000 
     18 C17        -1.2170   34.7700    3.9910 C.3       1 DHT1        0.0000 
     19 O17        -2.3590   35.4750    4.4530 O.3       1 DHT1        0.0000 
     20 C18        -0.7450   34.0610    6.3670 C.3       1 DHT1        0.0000 
     21 C19         1.6570   29.8970    6.7500 C.3       1 DHT1        0.0000 
     22 H          -0.0775   28.4205    5.3865 H         1 DHT1        0.0000 
     23 H           0.7103   28.3903    3.7995 H         1 DHT1        0.0000 
     24 H           1.1784   26.2945    4.8345 H         1 DHT1        0.0000 
     25 H           1.6655   27.0429    6.3650 H         1 DHT1        0.0000 
     26 H           4.7851   28.5221    4.4152 H         1 DHT1        0.0000 
     27 H           4.1136   28.6479    6.0502 H         1 DHT1        0.0000 
     28 H           2.8479   29.6426    3.4526 H         1 DHT1        0.0000 
     29 H           4.7190   31.0416    4.2282 H         1 DHT1        0.0000 
     30 H           3.9493   31.2405    5.8118 H         1 DHT1        0.0000 
     31 H           2.8478   32.1797    3.1271 H         1 DHT1        0.0000 
     32 H           3.4704   33.2044    4.4318 H         1 DHT1        0.0000 
     33 H           1.6466   32.5001    5.9115 H         1 DHT1        0.0000 
     34 H           0.6735   30.8292    3.5701 H         1 DHT1        0.0000 
     35 H          -0.5530   31.0812    6.3663 H         1 DHT1        0.0000 
     36 H          -1.1759   30.1369    5.0024 H         1 DHT1        0.0000 
     37 H          -2.3836   32.3258    5.4541 H         1 DHT1        0.0000 
     38 H          -1.8252   32.1137    3.7858 H         1 DHT1        0.0000 
     39 H           0.4307   33.2052    3.1813 H         1 DHT1        0.0000 
     40 H           1.9617   34.9520    3.5141 H         1 DHT1        0.0000 
     41 H           1.5105   35.1578    5.2153 H         1 DHT1        0.0000 
     42 H           0.0819   35.9988    2.8030 H         1 DHT1        0.0000 
     43 H          -0.1175   36.5490    4.4755 H         1 DHT1        0.0000 
     44 H          -1.3849   34.3349    2.9929 H         1 DHT1        0.0000 
     45 H          -0.2922   33.3930    6.9575 H         1 DHT1        0.0000 
     46 H          -0.2704   34.9322    6.4923 H         1 DHT1        0.0000 
     47 H          -1.6739   34.1802    6.7177 H         1 DHT1        0.0000 
     48 H           2.1782   29.1501    7.1629 H         1 DHT1        0.0000 
     49 H           2.0876   30.7511    7.0416 H         1 DHT1        0.0000 
     50 H           0.7432   29.8760    7.1557 H         1 DHT1        0.0000 
     51 H          -3.1307   34.8661    4.2694 H         1 DHT1        0.0000 
@<TRIPOS>BOND
     1    2    1 1    
     2   11    1 1    
     3   22    1 1    
     4   23    1 1    
     5    3    2 1    
     6   24    2 1    
     7   25    2 1    
     8    4    3 2    
     9    5    3 1    
    10    6    5 1    
    11   26    5 1    
    12   27    5 1    
    13    7    6 1    
    14   11    6 1    
    15   28    6 1    
    16    8    7 1    
    17   29    7 1    
    18   30    7 1    
    19    9    8 1    
    20   31    8 1    
    21   32    8 1    
    22   10    9 1    
    23   15    9 1    
    24   33    9 1    
    25   11   10 1    
    26   12   10 1    
    27   34   10 1    
    28   21   11 1    
    29   13   12 1    
    30   35   12 1    
    31   36   12 1    
    32   14   13 1    
    33   37   13 1    
    34   38   13 1    
    35   15   14 1    
    36   18   14 1    
    37   20   14 1    
    38   16   15 1    
    39   39   15 1    
    40   17   16 1    
    41   40   16 1    
    42   41   16 1    
    43   18   17 1    
    44   42   17 1    
    45   43   17 1    
    46   19   18 1    
    47   44   18 1    
    48   51   19 1    
    49   45   20 1    
    50   46   20 1    
    51   47   20 1    
    52   48   21 1    
    53   49   21 1    
    54   50   21 1    
@<TRIPOS>SUBSTRUCTURE
     1 DHT1        1 GROUP   
@<TRIPOS>SET

