#    Name: 2xk3_XK3_1_INTS_M
#    Modification time : Tue Mar 25 06:07:50 2014

@<TRIPOS>MOLECULE
2xk3_XK3_1_INTS_M
   65     0    12     0     0
SMALL
NO_CHARGES


@<TRIPOS>ATOM
      1 CA         28.4665    7.0225  -20.5205 C.3       4 GLC5        0.0000 
      2 CA         26.3700    7.2100  -21.2440 C.3      12 GLL5        0.0000 
      3 CA         30.5630    6.8350  -19.7970 C.3       8 GLP5        0.0000 
      4 CA         27.2340    5.3330  -20.3840 C.3       4 GLC5        0.0000 
      5 CA         28.0980    3.4560  -19.5240 C.3       8 GLP5        0.0000 
      6 CA         24.5605    6.5615  -21.9185 C.3       4 GLC5        0.0000 
      7 CA         22.7510    5.9130  -22.5930 C.3       8 GLP5        0.0000 
      8 N          25.2285    5.2020  -21.6065 N.am      2 SEC2        0.0000 
      9 N          25.8530    6.0730  -20.6400 N.am     10 SEL2        0.0000 
     10 N          24.6040    4.3310  -22.5730 N.am      6 SEP2        0.0000 
     11 CA         26.7185    4.7880  -19.4405 C.3       4 GLC5        0.0000 
     12 CA         25.3390    6.1200  -19.3570 C.3      12 GLL5        0.0000 
     13 CA         25.5525    4.2420  -20.5570 C.3       4 GLC5        0.0000 
     14 CA         25.7660    2.3640  -21.7570 C.3       8 GLP5        0.0000 
     15 CA         24.0450    6.0165  -20.9750 C.3       4 GLC5        0.0000 
     16 O          24.6785    3.7090  -18.9890 O.2       1 ALC1        0.0000 
     17 O          24.7530    4.9670  -18.7640 O.2       9 ALL1        0.0000 
     18 O          24.6040    2.4510  -19.2140 O.2       5 ALP1        0.0000 
     19 CA         23.7675    9.0715  -17.9385 C.3       4 GLC5        0.0000 
     20 CA         24.7460    7.4870  -17.2790 C.3      12 GLL5        0.0000 
     21 CA         22.7890   10.6560  -18.5980 C.3       8 GLP5        0.0000 
     22 CA         23.7400    9.5185  -16.8500 C.3       4 GLC5        0.0000 
     23 CA         25.4030    8.4510  -16.2790 C.3      12 GLL5        0.0000 
     24 CA         22.0770   10.5860  -17.4210 C.3       8 GLP5        0.0000 
     25 CA         22.8400    9.2715  -15.9950 C.3       4 GLC5        0.0000 
     26 CA         23.6030    7.9570  -14.5690 C.3      12 GLL5        0.0000 
     27 NZ         23.8715    7.8190  -11.1620 N.4       3 LYC4        0.0000 
     28 NZ         23.4520    9.0770  -12.5350 N.4      11 LYL4        0.0000 
     29 NZ         24.2910    6.5610   -9.7890 N.4       7 LYP4        0.0000 
     30 NZ         23.3620    6.8260  -11.1770 N.4       3 LYC4        0.0000 
     31 NZ         22.4330    7.0910  -12.5650 N.4      11 LYL4        0.0000 
     32 N          21.3330    6.0180  -12.7225 N.am      2 SEC2        0.0000 
     33 N          22.4330    7.0910  -12.5650 N.am     10 SEL2        0.0000 
     34 N          20.2330    4.9450  -12.8800 N.am      6 SEP2        0.0000 
     35 CA         21.9180    5.2515  -16.1960 C.3       4 GLC5        0.0000 
     36 CA         22.9760    6.9080  -15.5020 C.3      12 GLL5        0.0000 
     37 CA         20.8600    3.5950  -16.8900 C.3       8 GLP5        0.0000 
     38 CA         21.9210    8.3970  -16.4410 C.3       4 GLC5        0.0000 
     39 CA         20.8660    9.8860  -17.3800 C.3       8 GLP5        0.0000 
     40 CA         21.4030    6.2970  -17.4865 C.3       4 GLC5        0.0000 
     41 CA         23.2660    7.1700  -16.9800 C.3      12 GLL5        0.0000 
     42 CA         19.5400    5.4240  -17.9930 C.3       8 GLP5        0.0000 
     43 CA         22.6715    8.8780  -17.2005 C.3       4 GLC5        0.0000 
     44 CA         28.6497    6.9283  -23.6912 C.3       4 GLC5        0.0000 
     45 CA         28.4350    8.7300  -23.0640 C.3      12 GLL5        0.0000 
     46 CA         28.8080    4.9490  -23.5980 C.3       8 GLP5        0.0000 
     47 CA         26.6122    9.8848  -23.8787 C.3       4 GLC5        0.0000 
     48 CA         24.7330   10.8620  -23.9730 C.3       8 GLP5        0.0000 
     49 CA         29.3163    9.6675  -21.1878 C.3       4 GLC5        0.0000 
     50 CA         27.8460    9.8000  -22.2150 C.3      12 GLL5        0.0000 
     51 CA         30.4920   10.0700  -19.7360 C.3       8 GLP5        0.0000 
     52 CA         29.0877   10.9295  -20.8195 C.3       4 GLC5        0.0000 
     53 CA         28.0870   11.4280  -22.4020 C.3      12 GLL5        0.0000 
     54 CA         28.5094    9.7114  -20.1874 C.3       4 GLC5        0.0000 
     55 CA         26.4660   10.9920  -20.5000 C.3      12 GLL5        0.0000 
     56 CA         26.9447    8.1930  -14.7840 C.3       4 GLC5        0.0000 
     57 CA         25.0880    8.1770  -14.8190 C.3      12 GLL5        0.0000 
     58 CA         28.6440    8.0720  -14.0190 C.3       8 GLP5        0.0000 
     59 CA         24.3442    6.0435  -14.7000 C.3       4 GLC5        0.0000 
     60 CA         24.3430    4.0200  -14.7060 C.3       8 GLP5        0.0000 
     61 CA         23.0578    9.5495  -14.3185 C.3       4 GLC5        0.0000 
     62 CA         21.7700   11.0320  -13.9430 C.3       8 GLP5        0.0000 
     63 CA         23.9170    5.5691  -15.5109 C.3       4 GLC5        0.0000 
     64 CA         25.9379   10.8509  -22.6429 C.3       4 GLC5        0.0000 
     65 CA         26.8590    9.6030  -21.0390 C.3      12 GLL5        0.0000 
@<TRIPOS>BOND
@<TRIPOS>SUBSTRUCTURE
     1 ALC1       16 GROUP        1 X    ALC  0     ROOT ALC X 1
     2 SEC2        8 GROUP        1 X    SEC  0     **** SEC X 2
     3 LYC4       27 GROUP        1 X    LYC  0     **** LYC X 4
     4 GLC5        1 GROUP        1 X    GLC  0     **** GLC X 6
     5 ALP1       18 GROUP        1 Y    ALP  0     ROOT ALP Y 8
     6 SEP2       10 GROUP        1 Y    SEP  0     **** SEP Y 9
     7 LYP4       29 GROUP        1 Y    LYP  0     **** LYP Y 11
     8 GLP5        3 GROUP        1 Y    GLP  0     **** GLP Y 13
     9 ALL1       17 GROUP        1 Z    ALL  0     ROOT ALL Z 15
    10 SEL2        9 GROUP        1 Z    SEL  0     **** SEL Z 16
    11 LYL4       28 GROUP        1 Z    LYL  0     **** LYL Z 18
    12 GLL5        2 GROUP        1 Z    GLL  0     **** GLL Z 20
@<TRIPOS>SET

