#    Name: 2xk3_XK3_1_ligand
#    Modification time : Tue Mar 25 06:07:50 2014

@<TRIPOS>MOLECULE
2xk3_XK3_1_ligand
   43    45     1     0     0
SMALL
NO_CHARGES


@<TRIPOS>ATOM
      1 C01        28.5480    9.0850  -24.5050 C.3       1 XK31280     0.0000 
      2 C02        28.4350    8.7300  -23.0640 C.3       1 XK31280     0.0000 
      3 C03        27.8460    9.8000  -22.2150 C.2       1 XK31280     0.0000 
      4 C04        28.0870   11.4280  -22.4020 C.2       1 XK31280     0.0000 
      5 C05        27.2800   12.1500  -21.4040 C.2       1 XK31280     0.0000 
      6 S06        26.4660   10.9920  -20.5000 S.3       1 XK31280     0.0000 
      7 C07        26.8590    9.6030  -21.0390 C.2       1 XK31280     0.0000 
      8 C08        26.3910    8.4080  -20.5080 C.ar      1 XK31280     0.0000 
      9 C09        26.3700    7.2100  -21.2440 C.ar      1 XK31280     0.0000 
     10 N10        25.8530    6.0730  -20.6400 N.ar      1 XK31280     0.0000 
     11 C11        25.3390    6.1200  -19.3570 C.ar      1 XK31280     0.0000 
     12 N12        24.7530    4.9670  -18.7640 N.pl3     1 XK31280     0.0000 
     13 C13        25.3340    7.3320  -18.6550 C.ar      1 XK31280     0.0000 
     14 C14        24.7460    7.4870  -17.2790 C.3       1 XK31280     0.0000 
     15 C15        25.4030    8.4510  -16.2790 C.3       1 XK31280     0.0000 
     16 C16        25.0880    8.1770  -14.8190 C.3       1 XK31280     0.0000 
     17 C17        23.6030    7.9570  -14.5690 C.3       1 XK31280     0.0000 
     18 C18        23.1000    8.1160  -13.1840 C.2       1 XK31280     0.0000 
     19 O19        23.4520    9.0770  -12.5350 O.co2     1 XK31280     0.0000 
     20 O20        22.4330    7.0910  -12.5650 O.co2     1 XK31280     0.0000 
     21 C21        22.9760    6.9080  -15.5020 C.3       1 XK31280     0.0000 
     22 C22        23.2660    7.1700  -16.9800 C.3       1 XK31280     0.0000 
     23 N23        25.8480    8.4680  -19.2500 N.ar      1 XK31280     0.0000 
     24 H          29.4427    8.4667  -22.6732 H         1 XK31280     0.0000 
     25 H          27.8243    7.8058  -22.9629 H         1 XK31280     0.0000 
     26 H          28.6381   11.7223  -23.0361 H         1 XK31280     0.0000 
     27 H          27.1681   12.9962  -21.2250 H         1 XK31280     0.0000 
     28 H          26.7267    7.1866  -22.1941 H         1 XK31280     0.0000 
     29 H          24.7742    4.1311  -19.3125 H         1 XK31280     0.0000 
     30 H          24.3693    5.0897  -17.8487 H         1 XK31280     0.0000 
     31 H          25.2357    6.3904  -16.7471 H         1 XK31280     0.0000 
     32 H          25.0901    9.4831  -16.5304 H         1 XK31280     0.0000 
     33 H          26.4999    8.4147  -16.4267 H         1 XK31280     0.0000 
     34 H          25.4325    9.0242  -14.2102 H         1 XK31280     0.0000 
     35 H          25.6425    7.2872  -14.4909 H         1 XK31280     0.0000 
     36 H          23.1581    8.9956  -15.1122 H         1 XK31280     0.0000 
     37 H          21.8900    6.8984  -15.3444 H         1 XK31280     0.0000 
     38 H          23.3610    5.9171  -15.2297 H         1 XK31280     0.0000 
     39 H          22.9704    6.2881  -17.5676 H         1 XK31280     0.0000 
     40 H          22.6499    8.0138  -17.3246 H         1 XK31280     0.0000 
     41 H          29.1216    9.8921  -24.6448 H         1 XK31280     0.0000 
     42 H          28.9513    8.3426  -25.0399 H         1 XK31280     0.0000 
     43 H          27.6556    9.2861  -24.9090 H         1 XK31280     0.0000 
@<TRIPOS>BOND
     1    2    1 1    
     2   41    1 1    
     3   42    1 1    
     4   43    1 1    
     5    3    2 1    
     6   24    2 1    
     7   25    2 1    
     8    4    3 1    
     9    7    3 2    
    10    5    4 2    
    11   26    4 1    
    12    6    5 1    
    13   27    5 1    
    14    7    6 1    
    15    8    7 1    
    16    9    8 ar   
    17   23    8 ar   
    18   10    9 ar   
    19   28    9 1    
    20   11   10 ar   
    21   12   11 1    
    22   13   11 ar   
    23   29   12 1    
    24   30   12 1    
    25   14   13 1    
    26   23   13 ar   
    27   15   14 1    
    28   22   14 1    
    29   31   14 1    
    30   16   15 1    
    31   32   15 1    
    32   33   15 1    
    33   17   16 1    
    34   34   16 1    
    35   35   16 1    
    36   18   17 1    
    37   21   17 1    
    38   36   17 1    
    39   19   18 ar   
    40   20   18 ar   
    41   22   21 1    
    42   37   21 1    
    43   38   21 1    
    44   39   22 1    
    45   40   22 1    
@<TRIPOS>SUBSTRUCTURE
     1 XK31280     1 GROUP   
@<TRIPOS>SET

