#    Name: 2dwp_ACP_1_INTS_M
#    Modification time : Tue Mar 25 10:25:40 2014

@<TRIPOS>MOLECULE
2dwp_ACP_1_INTS_M
   87     0    12     0     0
SMALL
NO_CHARGES


@<TRIPOS>ATOM
      1 NZ         -7.7175   45.4700    1.7000 N.4       2 LYC4        0.0000 
      2 NZ         -6.0720   45.5850    1.4450 N.4      10 LYL4        0.0000 
      3 NZ         -9.3630   45.3550    1.9550 N.4       6 LYP4        0.0000 
      4 N          -7.7175   45.4700    1.7000 N.am      1 SEC2        0.0000 
      5 N          -6.0720   45.5850    1.4450 N.am      9 SEL2        0.0000 
      6 N          -9.3630   45.3550    1.9550 N.am      5 SEP2        0.0000 
      7 NZ         -8.5020   46.3790    1.4230 N.4       2 LYC4        0.0000 
      8 NZ         -7.6410   47.4030    0.8910 N.4      10 LYL4        0.0000 
      9 Zn         -8.2400   48.3855    1.0860 Zn        3 ZIC7        0.0000 
     10 Zn         -7.6410   47.4030    0.8910 Zn       11 ZIL7        0.0000 
     11 Zn         -8.8390   49.3680    1.2810 Zn        7 ZIP7        0.0000 
     12 N          -8.5020   46.3790    1.4230 N.am      1 SEC2        0.0000 
     13 N          -7.6410   47.4030    0.8910 N.am      9 SEL2        0.0000 
     14 NZ         -4.6110   48.6675    2.7615 N.4       2 LYC4        0.0000 
     15 NZ         -5.1420   48.2210    1.4900 N.4      10 LYL4        0.0000 
     16 NZ         -4.0800   49.1140    4.0330 N.4       6 LYP4        0.0000 
     17 N          -4.6110   48.6675    2.7615 N.am      1 SEC2        0.0000 
     18 N          -5.1420   48.2210    1.4900 N.am      9 SEL2        0.0000 
     19 N          -4.0800   49.1140    4.0330 N.am      5 SEP2        0.0000 
     20 NZ         -5.2170   48.6005    4.6510 N.4       2 LYC4        0.0000 
     21 NZ         -6.3540   48.0870    5.2690 N.4      10 LYL4        0.0000 
     22 N          -5.2170   48.6005    4.6510 N.am      1 SEC2        0.0000 
     23 N          -6.3540   48.0870    5.2690 N.am      9 SEL2        0.0000 
     24 N          -6.1505   47.1875    6.3535 N.am      1 SEC2        0.0000 
     25 N          -5.9470   46.2880    7.4380 N.am      5 SEP2        0.0000 
     26 N          -7.0215   49.3185    6.0580 N.am      1 SEC2        0.0000 
     27 N          -7.6890   50.5500    6.8470 N.am      5 SEP2        0.0000 
     28 NZ         -6.0175   49.1285    3.8500 N.4       2 LYC4        0.0000 
     29 NZ         -7.9550   49.1430    3.6670 N.4      10 LYL4        0.0000 
     30 Zn         -8.3970   49.2555    2.4740 Zn        3 ZIC7        0.0000 
     31 Zn         -7.9550   49.1430    3.6670 Zn       11 ZIL7        0.0000 
     32 N          -8.6630   50.3560    4.2215 N.am      1 SEC2        0.0000 
     33 N          -7.9550   49.1430    3.6670 N.am      9 SEL2        0.0000 
     34 N          -9.3710   51.5690    4.7760 N.am      5 SEP2        0.0000 
     35 CA         -5.3135   46.2060    3.5550 C.3       4 GLC5        0.0000 
     36 CA         -6.9990   46.8490    3.2720 C.3      12 GLL5        0.0000 
     37 CA         -3.6280   45.5630    3.8380 C.3       8 GLP5        0.0000 
     38 CA         -6.7260   45.5860    4.6845 C.3       4 GLC5        0.0000 
     39 CA         -6.4530   44.3230    6.0970 C.3       8 GLP5        0.0000 
     40 CA         -8.2045   45.4800    3.0165 C.3       4 GLC5        0.0000 
     41 CA         -9.4100   44.1110    2.7610 C.3       8 GLP5        0.0000 
     42 N         -11.2450   50.2135    5.8280 N.am      1 SEC2        0.0000 
     43 N         -10.6540   49.0600    5.6320 N.am      9 SEL2        0.0000 
     44 N         -11.8360   51.3670    6.0240 N.am      5 SEP2        0.0000 
     45 NZ        -10.0190   46.1910    2.9960 N.4       2 LYC4        0.0000 
     46 NZ        -10.6750   47.0270    4.0370 N.4      10 LYL4        0.0000 
     47 N         -10.0190   46.1910    2.9960 N.am      1 SEC2        0.0000 
     48 N         -10.6750   47.0270    4.0370 N.am      9 SEL2        0.0000 
     49 N         -11.8395   46.9245    3.3785 N.am      1 SEC2        0.0000 
     50 N         -13.0040   46.8220    2.7200 N.am      5 SEP2        0.0000 
     51 N          -8.1930   47.7555    6.7595 N.am      1 SEC2        0.0000 
     52 N          -8.5910   47.4210    5.3280 N.am      9 SEL2        0.0000 
     53 N          -7.7950   48.0900    8.1910 N.am      5 SEP2        0.0000 
     54 CA        -12.2845   48.6450    7.6250 C.3       4 GLC5        0.0000 
     55 CA        -11.9200   46.8530    7.1410 C.3      12 GLL5        0.0000 
     56 CA        -12.6490   50.4370    8.1090 C.3       8 GLP5        0.0000 
     57 CA        -12.8505   47.7165    5.6415 C.3       4 GLC5        0.0000 
     58 CA        -13.7810   48.5800    4.1420 C.3       8 GLP5        0.0000 
     59 CA        -10.6970   44.2005    8.5890 C.3       4 GLC5        0.0000 
     60 CA        -11.8640   45.9060    8.3460 C.3      12 GLL5        0.0000 
     61 CA         -9.5300   42.4950    8.8320 C.3       8 GLP5        0.0000 
     62 CA        -14.1205   45.2475    7.1985 C.3       4 GLC5        0.0000 
     63 CA        -13.1720   45.7500    9.1310 C.3      12 GLL5        0.0000 
     64 CA        -15.0690   44.7450    5.2660 C.3       8 GLP5        0.0000 
     65 CA        -10.1345   47.7545    9.4700 C.3       4 GLC5        0.0000 
     66 CA        -11.4150   46.4490   10.5510 C.3      12 GLL5        0.0000 
     67 CA         -8.8540   49.0600    8.3890 C.3       8 GLP5        0.0000 
     68 CA         -6.5800   46.9690   10.5865 C.3       4 GLC5        0.0000 
     69 CA         -7.5080   46.9000   12.5180 C.3      12 GLL5        0.0000 
     70 CA         -5.6520   47.0380    8.6550 C.3       8 GLP5        0.0000 
     71 CA         -7.5350   44.9335   13.1370 C.3       4 GLC5        0.0000 
     72 CA         -7.5620   42.9670   13.7560 C.3       8 GLP5        0.0000 
     73 CA         -7.6735   46.6270   14.3685 C.3       4 GLC5        0.0000 
     74 CA         -7.8390   46.3540   16.2190 C.3       8 GLP5        0.0000 
     75 N          -8.7130   45.3880   11.0875 N.am      1 SEC2        0.0000 
     76 N          -8.6600   46.5560   11.8760 N.am      9 SEL2        0.0000 
     77 N          -8.7660   44.2200   10.2990 N.am      5 SEP2        0.0000 
     78 CA        -10.3730   47.7198    8.0663 C.3       4 GLC5        0.0000 
     79 CA        -12.2860   45.3697    6.1807 C.3       4 GLC5        0.0000 
     80 CA        -12.6800   44.3600    4.6180 C.3       8 GLP5        0.0000 
     81 CA        -13.9793   47.9515    9.3515 C.3       4 GLC5        0.0000 
     82 CA        -14.9050   49.7230    8.9520 C.3       8 GLP5        0.0000 
     83 CA         -9.1547   48.6808   10.2133 C.3       4 GLC5        0.0000 
     84 CA         -9.5510   47.6330   11.7880 C.3      12 GLL5        0.0000 
     85 CA         -9.4614   48.1466   14.1717 C.3       4 GLC5        0.0000 
     86 CA         -9.3600   48.9700   12.2870 C.3      12 GLL5        0.0000 
     87 CA         -9.7820   47.9360   16.1450 C.3       8 GLP5        0.0000 
@<TRIPOS>BOND
@<TRIPOS>SUBSTRUCTURE
     1 SEC2        4 GROUP        1 X    SEC  0     ROOT SEC X 2
     2 LYC4        1 GROUP        1 X    LYC  0     **** LYC X 4
     3 ZIC7        9 GROUP        1 X    ZIC  0     **** ZIC X 5
     4 GLC5       35 GROUP        1 X    GLC  0     **** GLC X 6
     5 SEP2        6 GROUP        1 Y    SEP  0     ROOT SEP Y 9
     6 LYP4        3 GROUP        1 Y    LYP  0     **** LYP Y 11
     7 ZIP7       11 GROUP        1 Y    ZIP  0     **** ZIP Y 12
     8 GLP5       37 GROUP        1 Y    GLP  0     **** GLP Y 13
     9 SEL2        5 GROUP        1 Z    SEL  0     ROOT SEL Z 16
    10 LYL4        2 GROUP        1 Z    LYL  0     **** LYL Z 18
    11 ZIL7       10 GROUP        1 Z    ZIL  0     **** ZIL Z 19
    12 GLL5       36 GROUP        1 Z    GLL  0     **** GLL Z 20
@<TRIPOS>SET

