#    Name: 2dwp_ACP_1_ligand
#    Modification time : Tue Mar 25 10:25:40 2014

@<TRIPOS>MOLECULE
2dwp_ACP_1_ligand
   45    47     1     0     0
SMALL
NO_CHARGES


@<TRIPOS>ATOM
      1 PG         -6.4670   47.0050    1.7260 P.3       1 ACP700      0.0000 
      2 O1G        -6.0720   45.5850    1.4450 O.co2     1 ACP700      0.0000 
      3 O2G        -7.6410   47.4030    0.8910 O.co2     1 ACP700      0.0000 
      4 O3G        -5.1420   48.2210    1.4900 O.co2     1 ACP700      0.0000 
      5 PB         -7.4810   47.9140    4.3330 P.3       1 ACP700      0.0000 
      6 O1B        -6.3540   48.0870    5.2690 O.co2     1 ACP700      0.0000 
      7 O2B        -7.9550   49.1430    3.6670 O.co2     1 ACP700      0.0000 
      8 C3B        -6.9990   46.8490    3.2720 C.3       1 ACP700      0.0000 
      9 PA        -10.2620   47.6740    5.2940 P.3       1 ACP700      0.0000 
     10 O1A       -10.6540   49.0600    5.6320 O.co2     1 ACP700      0.0000 
     11 O2A       -10.6750   47.0270    4.0370 O.co2     1 ACP700      0.0000 
     12 O3A        -8.5910   47.4210    5.3280 O.3       1 ACP700      0.0000 
     13 O5'       -10.6290   46.8270    6.5870 O.3       1 ACP700      0.0000 
     14 C5'       -11.9200   46.8530    7.1410 C.3       1 ACP700      0.0000 
     15 C4'       -11.8640   45.9060    8.3460 C.3       1 ACP700      0.0000 
     16 O4'       -10.8970   46.3350    9.2630 O.3       1 ACP700      0.0000 
     17 C3'       -13.1720   45.7500    9.1310 C.3       1 ACP700      0.0000 
     18 O3'       -13.3120   44.3870    9.4960 O.3       1 ACP700      0.0000 
     19 C2'       -12.9350   46.6100   10.3710 C.3       1 ACP700      0.0000 
     20 O2'       -13.7200   46.2590   11.5250 O.3       1 ACP700      0.0000 
     21 C1'       -11.4150   46.4490   10.5510 C.3       1 ACP700      0.0000 
     22 N9        -10.7870   47.6320   11.2020 N.pl3     1 ACP700      0.0000 
     23 C8        -11.2210   48.9320   11.4000 C.2       1 ACP700      0.0000 
     24 N7        -10.4310   49.7890   12.0280 N.2       1 ACP700      0.0000 
     25 C5         -9.3600   48.9700   12.2870 C.ar      1 ACP700      0.0000 
     26 C6         -8.1010   49.1930   12.9310 C.ar      1 ACP700      0.0000 
     27 N6         -7.7710   50.4900   13.4800 N.pl3     1 ACP700      0.0000 
     28 N1         -7.2050   48.1460   13.0380 N.ar      1 ACP700      0.0000 
     29 C2         -7.5080   46.9000   12.5180 C.ar      1 ACP700      0.0000 
     30 N3         -8.6600   46.5560   11.8760 N.ar      1 ACP700      0.0000 
     31 C4         -9.5510   47.6330   11.7880 C.ar      1 ACP700      0.0000 
     32 H          -6.1768   46.1947    3.8003 H         1 ACP700      0.0000 
     33 H          -7.8398   46.0288    3.2113 H         1 ACP700      0.0000 
     34 H         -12.6755   46.4779    6.4647 H         1 ACP700      0.0000 
     35 H         -12.2014   47.8310    7.5061 H         1 ACP700      0.0000 
     36 H         -11.5954   44.9034    7.9735 H         1 ACP700      0.0000 
     37 H         -13.9515   46.1443    8.5731 H         1 ACP700      0.0000 
     38 H         -13.0851   47.6456   10.0538 H         1 ACP700      0.0000 
     39 H         -11.2398   45.5684   11.1267 H         1 ACP700      0.0000 
     40 H         -12.1572   49.2034   11.0504 H         1 ACP700      0.0000 
     41 H          -8.4531   51.2095   13.3496 H         1 ACP700      0.0000 
     42 H          -6.8881   50.5595   13.9444 H         1 ACP700      0.0000 
     43 H          -6.7582   46.1359   12.6357 H         1 ACP700      0.0000 
     44 H         -13.7218   44.4042   10.4080 H         1 ACP700      0.0000 
     45 H         -13.0624   46.1956   12.2757 H         1 ACP700      0.0000 
@<TRIPOS>BOND
     1    2    1 ar   
     2    3    1 ar   
     3    4    1 ar   
     4    8    1 1    
     5    6    5 ar   
     6    7    5 ar   
     7    8    5 1    
     8   12    5 1    
     9   32    8 1    
    10   33    8 1    
    11   10    9 ar   
    12   11    9 ar   
    13   12    9 1    
    14   13    9 1    
    15   14   13 1    
    16   15   14 1    
    17   34   14 1    
    18   35   14 1    
    19   16   15 1    
    20   17   15 1    
    21   36   15 1    
    22   21   16 1    
    23   18   17 1    
    24   19   17 1    
    25   37   17 1    
    26   44   18 1    
    27   20   19 1    
    28   21   19 1    
    29   38   19 1    
    30   45   20 1    
    31   22   21 1    
    32   39   21 1    
    33   23   22 1    
    34   31   22 1    
    35   24   23 2    
    36   40   23 1    
    37   25   24 1    
    38   26   25 ar   
    39   31   25 ar   
    40   27   26 1    
    41   28   26 ar   
    42   41   27 1    
    43   42   27 1    
    44   29   28 ar   
    45   30   29 ar   
    46   43   29 1    
    47   31   30 ar   
@<TRIPOS>SUBSTRUCTURE
     1 ACP700      1 GROUP   
@<TRIPOS>SET

