#    Name: 4jlt_8PR_1_INTS_M
#    Modification time : Tue Mar 25 06:02:26 2014

@<TRIPOS>MOLECULE
4jlt_8PR_1_INTS_M
   63     0     6     0     0
SMALL
NO_CHARGES


@<TRIPOS>ATOM
      1 CA        -36.8745   -5.9800   16.2485 C.3       2 GLC5        0.0000 
      2 CA        -36.0230   -4.5930   17.5030 C.3       6 GLL5        0.0000 
      3 CA        -37.7260   -7.3670   14.9940 C.3       4 GLP5        0.0000 
      4 CA        -37.2740   -3.9365   19.1800 C.3       2 GLC5        0.0000 
      5 CA        -38.5250   -3.2800   20.8570 C.3       4 GLP5        0.0000 
      6 CA        -29.4890   -5.2050   20.7640 C.3       2 GLC5        0.0000 
      7 CA        -30.0990   -3.1310   20.7340 C.3       6 GLL5        0.0000 
      8 CA        -28.8790   -7.2790   20.7940 C.3       4 GLP5        0.0000 
      9 CA        -33.8485   -9.5315   19.5185 C.3       2 GLC5        0.0000 
     10 CA        -34.5600   -7.9890   19.7220 C.3       6 GLL5        0.0000 
     11 CA        -33.1370  -11.0740   19.3150 C.3       4 GLP5        0.0000 
     12 CA        -34.2900   -8.9575   18.3475 C.3       2 GLC5        0.0000 
     13 CA        -34.8020   -6.9300   18.6160 C.3       6 GLL5        0.0000 
     14 CA        -33.7780  -10.9850   18.0790 C.3       4 GLP5        0.0000 
     15 CA        -32.5290   -5.4480   22.6205 C.3       2 GLC5        0.0000 
     16 CA        -34.0740   -6.1810   21.3710 C.3       6 GLL5        0.0000 
     17 CA        -30.9840   -4.7150   23.8700 C.3       4 GLP5        0.0000 
     18 CA        -27.0695   -0.1705   23.8255 C.3       2 GLC5        0.0000 
     19 CA        -27.6250   -0.8410   21.7730 C.3       6 GLL5        0.0000 
     20 CA        -26.5140    0.5000   25.8780 C.3       4 GLP5        0.0000 
     21 CA        -25.8335   -0.0045   21.8390 C.3       2 GLC5        0.0000 
     22 CA        -24.0420    0.8320   21.9050 C.3       4 GLP5        0.0000 
     23 CA        -28.9720   -0.0770   23.2445 C.3       2 GLC5        0.0000 
     24 CA        -30.3190    0.6870   24.7160 C.3       4 GLP5        0.0000 
     25 CA        -35.2515   -2.5350   21.4010 C.3       2 GLC5        0.0000 
     26 CA        -33.8440   -3.8130   20.7060 C.3       6 GLL5        0.0000 
     27 CA        -36.6590   -1.2570   22.0960 C.3       4 GLP5        0.0000 
     28 CA        -34.6225   -2.1435   19.4880 C.3       2 GLC5        0.0000 
     29 CA        -35.4010   -0.4740   18.2700 C.3       4 GLP5        0.0000 
     30 CA        -32.4140   -4.2640   22.2880 C.3       2 GLC5        0.0000 
     31 OD1       -34.9690   -8.9810   21.8880 O.co2     1 ASC3        0.0000 
     32 OD1       -34.7620   -7.5080   21.1330 O.co2     5 ASL3        0.0000 
     33 OD1       -35.1760  -10.4540   22.6430 O.co2     3 ASP3        0.0000 
     34 CA        -29.3255   -1.1035   19.3085 C.3       2 GLC5        0.0000 
     35 CA        -29.7870   -0.7600   21.3550 C.3       6 GLL5        0.0000 
     36 CA        -28.8640   -1.4470   17.2620 C.3       4 GLP5        0.0000 
     37 CA        -36.2245   -4.2315   21.2660 C.3       2 GLC5        0.0000 
     38 CA        -34.5620   -5.1250   20.3410 C.3       6 GLL5        0.0000 
     39 CA        -37.8870   -3.3380   22.1910 C.3       4 GLP5        0.0000 
     40 CA        -35.5675   -1.5165   16.8107 C.3       2 GLC5        0.0000 
     41 CA        -35.9310   -2.1490   14.8610 C.3       6 GLL5        0.0000 
     42 CA        -37.0328   -4.7462   15.1060 C.3       2 GLC5        0.0000 
     43 CA        -35.5370   -2.9690   15.8420 C.3       6 GLL5        0.0000 
     44 CA        -38.0540   -6.1270   14.0520 C.3       4 GLP5        0.0000 
     45 CA        -32.0215   -2.8687   16.9870 C.3       2 GLC5        0.0000 
     46 CA        -34.1700   -3.0060   16.1630 C.3       6 GLL5        0.0000 
     47 CA        -30.1020   -2.3160   17.2980 C.3       4 GLP5        0.0000 
     48 CA        -34.3795   -2.5057   13.9066 C.3       2 GLC5        0.0000 
     49 CA        -33.8070   -2.2290   12.0560 C.3       4 GLP5        0.0000 
     50 CA        -32.7957    0.2595   20.1310 C.3       2 GLC5        0.0000 
     51 CA        -32.1570   -1.6200   21.2930 C.3       6 GLL5        0.0000 
     52 CA        -33.9630    1.5990   18.9040 C.3       4 GLP5        0.0000 
     53 CA        -31.4330   -3.5047   22.4592 C.3       2 GLC5        0.0000 
     54 CA        -30.7372    0.6530   19.8665 C.3       2 GLC5        0.0000 
     55 CA        -31.1000   -0.5400   21.4230 C.3       6 GLL5        0.0000 
     56 CA        -31.0310    1.9560   18.3440 C.3       4 GLP5        0.0000 
     57 CA        -30.3442   -3.6775   22.4082 C.3       2 GLC5        0.0000 
     58 CA        -33.2740   -6.4287   17.1052 C.3       2 GLC5        0.0000 
     59 CA        -34.1460   -5.5790   18.9370 C.3       6 GLL5        0.0000 
     60 CA        -32.0740   -6.6030   15.4340 C.3       4 GLP5        0.0000 
     61 CA        -30.0917   -2.4577   19.1310 C.3       2 GLC5        0.0000 
     62 CA        -31.6070   -2.9690   20.8040 C.3       6 GLL5        0.0000 
     63 CA        -35.0499   -2.1936   17.6578 C.3       2 GLC5        0.0000 
@<TRIPOS>BOND
@<TRIPOS>SUBSTRUCTURE
     1 ASC3       31 GROUP        1 X    ASC  0     ROOT ASC X 3
     2 GLC5        1 GROUP        1 X    GLC  0     **** GLC X 6
     3 ASP3       33 GROUP        1 Y    ASP  0     ROOT ASP Y 10
     4 GLP5        3 GROUP        1 Y    GLP  0     **** GLP Y 13
     5 ASL3       32 GROUP        1 Z    ASL  0     ROOT ASL Z 17
     6 GLL5        2 GROUP        1 Z    GLL  0     **** GLL Z 20
@<TRIPOS>SET

