#    Name: 4jlt_8PR_1_ligand
#    Modification time : Tue Mar 25 06:02:26 2014

@<TRIPOS>MOLECULE
4jlt_8PR_1_ligand
   43    46     1     0     0
SMALL
NO_CHARGES


@<TRIPOS>ATOM
      1 FAA       -35.9310   -2.1490   14.8610 F         1 8PR505      0.0000 
      2 CAB       -36.4860   -3.7620   16.4780 C.ar      1 8PR505      0.0000 
      3 CAC       -34.1700   -3.0060   16.1630 C.ar      1 8PR505      0.0000 
      4 CAD       -32.1570   -1.6200   21.2930 C.ar      1 8PR505      0.0000 
      5 CAE       -36.0230   -4.5930   17.5030 C.ar      1 8PR505      0.0000 
      6 CAF       -33.7120   -3.8370   17.1890 C.ar      1 8PR505      0.0000 
      7 CAG       -31.1000   -0.5400   21.4230 C.ar      1 8PR505      0.0000 
      8 CAH       -30.0990   -3.1310   20.7340 C.ar      1 8PR505      0.0000 
      9 CAI       -34.5600   -7.9890   19.7220 C.3       1 8PR505      0.0000 
     10 CAJ       -34.8020   -6.9300   18.6160 C.3       1 8PR505      0.0000 
     11 CAK       -34.0740   -6.1810   21.3710 C.3       1 8PR505      0.0000 
     12 CAL       -27.6250   -0.8410   21.7730 C.3       1 8PR505      0.0000 
     13 CAM       -33.8440   -3.8130   20.7060 C.3       1 8PR505      0.0000 
     14 NAN       -34.7620   -7.5080   21.1330 N.4       1 8PR505      0.0000 
     15 OAO       -32.4610   -4.1110   20.7290 O.3       1 8PR505      0.0000 
     16 OAP       -28.8130   -0.0020   21.6030 O.3       1 8PR505      0.0000 
     17 OAQ       -28.0260   -2.1700   21.3330 O.3       1 8PR505      0.0000 
     18 CAR       -35.5370   -2.9690   15.8420 C.ar      1 8PR505      0.0000 
     19 CAS       -31.6070   -2.9690   20.8040 C.ar      1 8PR505      0.0000 
     20 CAT       -34.6590   -4.6320   17.8400 C.ar      1 8PR505      0.0000 
     21 CAU       -29.7870   -0.7600   21.3550 C.ar      1 8PR505      0.0000 
     22 CAV       -29.3100   -2.1490   21.1590 C.ar      1 8PR505      0.0000 
     23 CAW       -34.5620   -5.1250   20.3410 C.3       1 8PR505      0.0000 
     24 CAX       -34.1460   -5.5790   18.9370 C.3       1 8PR505      0.0000 
     25 H         -37.4548   -3.7416   16.2174 H         1 8PR505      0.0000 
     26 H         -33.5088   -2.4204   15.6411 H         1 8PR505      0.0000 
     27 H         -33.0621   -1.4871   21.4898 H         1 8PR505      0.0000 
     28 H         -36.6886   -5.1862   18.0203 H         1 8PR505      0.0000 
     29 H         -32.7394   -3.8618   17.4485 H         1 8PR505      0.0000 
     30 H         -31.5029    0.4194   21.5749 H         1 8PR505      0.0000 
     31 H         -29.7766   -4.0179   20.3502 H         1 8PR505      0.0000 
     32 H         -33.5263   -8.3737   19.6037 H         1 8PR505      0.0000 
     33 H         -35.2314   -8.8491   19.5217 H         1 8PR505      0.0000 
     34 H         -35.8795   -6.7881   18.4970 H         1 8PR505      0.0000 
     35 H         -34.4003   -7.3106   17.6731 H         1 8PR505      0.0000 
     36 H         -32.9994   -6.2942   21.2642 H         1 8PR505      0.0000 
     37 H         -34.3003   -5.8178   22.3690 H         1 8PR505      0.0000 
     38 H         -27.3267   -0.8596   22.8126 H         1 8PR505      0.0000 
     39 H         -26.8139   -0.4680   21.1622 H         1 8PR505      0.0000 
     40 H         -34.1001   -3.0796   19.9517 H         1 8PR505      0.0000 
     41 H         -34.2178   -3.4934   21.6707 H         1 8PR505      0.0000 
     42 H         -35.5915   -5.0112   20.4172 H         1 8PR505      0.0000 
     43 H         -33.1021   -5.6788   18.8596 H         1 8PR505      0.0000 
@<TRIPOS>BOND
     1   18    1 1    
     2    5    2 ar   
     3   18    2 ar   
     4   25    2 1    
     5    6    3 ar   
     6   18    3 ar   
     7   26    3 1    
     8    7    4 ar   
     9   19    4 ar   
    10   27    4 1    
    11   20    5 ar   
    12   28    5 1    
    13   20    6 ar   
    14   29    6 1    
    15   21    7 ar   
    16   30    7 1    
    17   19    8 ar   
    18   22    8 ar   
    19   31    8 1    
    20   10    9 1    
    21   14    9 1    
    22   32    9 1    
    23   33    9 1    
    24   24   10 1    
    25   34   10 1    
    26   35   10 1    
    27   14   11 1    
    28   23   11 1    
    29   36   11 1    
    30   37   11 1    
    31   16   12 1    
    32   17   12 1    
    33   38   12 1    
    34   39   12 1    
    35   15   13 1    
    36   23   13 1    
    37   40   13 1    
    38   41   13 1    
    39   19   15 1    
    40   21   16 1    
    41   22   17 1    
    42   24   20 1    
    43   22   21 ar   
    44   24   23 1    
    45   42   23 1    
    46   43   24 1    
@<TRIPOS>SUBSTRUCTURE
     1 8PR505      1 GROUP   
@<TRIPOS>SET

