#    Name: 4m8e_29V_1_INTS_M
#    Modification time : Tue Mar 25 11:57:01 2014

@<TRIPOS>MOLECULE
4m8e_29V_1_INTS_M
   86     0     9     0     0
SMALL
NO_CHARGES


@<TRIPOS>ATOM
      1 CA         64.4940   48.2210   36.6540 C.3       3 GLC5        0.0000 
      2 CA         64.8980   48.6700   35.0270 C.3       9 GLL5        0.0000 
      3 CA         64.0900   47.7720   38.2810 C.3       6 GLP5        0.0000 
      4 CA         64.7650   50.6965   35.3380 C.3       3 GLC5        0.0000 
      5 CA         64.6320   52.7230   35.6490 C.3       6 GLP5        0.0000 
      6 CA         63.5875   50.6635   30.3300 C.3       3 GLC5        0.0000 
      7 CA         64.0470   48.8560   31.2520 C.3       9 GLL5        0.0000 
      8 CA         63.1280   52.4710   29.4080 C.3       6 GLP5        0.0000 
      9 CA         68.3340   46.2105   35.3720 C.3       3 GLC5        0.0000 
     10 CA         66.8630   46.9600   33.9590 C.3       9 GLL5        0.0000 
     11 CA         69.8050   45.4610   36.7850 C.3       6 GLP5        0.0000 
     12 CA         70.0425   46.5645   31.5980 C.3       3 GLC5        0.0000 
     13 CA         68.2370   46.2280   32.1220 C.3       9 GLL5        0.0000 
     14 CA         71.8480   46.9010   31.0740 C.3       6 GLP5        0.0000 
     15 CA         69.3065   45.5140   34.6250 C.3       3 GLC5        0.0000 
     16 CA         68.0130   46.3500   33.4850 C.3       9 GLL5        0.0000 
     17 CA         70.6000   44.6780   35.7650 C.3       6 GLP5        0.0000 
     18 CA         67.6310   45.6165   29.3520 C.3       3 GLC5        0.0000 
     19 CA         67.2860   46.7120   31.2200 C.3       9 GLL5        0.0000 
     20 CA         67.9760   44.5210   27.4840 C.3       6 GLP5        0.0000 
     21 CA         64.6605   48.6720   25.5535 C.3       3 GLC5        0.0000 
     22 CA         65.3470   49.0570   27.2500 C.3       9 GLL5        0.0000 
     23 CA         63.9740   48.2870   23.8570 C.3       6 GLP5        0.0000 
     24 CA         65.3595   50.5320   25.8875 C.3       3 GLC5        0.0000 
     25 CA         65.3720   52.0070   24.5250 C.3       6 GLP5        0.0000 
     26 CA         64.9610   50.9955   28.2410 C.3       3 GLC5        0.0000 
     27 CA         64.5750   52.9340   29.2320 C.3       6 GLP5        0.0000 
     28 CA         63.6045   48.2065   26.0195 C.3       3 GLC5        0.0000 
     29 CA         63.2350   48.1260   28.1820 C.3       9 GLL5        0.0000 
     30 CA         62.9420   45.9550   30.2455 C.3       3 GLC5        0.0000 
     31 CA         62.2730   47.4180   29.0490 C.3       9 GLL5        0.0000 
     32 CA         63.6110   44.4920   31.4420 C.3       6 GLP5        0.0000 
     33 CA         60.3100   48.9410   27.3300 C.3       3 GLC5        0.0000 
     34 CA         60.9340   47.4980   28.6370 C.3       9 GLL5        0.0000 
     35 CA         59.6860   50.3840   26.0230 C.3       6 GLP5        0.0000 
     36 CA         61.8125   45.1975   30.9505 C.3       3 GLC5        0.0000 
     37 CA         60.0140   45.9030   30.4590 C.3       9 GLL5        0.0000 
     38 CA         59.2715   45.4375   32.1790 C.3       3 GLC5        0.0000 
     39 CA         58.5290   44.9720   33.8990 C.3       6 GLP5        0.0000 
     40 CA         56.9815   46.7190   27.6055 C.3       3 GLC5        0.0000 
     41 CA         58.5140   47.2600   28.8950 C.3       9 GLL5        0.0000 
     42 CA         55.4490   46.1780   26.3160 C.3       6 GLP5        0.0000 
     43 CA         59.1000   48.8220   27.4590 C.3       3 GLC5        0.0000 
     44 NZ         54.7350   47.9580   29.6680 N.4       2 LYC4        0.0000 
     45 NZ         56.2740   47.4340   29.4810 N.4       8 LYL4        0.0000 
     46 NZ         53.1760   48.3450   31.1760 N.4       5 LYP4        0.0000 
     47 N          55.2435   47.6075   30.6360 N.am      1 SEC2        0.0000 
     48 N          56.2740   47.4340   29.4810 N.am      7 SEL2        0.0000 
     49 N          54.2130   47.7810   31.7910 N.am      4 SEP2        0.0000 
     50 N          54.7350   47.9580   29.6680 N.am      1 SEC2        0.0000 
     51 N          53.1960   48.4820   29.8550 N.am      4 SEP2        0.0000 
     52 N          55.8920   45.1170   30.6535 N.am      1 SEC2        0.0000 
     53 N          57.3550   45.6010   30.0510 N.am      7 SEL2        0.0000 
     54 N          54.4290   44.6330   31.2560 N.am      4 SEP2        0.0000 
     55 CA         64.3126   46.2760   30.8315 C.3       3 GLC5        0.0000 
     56 CA         65.1615   45.7560   31.4535 C.3       3 GLC5        0.0000 
     57 CA         66.1380   47.3280   31.7100 C.3       9 GLL5        0.0000 
     58 CA         68.4920   48.0495   34.7545 C.3       3 GLC5        0.0000 
     59 CA         69.5460   49.4440   35.7870 C.3       6 GLP5        0.0000 
     60 CA         64.7484   45.9644   34.0635 C.3       3 GLC5        0.0000 
     61 CA         65.9080   47.4650   33.0630 C.3       9 GLL5        0.0000 
     62 CA         63.9790   44.2430   34.5680 C.3       6 GLP5        0.0000 
     63 CA         62.8136   49.6524   32.6330 C.3       3 GLC5        0.0000 
     64 CA         64.6500   48.1590   33.6070 C.3       9 GLL5        0.0000 
     65 CA         61.2300   50.6810   32.4740 C.3       6 GLP5        0.0000 
     66 CA         65.7871   49.8024   32.0595 C.3       3 GLC5        0.0000 
     67 CA         64.2420   49.3210   32.7020 C.3       9 GLL5        0.0000 
     68 CA         67.1770   50.9810   31.3270 C.3       6 GLP5        0.0000 
     69 CA         66.5511   49.2456   31.3103 C.3       3 GLC5        0.0000 
     70 CA         65.1960   47.9660   30.7840 C.3       9 GLL5        0.0000 
     71 CA         66.5517   49.6311   28.8855 C.3       3 GLC5        0.0000 
     72 CA         65.4070   47.7090   29.4240 C.3       9 GLL5        0.0000 
     73 CA         67.9290   50.7420   29.7070 C.3       6 GLP5        0.0000 
     74 CA         66.3992   47.5251   27.0635 C.3       3 GLC5        0.0000 
     75 CA         67.6240   46.5300   26.0630 C.3       6 GLP5        0.0000 
     76 CA         61.1522   48.8625   30.0485 C.3       3 GLC5        0.0000 
     77 CA         60.7010   50.2670   31.2540 C.3       6 GLP5        0.0000 
     78 CA         61.8175   46.2390   27.4686 C.3       3 GLC5        0.0000 
     79 CA         61.7910   44.8430   26.3110 C.3       6 GLP5        0.0000 
     80 CA         59.0640   44.5810   29.8238 C.3       3 GLC5        0.0000 
     81 CA         59.8140   46.9090   29.3240 C.3       9 GLL5        0.0000 
     82 CA         58.2140   42.7560   29.7560 C.3       6 GLP5        0.0000 
     83 CA         59.7395   45.7802   27.6307 C.3       3 GLC5        0.0000 
     84 CA         60.3150   44.4760   26.1520 C.3       6 GLP5        0.0000 
     85 CA         59.2790   48.4145   30.2661 C.3       3 GLC5        0.0000 
     86 CA         59.3440   49.9960   31.1390 C.3       6 GLP5        0.0000 
@<TRIPOS>BOND
@<TRIPOS>SUBSTRUCTURE
     1 SEC2       47 GROUP        1 X    SEC  0     ROOT SEC X 2
     2 LYC4       44 GROUP        1 X    LYC  0     **** LYC X 4
     3 GLC5        1 GROUP        1 X    GLC  0     **** GLC X 6
     4 SEP2       49 GROUP        1 Y    SEP  0     ROOT SEP Y 9
     5 LYP4       46 GROUP        1 Y    LYP  0     **** LYP Y 11
     6 GLP5        3 GROUP        1 Y    GLP  0     **** GLP Y 13
     7 SEL2       48 GROUP        1 Z    SEL  0     ROOT SEL Z 16
     8 LYL4       45 GROUP        1 Z    LYL  0     **** LYL Z 18
     9 GLL5        2 GROUP        1 Z    GLL  0     **** GLL Z 20
@<TRIPOS>SET

