#    Name: 4m8e_29V_1_ligand
#    Modification time : Tue Mar 25 11:57:01 2014

@<TRIPOS>MOLECULE
4m8e_29V_1_ligand
   48    49     1     0     0
SMALL
NO_CHARGES


@<TRIPOS>ATOM
      1 C4'        64.8980   48.6700   35.0270 C.3       1 29V500      0.0000 
      2 C1'        64.2420   49.3210   32.7020 C.3       1 29V500      0.0000 
      3 C2'        64.0470   48.8560   31.2520 C.3       1 29V500      0.0000 
      4 C8         65.4070   47.7090   29.4240 C.2       1 29V500      0.0000 
      5 C5         65.9080   47.4650   33.0630 C.ar      1 29V500      0.0000 
      6 C6         66.1380   47.3280   31.7100 C.ar      1 29V500      0.0000 
      7 C4         66.8630   46.9600   33.9590 C.ar      1 29V500      0.0000 
      8 C2         68.2370   46.2280   32.1220 C.ar      1 29V500      0.0000 
      9 C18        64.6500   48.1590   33.6070 C.3       1 29V500      0.0000 
     10 C3         68.0130   46.3500   33.4850 C.ar      1 29V500      0.0000 
     11 C1         67.2860   46.7120   31.2200 C.ar      1 29V500      0.0000 
     12 C7         65.1960   47.9660   30.7840 C.2       1 29V500      0.0000 
     13 C9         64.5970   48.2580   28.3320 C.2       1 29V500      0.0000 
     14 C19        65.3470   49.0570   27.2500 C.3       1 29V500      0.0000 
     15 C10        63.2350   48.1260   28.1820 C.2       1 29V500      0.0000 
     16 C11        62.2730   47.4180   29.0490 C.3       1 29V500      0.0000 
     17 C12        60.9340   47.4980   28.6370 C.2       1 29V500      0.0000 
     18 C13        59.8140   46.9090   29.3240 C.2       1 29V500      0.0000 
     19 C20        60.0140   45.9030   30.4590 C.3       1 29V500      0.0000 
     20 C14        58.5140   47.2600   28.8950 C.3       1 29V500      0.0000 
     21 C15        57.3190   46.7280   29.5270 C.2       1 29V500      0.0000 
     22 O1         56.2740   47.4340   29.4810 O.co2     1 29V500      0.0000 
     23 O2         57.3550   45.6010   30.0510 O.co2     1 29V500      0.0000 
     24 H          63.3093   49.7513   33.0660 H         1 29V500      0.0000 
     25 H          65.0160   50.0878   32.7286 H         1 29V500      0.0000 
     26 H          63.9819   49.7323   30.6037 H         1 29V500      0.0000 
     27 H          63.1087   48.3021   31.1798 H         1 29V500      0.0000 
     28 H          66.1973   47.0797   29.1381 H         1 29V500      0.0000 
     29 H          66.7008   47.0472   34.9717 H         1 29V500      0.0000 
     30 H          69.0938   45.7861   31.7734 H         1 29V500      0.0000 
     31 H          63.8451   47.4416   33.6346 H         1 29V500      0.0000 
     32 H          68.7111   45.9821   34.1533 H         1 29V500      0.0000 
     33 H          67.4336   46.6139   30.2144 H         1 29V500      0.0000 
     34 H          62.7729   48.5924   27.3221 H         1 29V500      0.0000 
     35 H          62.3937   47.8138   30.0967 H         1 29V500      0.0000 
     36 H          62.6035   46.3441   29.1294 H         1 29V500      0.0000 
     37 H          60.7147   48.0314   27.7512 H         1 29V500      0.0000 
     38 H          58.4254   47.0551   27.7560 H         1 29V500      0.0000 
     39 H          58.4188   48.4168   28.8899 H         1 29V500      0.0000 
     40 H          65.1671   47.9318   35.6456 H         1 29V500      0.0000 
     41 H          65.6263   49.3547   35.0534 H         1 29V500      0.0000 
     42 H          64.0812   49.0957   35.4164 H         1 29V500      0.0000 
     43 H          65.8135   49.8541   27.6334 H         1 29V500      0.0000 
     44 H          66.0423   48.5019   26.7935 H         1 29V500      0.0000 
     45 H          64.7278   49.3931   26.5403 H         1 29V500      0.0000 
     46 H          60.5119   45.0917   30.1527 H         1 29V500      0.0000 
     47 H          60.5336   46.2969   31.2172 H         1 29V500      0.0000 
     48 H          59.1421   45.5877   30.8338 H         1 29V500      0.0000 
@<TRIPOS>BOND
     1    9    1 1    
     2   40    1 1    
     3   41    1 1    
     4   42    1 1    
     5    3    2 1    
     6    9    2 1    
     7   24    2 1    
     8   25    2 1    
     9   12    3 1    
    10   26    3 1    
    11   27    3 1    
    12   12    4 2    
    13   13    4 1    
    14   28    4 1    
    15    6    5 ar   
    16    7    5 ar   
    17    9    5 1    
    18   11    6 ar   
    19   12    6 1    
    20   10    7 ar   
    21   29    7 1    
    22   10    8 ar   
    23   11    8 ar   
    24   30    8 1    
    25   31    9 1    
    26   32   10 1    
    27   33   11 1    
    28   14   13 1    
    29   15   13 2    
    30   43   14 1    
    31   44   14 1    
    32   45   14 1    
    33   16   15 1    
    34   34   15 1    
    35   17   16 1    
    36   35   16 1    
    37   36   16 1    
    38   18   17 2    
    39   37   17 1    
    40   19   18 1    
    41   20   18 1    
    42   46   19 1    
    43   47   19 1    
    44   48   19 1    
    45   21   20 1    
    46   38   20 1    
    47   39   20 1    
    48   22   21 ar   
    49   23   21 ar   
@<TRIPOS>SUBSTRUCTURE
     1 29V500      1 GROUP   
@<TRIPOS>SET

