#    Name: 4o6r_AMP_4_INTS_M
#    Modification time : Tue Mar 25 13:31:59 2014

@<TRIPOS>MOLECULE
4o6r_AMP_4_INTS_M
   53     0     9     0     0
SMALL
NO_CHARGES


@<TRIPOS>ATOM
      1 N          54.9665  128.1720   48.9265 N.am      2 SEC2        0.0000 
      2 N          54.7250  127.3180   50.1690 N.am      8 SEL2        0.0000 
      3 N          55.2080  129.0260   47.6840 N.am      5 SEP2        0.0000 
      4 N          56.3760  125.2160   48.2075 N.am      2 SEC2        0.0000 
      5 N          56.5340  126.2460   48.8790 N.am      8 SEL2        0.0000 
      6 N          56.2180  124.1860   47.5360 N.am      5 SEP2        0.0000 
      7 N          55.3170  126.2425   47.8195 N.am      2 SEC2        0.0000 
      8 N          54.1000  126.2390   46.7600 N.am      5 SEP2        0.0000 
      9 N          55.8710  127.6360   48.2815 N.am      2 SEC2        0.0000 
     10 N          55.9030  124.5580   49.1470 N.am      2 SEC2        0.0000 
     11 N          55.5880  124.9300   50.7580 N.am      8 SEL2        0.0000 
     12 CA         58.3485  124.4020   52.8570 C.3       3 GLC5        0.0000 
     13 CA         57.7840  126.1130   52.0450 C.3       9 GLL5        0.0000 
     14 CA         58.9130  122.6910   53.6690 C.3       6 GLP5        0.0000 
     15 CA         57.9365  124.7680   50.4505 C.3       3 GLC5        0.0000 
     16 CA         58.0890  123.4230   48.8560 C.3       6 GLP5        0.0000 
     17 N          59.8350  129.8940   55.8055 N.am      2 SEC2        0.0000 
     18 N          58.8550  129.5700   55.1240 N.am      8 SEL2        0.0000 
     19 N          60.8150  130.2180   56.4870 N.am      5 SEP2        0.0000 
     20 O          58.3550  129.8250   56.7040 O.2       1 ALC1        0.0000 
     21 O          58.8550  129.5700   55.1240 O.2       7 ALL1        0.0000 
     22 O          57.8550  130.0800   58.2840 O.2       4 ALP1        0.0000 
     23 CA         60.7745  128.9490   52.4695 C.3       3 GLC5        0.0000 
     24 CA         59.0810  129.2490   52.7690 C.3       9 GLL5        0.0000 
     25 CA         62.4680  128.6490   52.1700 C.3       6 GLP5        0.0000 
     26 CA         59.6015  128.3825   50.8915 C.3       3 GLC5        0.0000 
     27 CA         60.1220  127.5160   49.0140 C.3       6 GLP5        0.0000 
     28 CA         62.1980  131.7785   50.4175 C.3       3 GLC5        0.0000 
     29 CA         60.5040  132.6190   50.2010 C.3       9 GLL5        0.0000 
     30 CA         63.8920  130.9380   50.6340 C.3       6 GLP5        0.0000 
     31 CA         59.5095  132.9105   52.1230 C.3       3 GLC5        0.0000 
     32 CA         58.5150  133.2020   54.0450 C.3       6 GLP5        0.0000 
     33 CA         61.5150  133.2655   51.5550 C.3       3 GLC5        0.0000 
     34 CA         62.5260  133.9120   52.9090 C.3       6 GLP5        0.0000 
     35 CA         61.1760  134.6180   50.2550 C.3       3 GLC5        0.0000 
     36 CA         61.8480  136.6170   50.3090 C.3       6 GLP5        0.0000 
     37 CA         61.4070  131.7455   48.5620 C.3       3 GLC5        0.0000 
     38 CA         62.3100  130.8720   46.9230 C.3       6 GLP5        0.0000 
     39 CA         60.7045  129.9245   51.7015 C.3       3 GLC5        0.0000 
     40 CA         58.9410  131.2000   51.2330 C.3       9 GLL5        0.0000 
     41 CA         59.2468  127.0035   50.6932 C.3       3 GLC5        0.0000 
     42 CA         58.9590  126.8690   52.7000 C.3       9 GLL5        0.0000 
     43 CA         60.6450  127.8752   52.7888 C.3       3 GLC5        0.0000 
     44 CA         59.2500  125.2548   54.0808 C.3       3 GLC5        0.0000 
     45 CA         59.6780  123.4080   54.7540 C.3       6 GLP5        0.0000 
     46 CA         60.3185  129.9572   54.5567 C.3       3 GLC5        0.0000 
     47 CA         58.3550  128.8160   54.0160 C.3       9 GLL5        0.0000 
     48 CA         61.9190  130.8820   55.7210 C.3       6 GLP5        0.0000 
     49 CA         58.6165  131.1173   53.7188 C.3       3 GLC5        0.0000 
     50 CA         58.5108  132.5283   52.3637 C.3       3 GLC5        0.0000 
     51 CA         57.8670  131.9440   50.5660 C.3       9 GLL5        0.0000 
     52 CA         58.0102  130.7303   49.2327 C.3       3 GLC5        0.0000 
     53 CA         57.5140  129.6060   47.7830 C.3       6 GLP5        0.0000 
@<TRIPOS>BOND
@<TRIPOS>SUBSTRUCTURE
     1 ALC1       20 GROUP        1 X    ALC  0     ROOT ALC X 1
     2 SEC2        1 GROUP        1 X    SEC  0     **** SEC X 2
     3 GLC5       12 GROUP        1 X    GLC  0     **** GLC X 6
     4 ALP1       22 GROUP        1 Y    ALP  0     ROOT ALP Y 8
     5 SEP2        3 GROUP        1 Y    SEP  0     **** SEP Y 9
     6 GLP5       14 GROUP        1 Y    GLP  0     **** GLP Y 13
     7 ALL1       21 GROUP        1 Z    ALL  0     ROOT ALL Z 15
     8 SEL2        2 GROUP        1 Z    SEL  0     **** SEL Z 16
     9 GLL5       13 GROUP        1 Z    GLL  0     **** GLL Z 20
@<TRIPOS>SET

