#    Name: 4o6r_AMP_4_ligand
#    Modification time : Tue Mar 25 13:31:59 2014

@<TRIPOS>MOLECULE
4o6r_AMP_4_ligand
   35    37     1     0     0
SMALL
NO_CHARGES


@<TRIPOS>ATOM
      1 P          55.8440  126.3040   50.1920 P.3       1 AMP502      0.0000 
      2 O1P        54.7250  127.3180   50.1690 O.co2     1 AMP502      0.0000 
      3 O2P        56.5340  126.2460   48.8790 O.co2     1 AMP502      0.0000 
      4 O3P        55.5880  124.9300   50.7580 O.co2     1 AMP502      0.0000 
      5 O5'        56.9250  126.9500   51.2410 O.3       1 AMP502      0.0000 
      6 C5'        57.7840  126.1130   52.0450 C.3       1 AMP502      0.0000 
      7 C4'        58.9590  126.8690   52.7000 C.3       1 AMP502      0.0000 
      8 O4'        59.2550  128.0640   52.0020 O.3       1 AMP502      0.0000 
      9 C3'        58.6850  127.3340   54.1150 C.3       1 AMP502      0.0000 
     10 O3'        59.8520  127.1480   54.9240 O.3       1 AMP502      0.0000 
     11 C2'        58.3550  128.8160   54.0160 C.3       1 AMP502      0.0000 
     12 O2'        58.8550  129.5700   55.1240 O.3       1 AMP502      0.0000 
     13 C1'        59.0810  129.2490   52.7690 C.3       1 AMP502      0.0000 
     14 N9         58.3490  130.2430   51.9510 N.pl3     1 AMP502      0.0000 
     15 C8         57.0160  130.3280   51.7930 C.2       1 AMP502      0.0000 
     16 N7         56.7090  131.3590   50.9570 N.2       1 AMP502      0.0000 
     17 C5         57.8670  131.9440   50.5660 C.ar      1 AMP502      0.0000 
     18 C6         58.2770  133.0740   49.6980 C.ar      1 AMP502      0.0000 
     19 N6         57.3640  133.8210   49.0430 N.pl3     1 AMP502      0.0000 
     20 N1         59.5780  133.3490   49.5630 N.ar      1 AMP502      0.0000 
     21 C2         60.5040  132.6190   50.2010 C.ar      1 AMP502      0.0000 
     22 N3         60.2160  131.6000   51.0190 N.ar      1 AMP502      0.0000 
     23 C4         58.9410  131.2000   51.2330 C.ar      1 AMP502      0.0000 
     24 H          58.2195  125.2894   51.4409 H         1 AMP502      0.0000 
     25 H          57.2138  125.6218   52.8614 H         1 AMP502      0.0000 
     26 H          59.8250  126.2234   52.7226 H         1 AMP502      0.0000 
     27 H          57.8369  126.8198   54.4894 H         1 AMP502      0.0000 
     28 H          57.3175  128.9284   53.8556 H         1 AMP502      0.0000 
     29 H          60.0464  129.6408   53.0549 H         1 AMP502      0.0000 
     30 H          56.3581  129.7427   52.2109 H         1 AMP502      0.0000 
     31 H          57.7258  134.5622   48.4776 H         1 AMP502      0.0000 
     32 H          56.4067  133.5670   49.1812 H         1 AMP502      0.0000 
     33 H          61.5349  132.8669   50.0461 H         1 AMP502      0.0000 
     34 H          59.9228  127.9817   55.4716 H         1 AMP502      0.0000 
     35 H          58.0460  129.8066   55.6621 H         1 AMP502      0.0000 
@<TRIPOS>BOND
     1    2    1 ar   
     2    3    1 ar   
     3    4    1 ar   
     4    5    1 1    
     5    6    5 1    
     6    7    6 1    
     7   24    6 1    
     8   25    6 1    
     9    8    7 1    
    10    9    7 1    
    11   26    7 1    
    12   13    8 1    
    13   10    9 1    
    14   11    9 1    
    15   27    9 1    
    16   34   10 1    
    17   12   11 1    
    18   13   11 1    
    19   28   11 1    
    20   35   12 1    
    21   14   13 1    
    22   29   13 1    
    23   15   14 1    
    24   23   14 1    
    25   16   15 2    
    26   30   15 1    
    27   17   16 1    
    28   18   17 ar   
    29   23   17 ar   
    30   19   18 1    
    31   20   18 ar   
    32   31   19 1    
    33   32   19 1    
    34   21   20 ar   
    35   22   21 ar   
    36   33   21 1    
    37   23   22 ar   
@<TRIPOS>SUBSTRUCTURE
     1 AMP502      1 GROUP   
@<TRIPOS>SET

