#    Name: 1fm4_DXC_1_INTS_M
#    Modification time : Tue Mar 25 01:29:14 2014

@<TRIPOS>MOLECULE
1fm4_DXC_1_INTS_M
   66     0     9     0     0
SMALL
NO_CHARGES


@<TRIPOS>ATOM
      1 CA         12.2730    4.7350   21.8670 C.3       3 GLC5        0.0000 
      2 CA         10.3170    5.2560   22.2360 C.3       9 GLL5        0.0000 
      3 CA         14.2290    4.2140   21.4980 C.3       6 GLP5        0.0000 
      4 CA         11.5595    2.9710   21.3425 C.3       3 GLC5        0.0000 
      5 CA          9.9570    3.8300   21.8070 C.3       9 GLL5        0.0000 
      6 CA         13.1620    2.1120   20.8780 C.3       6 GLP5        0.0000 
      7 CA         10.0690    6.7625   19.3335 C.3       3 GLC5        0.0000 
      8 CA          8.6580    6.1560   20.5680 C.3       9 GLL5        0.0000 
      9 CA         11.4800    7.3690   18.0990 C.3       6 GLP5        0.0000 
     10 CA          2.5865   -1.0095   21.4825 C.3       3 GLC5        0.0000 
     11 CA          3.4660    0.7390   21.0260 C.3       9 GLL5        0.0000 
     12 CA          1.7070   -2.7580   21.9390 C.3       6 GLP5        0.0000 
     13 CA          2.3725    0.2525   19.4365 C.3       3 GLC5        0.0000 
     14 CA          1.2790   -0.2340   17.8470 C.3       6 GLP5        0.0000 
     15 CA          6.4725    5.5040   17.2505 C.3       3 GLC5        0.0000 
     16 CA          7.9550    4.9190   18.5210 C.3       9 GLL5        0.0000 
     17 CA          4.9900    6.0890   15.9800 C.3       6 GLP5        0.0000 
     18 CA          8.4780    6.3385   17.1320 C.3       3 GLC5        0.0000 
     19 CA          9.0010    7.7580   15.7430 C.3       6 GLP5        0.0000 
     20 N          10.6850    4.9165   25.0630 N.am      2 SEC2        0.0000 
     21 N          10.7150    5.2600   23.6020 N.am      8 SEL2        0.0000 
     22 N          10.6550    4.5730   26.5240 N.am      5 SEP2        0.0000 
     23 O          11.8270    4.5500   24.3710 O.2       1 ALC1        0.0000 
     24 O          10.7150    5.2600   23.6020 O.2       7 ALL1        0.0000 
     25 O          12.9390    3.8400   25.1400 O.2       4 ALP1        0.0000 
     26 CA          2.5330    1.4645   18.5155 C.3       3 GLC5        0.0000 
     27 CA          3.7870    3.1630   19.1840 C.3       9 GLL5        0.0000 
     28 CA          4.1265    3.9055   17.5350 C.3       3 GLC5        0.0000 
     29 CA          4.4660    4.6480   15.8860 C.3       6 GLP5        0.0000 
     30 CA          1.2310   -0.6035   22.1175 C.3       3 GLC5        0.0000 
     31 CA          0.7550    1.5510   22.2960 C.3       9 GLL5        0.0000 
     32 CA          2.6770    0.3740   23.9700 C.3       3 GLC5        0.0000 
     33 CA          0.9530    1.6280   23.8080 C.3       9 GLL5        0.0000 
     34 CA          4.4010   -0.8800   24.1320 C.3       6 GLP5        0.0000 
     35 N          -1.8985   -0.2080   24.7685 N.am      2 SEC2        0.0000 
     36 N          -0.9760    0.2100   24.0080 N.am      8 SEL2        0.0000 
     37 N          -2.8210   -0.6260   25.5290 N.am      5 SEP2        0.0000 
     38 N           0.2715   -0.8940   26.2215 N.am      2 SEC2        0.0000 
     39 N           0.1910    0.6660   25.7770 N.am      8 SEL2        0.0000 
     40 N           0.3520   -2.4540   26.6660 N.am      5 SEP2        0.0000 
     41 N          -1.3150    0.0200   25.6530 N.am      2 SEC2        0.0000 
     42 CA         -0.3000    5.0710   21.9970 C.3       3 GLC5        0.0000 
     43 CA          1.1560    3.9380   21.7610 C.3       9 GLL5        0.0000 
     44 CA         -1.7560    6.2040   22.2330 C.3       6 GLP5        0.0000 
     45 CA          0.5050    4.8080   19.8720 C.3       3 GLC5        0.0000 
     46 CA         -0.1460    5.6780   17.9830 C.3       6 GLP5        0.0000 
     47 CA         11.2190    7.0060   22.1917 C.3       3 GLC5        0.0000 
     48 CA          9.0370    6.2160   22.0430 C.3       9 GLL5        0.0000 
     49 CA         12.7610    8.2760   22.2440 C.3       6 GLP5        0.0000 
     50 CA          9.8210    6.8855   23.8113 C.3       3 GLC5        0.0000 
     51 CA          9.9650    8.0350   25.4830 C.3       6 GLP5        0.0000 
     52 CA          8.9905    3.7530   23.5857 C.3       3 GLC5        0.0000 
     53 CA          7.8440    2.9630   25.1500 C.3       6 GLP5        0.0000 
     54 CA         11.1045    2.8673   19.8175 C.3       3 GLC5        0.0000 
     55 CA          9.5160    3.8130   20.2750 C.3       9 GLL5        0.0000 
     56 CA         12.8590    2.6320   19.6200 C.3       6 GLP5        0.0000 
     57 CA          9.5307    0.4965   20.7235 C.3       3 GLC5        0.0000 
     58 CA          9.1840    2.3920   19.7550 C.3       9 GLL5        0.0000 
     59 CA         10.5110   -1.1130   21.3320 C.3       6 GLP5        0.0000 
     60 CA          4.5695    6.6333   20.3438 C.3       3 GLC5        0.0000 
     61 CA          5.7220    5.0860   20.6100 C.3       9 GLL5        0.0000 
     62 CA          4.0410    8.4770   19.7130 C.3       6 GLP5        0.0000 
     63 CA          4.2622   -0.7880   19.7375 C.3       3 GLC5        0.0000 
     64 CA          4.3190   -2.3250   18.6860 C.3       6 GLP5        0.0000 
     65 CA          4.0346    0.2955   22.6448 C.3       3 GLC5        0.0000 
     66 CA          4.9450    0.7590   20.5520 C.3       9 GLL5        0.0000 
@<TRIPOS>BOND
@<TRIPOS>SUBSTRUCTURE
     1 ALC1       23 GROUP        1 X    ALC  0     ROOT ALC X 1
     2 SEC2       20 GROUP        1 X    SEC  0     **** SEC X 2
     3 GLC5        1 GROUP        1 X    GLC  0     **** GLC X 6
     4 ALP1       25 GROUP        1 Y    ALP  0     ROOT ALP Y 8
     5 SEP2       22 GROUP        1 Y    SEP  0     **** SEP Y 9
     6 GLP5        3 GROUP        1 Y    GLP  0     **** GLP Y 13
     7 ALL1       24 GROUP        1 Z    ALL  0     ROOT ALL Z 15
     8 SEL2       21 GROUP        1 Z    SEL  0     **** SEL Z 16
     9 GLL5        2 GROUP        1 Z    GLL  0     **** GLL Z 20
@<TRIPOS>SET

