#    Name: 1fm4_DXC_1_ligand
#    Modification time : Tue Mar 25 01:29:14 2014

@<TRIPOS>MOLECULE
1fm4_DXC_1_ligand
   67    70     1     0     0
SMALL
NO_CHARGES


@<TRIPOS>ATOM
      1 C1         10.3170    5.2560   22.2360 C.3       1 DXC1001     0.0000 
      2 C2          9.9570    3.8300   21.8070 C.3       1 DXC1001     0.0000 
      3 C3          9.5160    3.8130   20.2750 C.3       1 DXC1001     0.0000 
      4 C4          8.2770    4.7910   20.0420 C.3       1 DXC1001     0.0000 
      5 C5          8.6580    6.1560   20.5680 C.3       1 DXC1001     0.0000 
      6 C6          9.0370    6.2160   22.0430 C.3       1 DXC1001     0.0000 
      7 C7          9.1840    2.3920   19.7550 C.3       1 DXC1001     0.0000 
      8 C8          7.9170    1.8200   20.4750 C.3       1 DXC1001     0.0000 
      9 C9          6.6450    2.7240   20.2410 C.3       1 DXC1001     0.0000 
     10 C10         6.9790    4.1680   20.8050 C.3       1 DXC1001     0.0000 
     11 C11         5.4180    2.1860   20.9490 C.3       1 DXC1001     0.0000 
     12 C12         4.1200    3.0780   20.7580 C.3       1 DXC1001     0.0000 
     13 C13         4.4740    4.4930   21.3390 C.3       1 DXC1001     0.0000 
     14 C14         5.7220    5.0860   20.6100 C.3       1 DXC1001     0.0000 
     15 C15         4.9450    0.7590   20.5520 C.3       1 DXC1001     0.0000 
     16 C16         3.4660    0.7390   21.0260 C.3       1 DXC1001     0.0000 
     17 C17         3.1310    2.1930   21.5260 C.3       1 DXC1001     0.0000 
     18 C18         7.9550    4.9190   18.5210 C.3       1 DXC1001     0.0000 
     19 C19         1.5920    2.5660   21.4330 C.3       1 DXC1001     0.0000 
     20 O1          4.7370    4.3670   22.7320 O.3       1 DXC1001     0.0000 
     21 O2         10.7150    5.2600   23.6020 O.3       1 DXC1001     0.0000 
     22 C20         3.7870    3.1630   19.1840 C.3       1 DXC1001     0.0000 
     23 C21         0.7550    1.5510   22.2960 C.3       1 DXC1001     0.0000 
     24 C22         0.9530    1.6280   23.8080 C.3       1 DXC1001     0.0000 
     25 C23        -0.0010    0.7910   24.5400 C.2       1 DXC1001     0.0000 
     26 O3         -0.9760    0.2100   24.0080 O.co2     1 DXC1001     0.0000 
     27 O4          0.1910    0.6660   25.7770 O.co2     1 DXC1001     0.0000 
     28 C24         1.1560    3.9380   21.7610 C.3       1 DXC1001     0.0000 
     29 H          11.0788    5.6324   21.5852 H         1 DXC1001     0.0000 
     30 H           9.1297    3.4612   22.3922 H         1 DXC1001     0.0000 
     31 H          10.8120    3.1812   21.9110 H         1 DXC1001     0.0000 
     32 H          10.3431    4.2143   19.6932 H         1 DXC1001     0.0000 
     33 H           7.8153    6.8606   20.3909 H         1 DXC1001     0.0000 
     34 H           9.5081    6.5509   19.9685 H         1 DXC1001     0.0000 
     35 H           9.3309    7.2001   22.3215 H         1 DXC1001     0.0000 
     36 H           8.2547    5.8320   22.6536 H         1 DXC1001     0.0000 
     37 H          10.0206    1.7341   19.9500 H         1 DXC1001     0.0000 
     38 H           8.9888    2.4357   18.6917 H         1 DXC1001     0.0000 
     39 H           8.1100    1.7651   21.5406 H         1 DXC1001     0.0000 
     40 H           7.7100    0.8271   20.0914 H         1 DXC1001     0.0000 
     41 H           6.4794    2.8169   19.1977 H         1 DXC1001     0.0000 
     42 H           7.2061    4.0904   21.8357 H         1 DXC1001     0.0000 
     43 H           5.5819    2.1636   22.0398 H         1 DXC1001     0.0000 
     44 H           3.6383    5.1391   21.1438 H         1 DXC1001     0.0000 
     45 H           5.5088    5.1654   19.5525 H         1 DXC1001     0.0000 
     46 H           5.9379    6.0642   21.0181 H         1 DXC1001     0.0000 
     47 H           5.4972    0.0435   21.0885 H         1 DXC1001     0.0000 
     48 H           4.9820    0.6543   19.5069 H         1 DXC1001     0.0000 
     49 H           3.3593    0.0620   21.8398 H         1 DXC1001     0.0000 
     50 H           2.8300    0.5016   20.2068 H         1 DXC1001     0.0000 
     51 H           3.4330    2.2102   22.5862 H         1 DXC1001     0.0000 
     52 H           1.2829    2.3296   20.3767 H         1 DXC1001     0.0000 
     53 H           1.0015    0.5298   21.9442 H         1 DXC1001     0.0000 
     54 H          -0.3148    1.7107   22.0564 H         1 DXC1001     0.0000 
     55 H           0.8558    2.6834   24.1130 H         1 DXC1001     0.0000 
     56 H           1.9886    1.3231   24.0339 H         1 DXC1001     0.0000 
     57 H           8.7315    5.2825   18.0063 H         1 DXC1001     0.0000 
     58 H           7.7221    4.0353   18.1150 H         1 DXC1001     0.0000 
     59 H           7.1814    5.5306   18.3553 H         1 DXC1001     0.0000 
     60 H           4.5394    3.5708   18.6667 H         1 DXC1001     0.0000 
     61 H           3.6170    2.2593   18.7910 H         1 DXC1001     0.0000 
     62 H           2.9743    3.7177   19.0058 H         1 DXC1001     0.0000 
     63 H           1.3836    4.1848   22.7030 H         1 DXC1001     0.0000 
     64 H           1.5882    4.6169   21.1675 H         1 DXC1001     0.0000 
     65 H           0.1672    4.0476   21.6600 H         1 DXC1001     0.0000 
     66 H           5.3144    4.9444   23.3094 H         1 DXC1001     0.0000 
     67 H          11.5138    4.6597   23.6405 H         1 DXC1001     0.0000 
@<TRIPOS>BOND
     1    2    1 1    
     2    6    1 1    
     3   21    1 1    
     4   29    1 1    
     5    3    2 1    
     6   30    2 1    
     7   31    2 1    
     8    4    3 1    
     9    7    3 1    
    10   32    3 1    
    11    5    4 1    
    12   10    4 1    
    13   18    4 1    
    14    6    5 1    
    15   33    5 1    
    16   34    5 1    
    17   35    6 1    
    18   36    6 1    
    19    8    7 1    
    20   37    7 1    
    21   38    7 1    
    22    9    8 1    
    23   39    8 1    
    24   40    8 1    
    25   10    9 1    
    26   11    9 1    
    27   41    9 1    
    28   14   10 1    
    29   42   10 1    
    30   12   11 1    
    31   15   11 1    
    32   43   11 1    
    33   13   12 1    
    34   17   12 1    
    35   22   12 1    
    36   14   13 1    
    37   20   13 1    
    38   44   13 1    
    39   45   14 1    
    40   46   14 1    
    41   16   15 1    
    42   47   15 1    
    43   48   15 1    
    44   17   16 1    
    45   49   16 1    
    46   50   16 1    
    47   19   17 1    
    48   51   17 1    
    49   57   18 1    
    50   58   18 1    
    51   59   18 1    
    52   23   19 1    
    53   28   19 1    
    54   52   19 1    
    55   66   20 1    
    56   67   21 1    
    57   60   22 1    
    58   61   22 1    
    59   62   22 1    
    60   24   23 1    
    61   53   23 1    
    62   54   23 1    
    63   25   24 1    
    64   55   24 1    
    65   56   24 1    
    66   26   25 ar   
    67   27   25 ar   
    68   63   28 1    
    69   64   28 1    
    70   65   28 1    
@<TRIPOS>SUBSTRUCTURE
     1 DXC1001     1 GROUP   
@<TRIPOS>SET

