#    Name: 1nco_CHR_1_INTS_M
#    Modification time : Mon Mar 24 18:00:45 2014

@<TRIPOS>MOLECULE
1nco_CHR_1_INTS_M
   96     0     6     0     0
SMALL
NO_CHARGES


@<TRIPOS>ATOM
      1 CA         63.9455   -4.5175   11.6180 C.3       2 GLC5        0.0000 
      2 CA         64.0810   -6.4630   11.8990 C.3       6 GLL5        0.0000 
      3 CA         63.8100   -2.5720   11.3370 C.3       4 GLP5        0.0000 
      4 CA         66.0325   -6.5115   10.1450 C.3       2 GLC5        0.0000 
      5 CA         64.2070   -7.5450   10.7990 C.3       6 GLL5        0.0000 
      6 CA         67.8580   -5.4780    9.4910 C.3       4 GLP5        0.0000 
      7 CA         65.9065   -8.5365   10.2520 C.3       2 GLC5        0.0000 
      8 CA         67.6060   -9.5280    9.7050 C.3       4 GLP5        0.0000 
      9 CA         60.2690   -9.1640   11.2090 C.3       2 GLC5        0.0000 
     10 CA         60.5130   -7.8040    9.7720 C.3       6 GLL5        0.0000 
     11 CA         60.0250  -10.5240   12.6460 C.3       4 GLP5        0.0000 
     12 CA         57.2925   -3.4215   11.0285 C.3       2 GLC5        0.0000 
     13 CA         57.9530   -5.3910   10.9860 C.3       6 GLL5        0.0000 
     14 CA         56.6320   -1.4520   11.0710 C.3       4 GLP5        0.0000 
     15 CA         57.9920   -8.1860   12.4185 C.3       2 GLC5        0.0000 
     16 CA         56.3040   -8.0160   10.9780 C.3       6 GLL5        0.0000 
     17 CA         59.6800   -8.3560   13.8590 C.3       4 GLP5        0.0000 
     18 CA         54.9600   -6.3875   11.6915 C.3       2 GLC5        0.0000 
     19 CA         53.6160   -4.7590   12.4050 C.3       4 GLP5        0.0000 
     20 CA         57.1180   -7.8530   14.9855 C.3       2 GLC5        0.0000 
     21 CA         55.7530   -7.4680   14.0370 C.3       6 GLL5        0.0000 
     22 CA         58.4830   -8.2380   15.9340 C.3       4 GLP5        0.0000 
     23 CA         54.1580   -6.3020   15.0615 C.3       2 GLC5        0.0000 
     24 CA         52.5630   -5.1360   16.0860 C.3       4 GLP5        0.0000 
     25 CA         54.6845   -6.1135   13.2210 C.3       2 GLC5        0.0000 
     26 N          53.2595   -4.3885    7.6115 N.am      1 SEC2        0.0000 
     27 N          54.3640   -5.0500    7.3280 N.am      5 SEL2        0.0000 
     28 N          52.1550   -3.7270    7.8950 N.am      3 SEP2        0.0000 
     29 CA         60.8060   -0.4705   11.6950 C.3       2 GLC5        0.0000 
     30 CA         60.7000   -1.4580    9.8230 C.3       6 GLL5        0.0000 
     31 CA         60.9120    0.5170   13.5670 C.3       4 GLP5        0.0000 
     32 CA         61.9550   -0.2965    8.6465 C.3       2 GLC5        0.0000 
     33 CA         63.2100    0.8650    7.4700 C.3       4 GLP5        0.0000 
     34 CA         61.1250   -2.7985    8.0860 C.3       2 GLC5        0.0000 
     35 CA         61.5500   -4.1390    6.3490 C.3       4 GLP5        0.0000 
     36 CA         62.3360   -2.2090    9.9270 C.3       2 GLC5        0.0000 
     37 CA         63.9720   -2.9600   10.0310 C.3       4 GLP5        0.0000 
     38 CA         58.6660   -1.4550   10.4470 C.3       2 GLC5        0.0000 
     39 CA         61.3540   -0.2635    6.8890 C.3       2 GLC5        0.0000 
     40 CA         59.4980   -1.3920    6.3080 C.3       6 GLL5        0.0000 
     41 CA         60.0555   -3.1770    4.3085 C.3       2 GLC5        0.0000 
     42 CA         58.7440   -1.6570    3.9810 C.3       6 GLL5        0.0000 
     43 CA         61.3670   -4.6970    4.6360 C.3       4 GLP5        0.0000 
     44 CA         58.8395   -1.6440    2.1490 C.3       2 GLC5        0.0000 
     45 CA         58.9350   -1.6310    0.3170 C.3       4 GLP5        0.0000 
     46 CA         59.7135   -0.0250    3.3330 C.3       2 GLC5        0.0000 
     47 CA         60.6830    1.6070    2.6850 C.3       4 GLP5        0.0000 
     48 CA         57.0490   -0.7685    3.0900 C.3       2 GLC5        0.0000 
     49 CA         55.3540    0.1200    2.1990 C.3       4 GLP5        0.0000 
     50 CA         62.9105   -9.0415   13.4165 C.3       2 GLC5        0.0000 
     51 CA         64.2590   -7.6040   14.2220 C.3       6 GLL5        0.0000 
     52 CA         61.5620  -10.4790   12.6110 C.3       4 GLP5        0.0000 
     53 CA         62.9292   -4.2088   11.6632 C.3       2 GLC5        0.0000 
     54 CA         61.4380   -5.7460   11.9130 C.3       6 GLL5        0.0000 
     55 CA         60.7105   -7.1134   12.8633 C.3       2 GLC5        0.0000 
     56 CA         62.6590   -5.9450   12.0660 C.3       6 GLL5        0.0000 
     57 CA         64.0365   -6.2810    9.4630 C.3       2 GLC5        0.0000 
     58 CA         63.9290   -5.5580    7.5770 C.3       4 GLP5        0.0000 
     59 CA         66.0412   -5.5010   12.0840 C.3       2 GLC5        0.0000 
     60 CA         67.6340   -4.4600   11.5980 C.3       4 GLP5        0.0000 
     61 CA         62.2657   -6.8507    8.7095 C.3       2 GLC5        0.0000 
     62 CA         62.9810   -7.9370   10.1220 C.3       6 GLL5        0.0000 
     63 CA         62.1370   -5.7230    7.4560 C.3       4 GLP5        0.0000 
     64 CA         63.1845   -9.7948    9.8951 C.3       2 GLC5        0.0000 
     65 CA         61.8080   -8.0200    9.8040 C.3       6 GLL5        0.0000 
     66 CA         63.6680  -11.7090    9.6580 C.3       4 GLP5        0.0000 
     67 CA         62.1315   -9.1797   11.3716 C.3       2 GLC5        0.0000 
     68 CA         61.1986   -6.4032    8.9038 C.3       2 GLC5        0.0000 
     69 CA         58.7510   -6.8564    8.4254 C.3       2 GLC5        0.0000 
     70 CA         58.2720   -6.7660   10.3770 C.3       6 GLL5        0.0000 
     71 CA         58.2860   -6.6590    6.6100 C.3       4 GLP5        0.0000 
     72 CA         57.7387   -9.6948   12.8445 C.3       2 GLC5        0.0000 
     73 CA         55.7300   -8.9930   11.9940 C.3       6 GLL5        0.0000 
     74 CA         59.4780   -9.7260   13.8080 C.3       4 GLP5        0.0000 
     75 CA         57.5463   -9.4682    7.2370 C.3       2 GLC5        0.0000 
     76 CA         56.5450   -9.8010    9.3760 C.3       6 GLL5        0.0000 
     77 CA         58.7680   -8.9680    5.8080 C.3       4 GLP5        0.0000 
     78 CA         57.1127   -5.3400    6.9895 C.3       2 GLC5        0.0000 
     79 CA         55.4510   -4.2630    6.9120 C.3       6 GLL5        0.0000 
     80 CA         56.7865   -2.4110    9.3172 C.3       2 GLC5        0.0000 
     81 CA         56.4280   -3.7790    7.8260 C.3       6 GLL5        0.0000 
     82 CA         57.1818   -5.1433    5.9470 C.3       2 GLC5        0.0000 
     83 CA         55.5570   -4.0070    5.5330 C.3       6 GLL5        0.0000 
     84 CA         59.5215   -3.4878    6.4785 C.3       2 GLC5        0.0000 
     85 CA         57.5320   -2.7120    5.9150 C.3       6 GLL5        0.0000 
     86 CA         57.8895   -4.7477    6.6090 C.3       2 GLC5        0.0000 
     87 CA         60.2332   -3.0648    7.1260 C.3       2 GLC5        0.0000 
     88 CA         58.4070   -2.3800    8.1420 C.3       6 GLL5        0.0000 
     89 CA         57.7742   -1.7212    9.4870 C.3       2 GLC5        0.0000 
     90 CA         59.4260   -1.6010    7.6640 C.3       6 GLL5        0.0000 
     91 CA         58.7460    0.2203    6.1600 C.3       2 GLC5        0.0000 
     92 CA         58.0300    1.9370    5.3340 C.3       4 GLP5        0.0000 
     93 CA         60.2903   -2.9018    6.1115 C.3       2 GLC5        0.0000 
     94 CA         58.3418    0.0700    5.0222 C.3       2 GLC5        0.0000 
     95 CA         58.5630   -1.9370    5.4400 C.3       6 GLL5        0.0000 
     96 CA         59.2415   -7.1955   12.3866 C.3       2 GLC5        0.0000 
@<TRIPOS>BOND
@<TRIPOS>SUBSTRUCTURE
     1 SEC2       26 GROUP        1 X    SEC  0     ROOT SEC X 2
     2 GLC5        1 GROUP        1 X    GLC  0     **** GLC X 6
     3 SEP2       28 GROUP        1 Y    SEP  0     ROOT SEP Y 9
     4 GLP5        3 GROUP        1 Y    GLP  0     **** GLP Y 13
     5 SEL2       27 GROUP        1 Z    SEL  0     ROOT SEL Z 16
     6 GLL5        2 GROUP        1 Z    GLL  0     **** GLL Z 20
@<TRIPOS>SET

