#    Name: 1nco_CHR_1_ligand
#    Modification time : Mon Mar 24 18:00:45 2014

@<TRIPOS>MOLECULE
1nco_CHR_1_ligand
   80    86     1     0     0
SMALL
NO_CHARGES


@<TRIPOS>ATOM
      1 C1         60.2080   -5.8470   11.4250 C.2       1 CHR114      0.0000 
      2 C2         61.4380   -5.7460   11.9130 C.1       1 CHR114      0.0000 
      3 C3         62.6590   -5.9450   12.0660 C.1       1 CHR114      0.0000 
      4 C4         64.0810   -6.4630   11.8990 C.3       1 CHR114      0.0000 
      5 O2         64.8250   -6.2730   10.6560 O.3       1 CHR114      0.0000 
      6 C5         64.2070   -7.5450   10.7990 C.3       1 CHR114      0.0000 
      7 C6         62.9810   -7.9370   10.1220 C.1       1 CHR114      0.0000 
      8 C7         61.8080   -8.0200    9.8040 C.1       1 CHR114      0.0000 
      9 C8         60.5130   -7.8040    9.7720 C.2       1 CHR114      0.0000 
     10 C9         59.8070   -6.8790   10.4370 C.2       1 CHR114      0.0000 
     11 C10        58.2720   -6.7660   10.3770 C.3       1 CHR114      0.0000 
     12 O1         57.7060   -7.8560   11.1590 O.3       1 CHR114      0.0000 
     13 C11        57.9530   -5.3910   10.9860 C.3       1 CHR114      0.0000 
     14 O6         57.8000   -4.3990    9.9160 O.3       1 CHR114      0.0000 
     15 C12        59.1800   -5.1040   11.8570 C.2       1 CHR114      0.0000 
     16 C13        56.3040   -8.0160   10.9780 C.3       1 CHR114      0.0000 
     17 O3         56.0310   -8.4990    9.6510 O.3       1 CHR114      0.0000 
     18 C14        55.7300   -8.9930   11.9940 C.3       1 CHR114      0.0000 
     19 N1         56.1030   -8.7300   13.3490 N.4       1 CHR114      0.0000 
     20 C19        55.7530   -7.4680   14.0370 C.3       1 CHR114      0.0000 
     21 C15        56.2690  -10.3340   11.7680 C.3       1 CHR114      0.0000 
     22 O4         55.6060  -11.1190   12.7270 O.3       1 CHR114      0.0000 
     23 C16        55.9340  -10.8110   10.3640 C.3       1 CHR114      0.0000 
     24 O5         54.5170  -10.8900   10.2990 O.3       1 CHR114      0.0000 
     25 C17        56.5450   -9.8010    9.3760 C.3       1 CHR114      0.0000 
     26 C18        56.1040  -10.1360    7.9560 C.3       1 CHR114      0.0000 
     27 C20        56.5680   -4.4090    9.1190 C.2       1 CHR114      0.0000 
     28 O7         55.6020   -4.9730    9.6350 O.2       1 CHR114      0.0000 
     29 C21        56.4280   -3.7790    7.8260 C.ar      1 CHR114      0.0000 
     30 C22        55.4510   -4.2630    6.9120 C.ar      1 CHR114      0.0000 
     31 O9         54.3640   -5.0500    7.3280 O.3       1 CHR114      0.0000 
     32 C23        55.5570   -4.0070    5.5330 C.ar      1 CHR114      0.0000 
     33 C24        56.5980   -3.2480    5.0350 C.ar      1 CHR114      0.0000 
     34 C25        57.5320   -2.7120    5.9150 C.ar      1 CHR114      0.0000 
     35 C26        57.4540   -2.9610    7.3010 C.ar      1 CHR114      0.0000 
     36 C27        58.4070   -2.3800    8.1420 C.ar      1 CHR114      0.0000 
     37 C28        59.4260   -1.6010    7.6640 C.ar      1 CHR114      0.0000 
     38 O8         60.3770   -1.0200    8.4880 O.3       1 CHR114      0.0000 
     39 C31        60.7000   -1.4580    9.8230 C.3       1 CHR114      0.0000 
     40 C29        59.4980   -1.3920    6.3080 C.ar      1 CHR114      0.0000 
     41 C30        58.5630   -1.9370    5.4400 C.ar      1 CHR114      0.0000 
     42 C32        58.7440   -1.6570    3.9810 C.3       1 CHR114      0.0000 
     43 C33        64.8160   -6.6210   13.2410 C.3       1 CHR114      0.0000 
     44 O10        66.1270   -7.0740   12.9900 O.3       1 CHR114      0.0000 
     45 C34        66.3120   -8.2220   13.5980 C.2       1 CHR114      0.0000 
     46 O11        67.3720   -8.8250   13.6360 O.2       1 CHR114      0.0000 
     47 O12        65.2520   -8.5840   14.2860 O.3       1 CHR114      0.0000 
     48 C35        64.2590   -7.6040   14.2220 C.3       1 CHR114      0.0000 
     49 H          64.8917   -8.1672   11.1853 H         1 CHR114      0.0000 
     50 H          59.9190   -8.4663    9.1136 H         1 CHR114      0.0000 
     51 H          57.9781   -6.7803    9.3685 H         1 CHR114      0.0000 
     52 H          57.1071   -5.4838   11.5972 H         1 CHR114      0.0000 
     53 H          59.1133   -4.4834   12.5612 H         1 CHR114      0.0000 
     54 H          55.7912   -7.0626   11.1277 H         1 CHR114      0.0000 
     55 H          54.6608   -9.0338   11.8948 H         1 CHR114      0.0000 
     56 H          57.3175  -10.3333   11.9106 H         1 CHR114      0.0000 
     57 H          56.4052  -11.7604   10.2248 H         1 CHR114      0.0000 
     58 H          57.5964   -9.8395    9.4326 H         1 CHR114      0.0000 
     59 H          54.8440   -4.3952    4.8958 H         1 CHR114      0.0000 
     60 H          56.6851   -3.0790    4.0276 H         1 CHR114      0.0000 
     61 H          58.3283   -2.5538    9.1713 H         1 CHR114      0.0000 
     62 H          60.2702   -0.8118    5.9169 H         1 CHR114      0.0000 
     63 H          64.8668   -5.6412   13.7219 H         1 CHR114      0.0000 
     64 H          63.3258   -7.9814   13.8383 H         1 CHR114      0.0000 
     65 H          64.1080   -7.1023   15.1632 H         1 CHR114      0.0000 
     66 H          56.0897   -7.4525   14.9785 H         1 CHR114      0.0000 
     67 H          56.1422   -6.6720   13.5734 H         1 CHR114      0.0000 
     68 H          54.7635   -7.3290   14.0773 H         1 CHR114      0.0000 
     69 H          56.4611   -9.4795    7.2916 H         1 CHR114      0.0000 
     70 H          56.4205  -11.0413    7.6727 H         1 CHR114      0.0000 
     71 H          55.1081  -10.1321    7.8657 H         1 CHR114      0.0000 
     72 H          61.0246   -2.4038    9.8352 H         1 CHR114      0.0000 
     73 H          61.4178   -0.8964   10.2346 H         1 CHR114      0.0000 
     74 H          59.9073   -1.4123   10.4309 H         1 CHR114      0.0000 
     75 H          59.5439   -1.0819    3.8096 H         1 CHR114      0.0000 
     76 H          58.8692   -2.4977    3.4542 H         1 CHR114      0.0000 
     77 H          57.9536   -1.1829    3.5930 H         1 CHR114      0.0000 
     78 H          56.2007  -11.9102   12.8696 H         1 CHR114      0.0000 
     79 H          54.2102  -10.8209   11.2483 H         1 CHR114      0.0000 
     80 H          54.5301   -5.2287    8.2978 H         1 CHR114      0.0000 
@<TRIPOS>BOND
     1    2    1 1    
     2   10    1 1    
     3   15    1 2    
     4    3    2 3    
     5    4    3 1    
     6    5    4 1    
     7    6    4 1    
     8   43    4 1    
     9    6    5 1    
    10    7    6 1    
    11   49    6 1    
    12    8    7 3    
    13    9    8 1    
    14   10    9 2    
    15   50    9 1    
    16   11   10 1    
    17   12   11 1    
    18   13   11 1    
    19   51   11 1    
    20   16   12 1    
    21   14   13 1    
    22   15   13 1    
    23   52   13 1    
    24   27   14 1    
    25   53   15 1    
    26   17   16 1    
    27   18   16 1    
    28   54   16 1    
    29   25   17 1    
    30   19   18 1    
    31   21   18 1    
    32   55   18 1    
    33   20   19 1    
    34   66   20 1    
    35   67   20 1    
    36   68   20 1    
    37   22   21 1    
    38   23   21 1    
    39   56   21 1    
    40   78   22 1    
    41   24   23 1    
    42   25   23 1    
    43   57   23 1    
    44   79   24 1    
    45   26   25 1    
    46   58   25 1    
    47   69   26 1    
    48   70   26 1    
    49   71   26 1    
    50   28   27 2    
    51   29   27 1    
    52   30   29 ar   
    53   35   29 ar   
    54   31   30 1    
    55   32   30 ar   
    56   80   31 1    
    57   33   32 ar   
    58   59   32 1    
    59   34   33 ar   
    60   60   33 1    
    61   35   34 ar   
    62   41   34 ar   
    63   36   35 ar   
    64   37   36 ar   
    65   61   36 1    
    66   38   37 1    
    67   40   37 ar   
    68   39   38 1    
    69   72   39 1    
    70   73   39 1    
    71   74   39 1    
    72   41   40 ar   
    73   62   40 1    
    74   42   41 1    
    75   75   42 1    
    76   76   42 1    
    77   77   42 1    
    78   44   43 1    
    79   48   43 1    
    80   63   43 1    
    81   45   44 1    
    82   46   45 2    
    83   47   45 1    
    84   48   47 1    
    85   64   48 1    
    86   65   48 1    
@<TRIPOS>SUBSTRUCTURE
     1 CHR114      1 GROUP   
@<TRIPOS>SET

