#    Name: 1hy7_MBS_1_INTS_M
#    Modification time : Tue Mar 25 06:31:42 2014

@<TRIPOS>MOLECULE
1hy7_MBS_1_INTS_M
   56     0     9     0     0
SMALL
NO_CHARGES


@<TRIPOS>ATOM
      1 CA         -5.0985   49.9350   44.5620 C.3       3 GLC5        0.0000 
      2 CA         -4.7390   50.0940   46.4700 C.3       9 GLL5        0.0000 
      3 CA         -5.4580   49.7760   42.6540 C.3       6 GLP5        0.0000 
      4 CA         -6.2935   48.7365   45.7225 C.3       3 GLC5        0.0000 
      5 CA         -7.8480   47.3790   44.9750 C.3       6 GLP5        0.0000 
      6 Zn         -0.4520   50.5925   54.3105 Zn        2 ZIC7        0.0000 
      7 Zn          0.2090   50.4150   53.6330 Zn        8 ZIL7        0.0000 
      8 Zn         -1.1130   50.7700   54.9880 Zn        5 ZIP7        0.0000 
      9 Zn          0.4840   50.3605   53.4140 Zn        2 ZIC7        0.0000 
     10 Zn          2.0810   49.9510   51.8400 Zn        8 ZIL7        0.0000 
     11 N           4.1175   46.6975   51.3470 N.am      1 SEC2        0.0000 
     12 N           3.4030   47.6230   51.9970 N.am      7 SEL2        0.0000 
     13 N           4.8320   45.7720   50.6970 N.am      4 SEP2        0.0000 
     14 N           2.8975   46.1070   51.4370 N.am      1 SEC2        0.0000 
     15 N           2.3920   44.5910   50.8770 N.am      4 SEP2        0.0000 
     16 CA          2.7715   51.7130   56.8930 C.3       3 GLC5        0.0000 
     17 CA          3.0870   49.6390   56.5710 C.3       9 GLL5        0.0000 
     18 CA          2.4560   53.7870   57.2150 C.3       6 GLP5        0.0000 
     19 CA          4.4740   50.9470   57.3190 C.3       3 GLC5        0.0000 
     20 CA          5.8610   52.2550   58.0670 C.3       6 GLP5        0.0000 
     21 CA          1.9615   45.2890   55.9250 C.3       3 GLC5        0.0000 
     22 CA          2.4550   47.3620   56.1510 C.3       9 GLL5        0.0000 
     23 CA          1.4680   43.2160   55.6990 C.3       6 GLP5        0.0000 
     24 CA          2.6910   44.7590   61.2680 C.3       3 GLC5        0.0000 
     25 CA          2.5300   46.6790   60.2830 C.3       9 GLL5        0.0000 
     26 CA          2.8520   42.8390   62.2530 C.3       6 GLP5        0.0000 
     27 CA          1.1230   49.0605   63.5840 C.3       3 GLC5        0.0000 
     28 CA          2.9470   48.4090   63.3140 C.3       9 GLL5        0.0000 
     29 CA         -0.7010   49.7120   63.8540 C.3       6 GLP5        0.0000 
     30 CA         -1.9754   48.6100   48.9289 C.3       3 GLC5        0.0000 
     31 CA         -2.1650   50.4140   49.1850 C.3       9 GLL5        0.0000 
     32 CA         -1.9790   46.8120   48.5560 C.3       6 GLP5        0.0000 
     33 CA          0.9470   48.7203   56.8267 C.3       3 GLC5        0.0000 
     34 CA         -0.9830   48.4150   56.8380 C.3       6 GLP5        0.0000 
     35 CA          4.6315   48.8073   57.9162 C.3       3 GLC5        0.0000 
     36 CA          2.6670   48.4120   57.0600 C.3       9 GLL5        0.0000 
     37 CA          6.3860   48.5890   59.0170 C.3       6 GLP5        0.0000 
     38 CA          4.3480   46.4513   55.1128 C.3       3 GLC5        0.0000 
     39 CA          6.1700   45.4470   54.7610 C.3       6 GLP5        0.0000 
     40 CA          0.7715   47.9352   56.1513 C.3       3 GLC5        0.0000 
     41 CA          2.5970   47.5490   54.7780 C.3       9 GLL5        0.0000 
     42 CA          4.4742   48.0842   58.8470 C.3       3 GLC5        0.0000 
     43 CA          2.5690   48.2330   58.4290 C.3       9 GLL5        0.0000 
     44 CA          1.8420   44.9163   58.8800 C.3       3 GLC5        0.0000 
     45 CA          2.5560   46.9260   58.9250 C.3       9 GLL5        0.0000 
     46 CA          1.1410   43.0300   58.1560 C.3       6 GLP5        0.0000 
     47 CA          0.9040   46.9580   61.8245 C.3       3 GLC5        0.0000 
     48 CA         -0.7470   46.7090   62.9270 C.3       6 GLP5        0.0000 
     49 CA          4.4705   47.8980   59.8695 C.3       3 GLC5        0.0000 
     50 CA          2.5800   47.7350   61.1610 C.3       9 GLL5        0.0000 
     51 CA          0.7668   47.0069   59.6193 C.3       3 GLC5        0.0000 
     52 CA         -1.0280   46.7450   58.8560 C.3       6 GLP5        0.0000 
     53 CA          0.8755   48.4883   58.9679 C.3       3 GLC5        0.0000 
     54 CA         -0.8670   48.0630   58.1490 C.3       6 GLP5        0.0000 
     55 CA          4.5122   48.8847   59.5143 C.3       3 GLC5        0.0000 
     56 CA          2.6510   49.3010   59.3280 C.3       9 GLL5        0.0000 
@<TRIPOS>BOND
@<TRIPOS>SUBSTRUCTURE
     1 SEC2       11 GROUP        1 X    SEC  0     ROOT SEC X 2
     2 ZIC7        6 GROUP        1 X    ZIC  0     **** ZIC X 5
     3 GLC5        1 GROUP        1 X    GLC  0     **** GLC X 6
     4 SEP2       13 GROUP        1 Y    SEP  0     ROOT SEP Y 9
     5 ZIP7        8 GROUP        1 Y    ZIP  0     **** ZIP Y 12
     6 GLP5        3 GROUP        1 Y    GLP  0     **** GLP Y 13
     7 SEL2       12 GROUP        1 Z    SEL  0     ROOT SEL Z 16
     8 ZIL7        7 GROUP        1 Z    ZIL  0     **** ZIL Z 19
     9 GLL5        2 GROUP        1 Z    GLL  0     **** GLL Z 20
@<TRIPOS>SET

