#    Name: 1hy7_MBS_1_ligand
#    Modification time : Tue Mar 25 06:31:42 2014

@<TRIPOS>MOLECULE
1hy7_MBS_1_ligand
   48    49     1     0     0
SMALL
NO_CHARGES


@<TRIPOS>ATOM
      1 C5         -4.7390   50.0940   46.4700 C.3       1 MBS901      0.0000 
      2 O6         -3.4580   49.9780   47.1030 O.3       1 MBS901      0.0000 
      3 C16        -3.5180   50.3600   48.4840 C.3       1 MBS901      0.0000 
      4 C12        -2.1650   50.4140   49.1850 C.1       1 MBS901      0.0000 
      5 C4         -1.1020   50.4290   49.7690 C.1       1 MBS901      0.0000 
      6 C3          0.2030   50.4460   50.4360 C.3       1 MBS901      0.0000 
      7 C2          0.7610   49.4910   51.4870 C.3       1 MBS901      0.0000 
      8 C1          0.0050   49.5450   52.7860 C.2       1 MBS901      0.0000 
      9 O2          0.2090   50.4150   53.6330 O.co2     1 MBS901      0.0000 
     10 O1         -0.8660   48.5890   53.0210 O.co2     1 MBS901      0.0000 
     11 N1          2.0810   49.9510   51.8400 N.pl3     1 MBS901      0.0000 
     12 S11         3.2940   49.0350   52.6110 S.o2      1 MBS901      0.0000 
     13 O3          3.4030   47.6230   51.9970 O.2       1 MBS901      0.0000 
     14 O4          4.5890   49.9090   52.3640 O.2       1 MBS901      0.0000 
     15 C21         3.0210   48.7920   54.2990 C.ar      1 MBS901      0.0000 
     16 C22         3.2620   49.8260   55.1990 C.ar      1 MBS901      0.0000 
     17 C23         3.0870   49.6390   56.5710 C.ar      1 MBS901      0.0000 
     18 C24         2.6670   48.4120   57.0600 C.ar      1 MBS901      0.0000 
     19 C25         2.4550   47.3620   56.1510 C.ar      1 MBS901      0.0000 
     20 C26         2.5970   47.5490   54.7780 C.ar      1 MBS901      0.0000 
     21 C6          2.5690   48.2330   58.4290 C.ar      1 MBS901      0.0000 
     22 C32         2.5560   46.9260   58.9250 C.ar      1 MBS901      0.0000 
     23 C33         2.5300   46.6790   60.2830 C.ar      1 MBS901      0.0000 
     24 C34         2.5800   47.7350   61.1610 C.ar      1 MBS901      0.0000 
     25 C35         2.6260   49.0600   60.6950 C.ar      1 MBS901      0.0000 
     26 C36         2.6510   49.3010   59.3280 C.ar      1 MBS901      0.0000 
     27 O5          2.5510   47.4740   62.3710 O.3       1 MBS901      0.0000 
     28 C7          2.9470   48.4090   63.3140 C.3       1 MBS901      0.0000 
     29 H          -4.1663   49.6608   49.0639 H         1 MBS901      0.0000 
     30 H          -3.9942   51.3625   48.6006 H         1 MBS901      0.0000 
     31 H           0.3635   51.5305   50.8796 H         1 MBS901      0.0000 
     32 H           1.0330   50.5089   49.5958 H         1 MBS901      0.0000 
     33 H           0.7897   48.5078   51.1200 H         1 MBS901      0.0000 
     34 H           2.4140   50.9001   51.6511 H         1 MBS901      0.0000 
     35 H           3.5753   50.7466   54.8478 H         1 MBS901      0.0000 
     36 H           3.2717   50.4180   57.2187 H         1 MBS901      0.0000 
     37 H           2.1873   46.4299   56.5150 H         1 MBS901      0.0000 
     38 H           2.3944   46.7886   54.1273 H         1 MBS901      0.0000 
     39 H           2.5662   46.1345   58.2559 H         1 MBS901      0.0000 
     40 H           2.4737   45.7132   60.6313 H         1 MBS901      0.0000 
     41 H           2.6407   49.8337   61.3624 H         1 MBS901      0.0000 
     42 H           2.7296   50.2614   58.9727 H         1 MBS901      0.0000 
     43 H          -4.7030   49.8269   45.5070 H         1 MBS901      0.0000 
     44 H          -5.4244   49.5136   46.9097 H         1 MBS901      0.0000 
     45 H          -5.0852   51.0316   46.5013 H         1 MBS901      0.0000 
     46 H           3.9007   48.6823   63.1883 H         1 MBS901      0.0000 
     47 H           2.3949   49.2414   63.2663 H         1 MBS901      0.0000 
     48 H           2.8638   48.0551   64.2456 H         1 MBS901      0.0000 
@<TRIPOS>BOND
     1    2    1 1    
     2   43    1 1    
     3   44    1 1    
     4   45    1 1    
     5    3    2 1    
     6    4    3 1    
     7   29    3 1    
     8   30    3 1    
     9    5    4 3    
    10    6    5 1    
    11    7    6 1    
    12   31    6 1    
    13   32    6 1    
    14    8    7 1    
    15   11    7 1    
    16   33    7 1    
    17    9    8 ar   
    18   10    8 ar   
    19   12   11 1    
    20   34   11 1    
    21   13   12 2    
    22   14   12 2    
    23   15   12 1    
    24   16   15 ar   
    25   20   15 ar   
    26   17   16 ar   
    27   35   16 1    
    28   18   17 ar   
    29   36   17 1    
    30   19   18 ar   
    31   21   18 1    
    32   20   19 ar   
    33   37   19 1    
    34   38   20 1    
    35   22   21 ar   
    36   26   21 ar   
    37   23   22 ar   
    38   39   22 1    
    39   24   23 ar   
    40   40   23 1    
    41   25   24 ar   
    42   27   24 1    
    43   26   25 ar   
    44   41   25 1    
    45   42   26 1    
    46   28   27 1    
    47   46   28 1    
    48   47   28 1    
    49   48   28 1    
@<TRIPOS>SUBSTRUCTURE
     1 MBS901      1 GROUP   
@<TRIPOS>SET

