#    Name: 2que_ANN_2_INTS_M
#    Modification time : Mon Mar 24 22:52:25 2014

@<TRIPOS>MOLECULE
2que_ANN_2_INTS_M
   20     0     9     0     0
SMALL
NO_CHARGES


@<TRIPOS>ATOM
      1 CA          6.3970   20.0325    6.2280 C.3       3 GLC5        0.0000 
      2 CA          5.6030   21.8310    6.2490 C.3       9 GLL5        0.0000 
      3 CA          7.1910   18.2340    6.2070 C.3       6 GLP5        0.0000 
      4 CA          6.4290   22.8400    4.5910 C.3       3 GLC5        0.0000 
      5 CA          7.2550   23.8490    2.9330 C.3       6 GLP5        0.0000 
      6 CA          6.4280   23.6820    6.6715 C.3       3 GLC5        0.0000 
      7 CA          7.2530   25.5330    7.0940 C.3       6 GLP5        0.0000 
      8 CA          4.5545   23.6085    6.7815 C.3       3 GLC5        0.0000 
      9 CA          3.5060   25.3860    7.3140 C.3       6 GLP5        0.0000 
     10 NZ          3.2010   16.3720   11.5630 N.4       2 LYC4        0.0000 
     11 NZ          3.2210   17.7340   11.8980 N.4       8 LYL4        0.0000 
     12 NZ          3.1810   15.0100   11.2280 N.4       5 LYP4        0.0000 
     13 N           3.2010   16.3720   11.5630 N.am      1 SEC2        0.0000 
     14 N           3.2210   17.7340   11.8980 N.am      7 SEL2        0.0000 
     15 N           3.1810   15.0100   11.2280 N.am      4 SEP2        0.0000 
     16 CA          6.2353   19.3630    7.3595 C.3       3 GLC5        0.0000 
     17 CA          4.6440   20.1610    8.4530 C.3       9 GLL5        0.0000 
     18 CA          7.2555   19.0890    8.8595 C.3       3 GLC5        0.0000 
     19 CA          6.6770   20.6420    9.7830 C.3       9 GLL5        0.0000 
     20 CA          8.0790   17.9400    7.4050 C.3       6 GLP5        0.0000 
@<TRIPOS>BOND
@<TRIPOS>SUBSTRUCTURE
     1 SEC2       13 GROUP        1 X    SEC  0     ROOT SEC X 2
     2 LYC4       10 GROUP        1 X    LYC  0     **** LYC X 4
     3 GLC5        1 GROUP        1 X    GLC  0     **** GLC X 6
     4 SEP2       15 GROUP        1 Y    SEP  0     ROOT SEP Y 9
     5 LYP4       12 GROUP        1 Y    LYP  0     **** LYP Y 11
     6 GLP5        3 GROUP        1 Y    GLP  0     **** GLP Y 13
     7 SEL2       14 GROUP        1 Z    SEL  0     ROOT SEL Z 16
     8 LYL4       11 GROUP        1 Z    LYL  0     **** LYL Z 18
     9 GLL5        2 GROUP        1 Z    GLL  0     **** GLL Z 20
@<TRIPOS>SET

