#    Name: 2que_ANN_2_ligand
#    Modification time : Mon Mar 24 22:52:25 2014

@<TRIPOS>MOLECULE
2que_ANN_2_ligand
   18    18     1     0     0
SMALL
NO_CHARGES


@<TRIPOS>ATOM
      1 C8          5.6030   21.8310    6.2490 C.3       1 ANN347      0.0000 
      2 O3          6.3600   21.6370    7.4680 O.3       1 ANN347      0.0000 
      3 C5          5.9150   20.8230    8.5710 C.ar      1 ANN347      0.0000 
      4 C6          6.6770   20.6420    9.7830 C.ar      1 ANN347      0.0000 
      5 C7          6.1870   19.8340   10.8450 C.ar      1 ANN347      0.0000 
      6 C2          4.9050   19.1850   10.7030 C.ar      1 ANN347      0.0000 
      7 C3          4.1420   19.3530    9.5050 C.ar      1 ANN347      0.0000 
      8 C4          4.6440   20.1610    8.4530 C.ar      1 ANN347      0.0000 
      9 C1          4.3520   18.3080   11.8570 C.2       1 ANN347      0.0000 
     10 O1          3.2210   17.7340   11.8980 O.co2     1 ANN347      0.0000 
     11 O2          5.0980   18.2190   12.8500 O.co2     1 ANN347      0.0000 
     12 H           7.5836   21.1066    9.8705 H         1 ANN347      0.0000 
     13 H           6.7208   19.7092   11.6916 H         1 ANN347      0.0000 
     14 H           3.2408   18.8913    9.4127 H         1 ANN347      0.0000 
     15 H           4.1006   20.2798    7.5948 H         1 ANN347      0.0000 
     16 H           6.0833   22.4257    5.6042 H         1 ANN347      0.0000 
     17 H           5.4304   20.9662    5.7774 H         1 ANN347      0.0000 
     18 H           4.7129   22.2504    6.4274 H         1 ANN347      0.0000 
@<TRIPOS>BOND
     1    2    1 1    
     2   16    1 1    
     3   17    1 1    
     4   18    1 1    
     5    3    2 1    
     6    4    3 ar   
     7    8    3 ar   
     8    5    4 ar   
     9   12    4 1    
    10    6    5 ar   
    11   13    5 1    
    12    7    6 ar   
    13    9    6 1    
    14    8    7 ar   
    15   14    7 1    
    16   15    8 1    
    17   10    9 ar   
    18   11    9 ar   
@<TRIPOS>SUBSTRUCTURE
     1 ANN347      1 GROUP   
@<TRIPOS>SET

