#    Name: 2zhz_ATP_1_INTS_M
#    Modification time : Tue Mar 25 10:45:30 2014

@<TRIPOS>MOLECULE
2zhz_ATP_1_INTS_M
   59     0    15     0     0
SMALL
NO_CHARGES


@<TRIPOS>ATOM
      1 N          -6.1880  -10.3850   33.9205 N.am      2 SEC2        0.0000 
      2 N          -5.5420  -11.1610   34.9410 N.am     12 SEL2        0.0000 
      3 N          -6.8340   -9.6090   32.9000 N.am      7 SEP2        0.0000 
      4 N          -4.7670  -10.3120   35.3565 N.am      2 SEC2        0.0000 
      5 N          -3.9920   -9.4630   35.7720 N.am      7 SEP2        0.0000 
      6 Zn         -5.7770  -13.2725   33.1035 Zn        4 ZIC7        0.0000 
      7 Zn         -6.1200  -13.4880   34.1740 Zn       14 ZIL7        0.0000 
      8 Zn         -5.4340  -13.0570   32.0330 Zn        9 ZIP7        0.0000 
      9 N          -7.5135  -12.7190   34.5690 N.am      2 SEC2        0.0000 
     10 N          -6.1200  -13.4880   34.1740 N.am     12 SEL2        0.0000 
     11 N          -8.9070  -11.9500   34.9640 N.am      7 SEP2        0.0000 
     12 NZ         -3.2985  -11.0290   31.9275 N.4       3 LYC4        0.0000 
     13 NZ         -3.4500  -12.0970   32.7400 N.4      13 LYL4        0.0000 
     14 NZ         -3.1470   -9.9610   31.1150 N.4       8 LYP4        0.0000 
     15 Zn         -4.4420  -12.5770   32.3865 Zn        4 ZIC7        0.0000 
     16 Zn         -3.4500  -12.0970   32.7400 Zn       14 ZIL7        0.0000 
     17 N          -3.2985  -11.0290   31.9275 N.am      2 SEC2        0.0000 
     18 N          -3.4500  -12.0970   32.7400 N.am     12 SEL2        0.0000 
     19 N          -3.1470   -9.9610   31.1150 N.am      7 SEP2        0.0000 
     20 N          -0.2175  -12.4585   33.7590 N.am      2 SEC2        0.0000 
     21 N          -1.5300  -12.0410   34.4240 N.am     12 SEL2        0.0000 
     22 N           1.0950  -12.8760   33.0940 N.am      7 SEP2        0.0000 
     23 NZ         -4.3675  -14.5835   30.3485 N.4       3 LYC4        0.0000 
     24 NZ         -4.0650  -14.9310   31.7530 N.4      13 LYL4        0.0000 
     25 NZ         -4.6700  -14.2360   28.9440 N.4       8 LYP4        0.0000 
     26 Zn         -4.7495  -13.9940   31.8930 Zn        4 ZIC7        0.0000 
     27 Zn         -4.0650  -14.9310   31.7530 Zn       14 ZIL7        0.0000 
     28 O           3.1405  -15.9690   34.0290 O.2       1 ALC1        0.0000 
     29 O           2.1720  -17.1020   33.5100 O.2      11 ALL1        0.0000 
     30 O           4.1090  -14.8360   34.5480 O.2       6 ALP1        0.0000 
     31 CA          2.1800  -13.6975   31.6560 C.3       5 GLC5        0.0000 
     32 CA          1.6340  -15.6150   31.6170 C.3      15 GLL5        0.0000 
     33 CA          2.7260  -11.7800   31.6950 C.3      10 GLP5        0.0000 
     34 O           3.5780  -15.3260   32.9925 O.2       1 ALC1        0.0000 
     35 O           3.0470  -15.8160   31.4370 O.2      11 ALL1        0.0000 
     36 CA         -2.3030  -13.9320   25.7405 C.3       5 GLC5        0.0000 
     37 CA         -0.9750  -13.1260   26.7870 C.3      15 GLL5        0.0000 
     38 CA         -3.6310  -14.7380   24.6940 C.3      10 GLP5        0.0000 
     39 CA         -0.3155  -11.9265   25.3705 C.3       5 GLC5        0.0000 
     40 CA          0.3440  -10.7270   23.9540 C.3      10 GLP5        0.0000 
     41 O          -2.9990  -11.5340   27.1405 O.2       1 ALC1        0.0000 
     42 O          -1.7680  -12.0540   26.5020 O.2      11 ALL1        0.0000 
     43 O          -4.2300  -11.0140   27.7790 O.2       6 ALP1        0.0000 
     44 N          -0.0990  -13.8715   24.3420 N.am      2 SEC2        0.0000 
     45 N          -0.3010  -13.8000   25.7880 N.am     12 SEL2        0.0000 
     46 N           0.1030  -13.9430   22.8960 N.am      7 SEP2        0.0000 
     47 CA         -1.5655  -14.8070   25.3715 C.3       5 GLC5        0.0000 
     48 CA          0.5000  -14.8760   26.0490 C.3      15 GLL5        0.0000 
     49 CA          1.0225  -13.2455   24.8360 C.3       5 GLC5        0.0000 
     50 CA          1.5450  -11.6150   23.6230 C.3      10 GLP5        0.0000 
     51 CA          1.7540  -13.7555   26.5960 C.3       5 GLC5        0.0000 
     52 CA          3.0080  -12.6350   27.1430 C.3      10 GLP5        0.0000 
     53 CA          1.1295  -16.0520   24.6270 C.3       5 GLC5        0.0000 
     54 CA          1.7590  -17.2280   23.2050 C.3      10 GLP5        0.0000 
     55 CA         -2.1292  -14.9015   27.6760 C.3       5 GLC5        0.0000 
     56 CA          0.0820  -14.7850   28.4070 C.3      15 GLL5        0.0000 
     57 CA         -3.8950  -15.6070   27.0490 C.3      10 GLP5        0.0000 
     58 CA          1.3015  -13.3554   27.5465 C.3       5 GLC5        0.0000 
     59 CA         -0.8090  -13.6070   28.1990 C.3      15 GLL5        0.0000 
@<TRIPOS>BOND
@<TRIPOS>SUBSTRUCTURE
     1 ALC1       28 GROUP        1 X    ALC  0     ROOT ALC X 1
     2 SEC2        1 GROUP        1 X    SEC  0     **** SEC X 2
     3 LYC4       12 GROUP        1 X    LYC  0     **** LYC X 4
     4 ZIC7        6 GROUP        1 X    ZIC  0     **** ZIC X 5
     5 GLC5       31 GROUP        1 X    GLC  0     **** GLC X 6
     6 ALP1       30 GROUP        1 Y    ALP  0     ROOT ALP Y 8
     7 SEP2        3 GROUP        1 Y    SEP  0     **** SEP Y 9
     8 LYP4       14 GROUP        1 Y    LYP  0     **** LYP Y 11
     9 ZIP7        8 GROUP        1 Y    ZIP  0     **** ZIP Y 12
    10 GLP5       33 GROUP        1 Y    GLP  0     **** GLP Y 13
    11 ALL1       29 GROUP        1 Z    ALL  0     ROOT ALL Z 15
    12 SEL2        2 GROUP        1 Z    SEL  0     **** SEL Z 16
    13 LYL4       13 GROUP        1 Z    LYL  0     **** LYL Z 18
    14 ZIL7        7 GROUP        1 Z    ZIL  0     **** ZIL Z 19
    15 GLL5       32 GROUP        1 Z    GLL  0     **** GLL Z 20
@<TRIPOS>SET

