#    Name: 2zhz_ATP_1_ligand
#    Modification time : Tue Mar 25 10:45:30 2014

@<TRIPOS>MOLECULE
2zhz_ATP_1_ligand
   43    45     1     0     0
SMALL
NO_CHARGES


@<TRIPOS>ATOM
      1 PG         -5.3990  -12.6420   35.2050 P.3       1 ATP201      0.0000 
      2 O1G        -5.5420  -11.1610   34.9410 O.co2     1 ATP201      0.0000 
      3 O2G        -5.8790  -13.0740   36.5600 O.co2     1 ATP201      0.0000 
      4 O3G        -6.1200  -13.4880   34.1740 O.co2     1 ATP201      0.0000 
      5 PB         -2.7560  -12.7530   33.8930 P.3       1 ATP201      0.0000 
      6 O1B        -3.4500  -12.0970   32.7400 O.co2     1 ATP201      0.0000 
      7 O2B        -1.5300  -12.0410   34.4240 O.co2     1 ATP201      0.0000 
      8 O3B        -3.7960  -13.0160   35.1470 O.3       1 ATP201      0.0000 
      9 PA         -3.2730  -15.4480   32.9070 P.3       1 ATP201      0.0000 
     10 O1A        -4.0650  -14.9310   31.7530 O.co2     1 ATP201      0.0000 
     11 O2A        -3.9840  -16.1040   34.0800 O.co2     1 ATP201      0.0000 
     12 O3A        -2.2900  -14.2680   33.4930 O.3       1 ATP201      0.0000 
     13 O5'        -2.2250  -16.4890   32.2760 O.3       1 ATP201      0.0000 
     14 C5'        -1.2680  -17.1460   33.0850 C.3       1 ATP201      0.0000 
     15 C4'         0.0560  -17.3300   32.3310 C.3       1 ATP201      0.0000 
     16 O4'        -0.0750  -17.1330   30.9040 O.3       1 ATP201      0.0000 
     17 C3'         1.1320  -16.3760   32.8360 C.3       1 ATP201      0.0000 
     18 O3'         2.1720  -17.1020   33.5100 O.3       1 ATP201      0.0000 
     19 C2'         1.6340  -15.6150   31.6170 C.3       1 ATP201      0.0000 
     20 O2'         3.0470  -15.8160   31.4370 O.3       1 ATP201      0.0000 
     21 C1'         0.8350  -16.1280   30.4220 C.3       1 ATP201      0.0000 
     22 N9          0.0750  -15.0240   29.7270 N.pl3     1 ATP201      0.0000 
     23 C8         -0.7340  -14.1010   30.3150 C.2       1 ATP201      0.0000 
     24 N7         -1.2670  -13.2480   29.4070 N.2       1 ATP201      0.0000 
     25 C5         -0.8090  -13.6070   28.1990 C.ar      1 ATP201      0.0000 
     26 C6         -0.9750  -13.1260   26.7870 C.ar      1 ATP201      0.0000 
     27 N6         -1.7680  -12.0540   26.5020 N.pl3     1 ATP201      0.0000 
     28 N1         -0.3010  -13.8000   25.7880 N.ar      1 ATP201      0.0000 
     29 C2          0.5000  -14.8760   26.0490 C.ar      1 ATP201      0.0000 
     30 N3          0.6940  -15.3650   27.3120 N.ar      1 ATP201      0.0000 
     31 C4          0.0820  -14.7850   28.4070 C.ar      1 ATP201      0.0000 
     32 H          -1.6077  -18.1470   33.3979 H         1 ATP201      0.0000 
     33 H          -1.0447  -16.5801   34.0043 H         1 ATP201      0.0000 
     34 H           0.4164  -18.3482   32.5282 H         1 ATP201      0.0000 
     35 H           0.6460  -15.6658   33.4930 H         1 ATP201      0.0000 
     36 H           1.3902  -14.5743   31.7557 H         1 ATP201      0.0000 
     37 H           1.5355  -16.5689   29.7208 H         1 ATP201      0.0000 
     38 H          -0.9087  -14.0606   31.2827 H         1 ATP201      0.0000 
     39 H          -2.5514  -11.9129   27.1073 H         1 ATP201      0.0000 
     40 H          -1.4964  -11.5033   25.7128 H         1 ATP201      0.0000 
     41 H           0.9895  -15.3499   25.2435 H         1 ATP201      0.0000 
     42 H           2.8093  -16.4019   33.8320 H         1 ATP201      0.0000 
     43 H           3.4575  -15.5673   32.3143 H         1 ATP201      0.0000 
@<TRIPOS>BOND
     1    2    1 ar   
     2    3    1 ar   
     3    4    1 ar   
     4    8    1 1    
     5    6    5 ar   
     6    7    5 ar   
     7    8    5 1    
     8   12    5 1    
     9   10    9 ar   
    10   11    9 ar   
    11   12    9 1    
    12   13    9 1    
    13   14   13 1    
    14   15   14 1    
    15   32   14 1    
    16   33   14 1    
    17   16   15 1    
    18   17   15 1    
    19   34   15 1    
    20   21   16 1    
    21   18   17 1    
    22   19   17 1    
    23   35   17 1    
    24   42   18 1    
    25   20   19 1    
    26   21   19 1    
    27   36   19 1    
    28   43   20 1    
    29   22   21 1    
    30   37   21 1    
    31   23   22 1    
    32   31   22 1    
    33   24   23 2    
    34   38   23 1    
    35   25   24 1    
    36   26   25 ar   
    37   31   25 ar   
    38   27   26 1    
    39   28   26 ar   
    40   39   27 1    
    41   40   27 1    
    42   29   28 ar   
    43   30   29 ar   
    44   41   29 1    
    45   31   30 ar   
@<TRIPOS>SUBSTRUCTURE
     1 ATP201      1 GROUP   
@<TRIPOS>SET

