#    Name: 4fhi_0S4_1_INTS_M
#    Modification time : Mon Mar 24 20:02:24 2014

@<TRIPOS>MOLECULE
4fhi_0S4_1_INTS_M
  105     0     9     0     0
SMALL
NO_CHARGES


@<TRIPOS>ATOM
      1 CA         -2.3340   37.1865   39.6070 C.3       3 GLC5        0.0000 
      2 CA         -0.3160   36.7080   38.8060 C.3       9 GLL5        0.0000 
      3 CA         -4.3520   37.6650   40.4080 C.3       6 GLP5        0.0000 
      4 CA          3.3905   34.5620   42.2590 C.3       3 GLC5        0.0000 
      5 CA          1.9680   34.0350   41.1440 C.3       9 GLL5        0.0000 
      6 CA          4.8130   35.0890   43.3740 C.3       6 GLP5        0.0000 
      7 CA         -1.9375   33.8925   35.2695 C.3       3 GLC5        0.0000 
      8 CA         -2.1200   33.9640   37.2840 C.3       9 GLL5        0.0000 
      9 CA         -1.7550   33.8210   33.2550 C.3       6 GLP5        0.0000 
     10 CA         -3.8485   34.4985   37.1640 C.3       3 GLC5        0.0000 
     11 CA         -5.5770   35.0330   37.0440 C.3       6 GLP5        0.0000 
     12 CA          0.5460   30.9770   40.7120 C.3       3 GLC5        0.0000 
     13 CA          1.1790   31.5010   38.6730 C.3       9 GLL5        0.0000 
     14 CA         -0.0870   30.4530   42.7510 C.3       6 GLP5        0.0000 
     15 CA          0.4755   28.6870   37.8450 C.3       3 GLC5        0.0000 
     16 CA          2.0930   29.0790   38.5240 C.3       9 GLL5        0.0000 
     17 CA         -1.1420   28.2950   37.1660 C.3       6 GLP5        0.0000 
     18 CA          1.9830   27.7465   37.3400 C.3       3 GLC5        0.0000 
     19 CA          1.8730   26.4140   36.1560 C.3       6 GLP5        0.0000 
     20 CA          2.5045   27.3570   39.3725 C.3       3 GLC5        0.0000 
     21 CA          2.9160   25.6350   40.2210 C.3       6 GLP5        0.0000 
     22 CA          4.1015   28.3920   38.3075 C.3       3 GLC5        0.0000 
     23 CA          6.1100   27.7050   38.0910 C.3       6 GLP5        0.0000 
     24 CA          0.8405   32.2040   33.9535 C.3       3 GLC5        0.0000 
     25 CA          1.7940   32.0730   35.8590 C.3       9 GLL5        0.0000 
     26 CA         -0.1130   32.3350   32.0480 C.3       6 GLP5        0.0000 
     27 CA          0.7740   34.9510   35.7465 C.3       3 GLC5        0.0000 
     28 CA          1.2140   33.0510   36.6450 C.3       9 GLL5        0.0000 
     29 CA          0.3340   36.8510   34.8480 C.3       6 GLP5        0.0000 
     30 CA          4.0540   40.5710   40.4965 C.3       3 GLC5        0.0000 
     31 CA          2.5720   40.2850   38.9640 C.3       9 GLL5        0.0000 
     32 CA          5.5360   40.8570   42.0290 C.3       6 GLP5        0.0000 
     33 CA          2.0595   39.6730   40.6895 C.3       3 GLC5        0.0000 
     34 CA          1.5470   39.0610   42.4150 C.3       6 GLP5        0.0000 
     35 O           4.5740   40.0485   36.4305 O.2       1 ALC1        0.0000 
     36 O           4.0850   40.9080   37.2210 O.2       7 ALL1        0.0000 
     37 O           5.0630   39.1890   35.6400 O.2       4 ALP1        0.0000 
     38 CA          3.1165   28.8785   30.2000 C.3       3 GLC5        0.0000 
     39 CA          4.0600   30.0400   31.4540 C.3       9 GLL5        0.0000 
     40 CA          2.1730   27.7170   28.9460 C.3       6 GLP5        0.0000 
     41 CA          3.8460   31.5215   30.3965 C.3       3 GLC5        0.0000 
     42 CA          3.6320   33.0030   29.3390 C.3       6 GLP5        0.0000 
     43 CA          5.1340   29.2450   29.8580 C.3       3 GLC5        0.0000 
     44 CA          6.2080   28.4500   28.2620 C.3       6 GLP5        0.0000 
     45 CA          6.6220   31.9800   33.3940 C.3       3 GLC5        0.0000 
     46 CA          6.1250   30.0260   32.8060 C.3       9 GLL5        0.0000 
     47 CA          7.1190   33.9340   33.9820 C.3       6 GLP5        0.0000 
     48 CA          7.4695   28.4465   32.2535 C.3       3 GLC5        0.0000 
     49 CA          8.8140   26.8670   31.7010 C.3       6 GLP5        0.0000 
     50 CA          7.6610   30.4185   31.6030 C.3       3 GLC5        0.0000 
     51 CA          9.1970   30.8110   30.4000 C.3       6 GLP5        0.0000 
     52 CA          7.7695   30.6150   33.6410 C.3       3 GLC5        0.0000 
     53 CA          9.4140   31.2040   34.4760 C.3       6 GLP5        0.0000 
     54 CA          3.6855   27.7865   30.4325 C.3       3 GLC5        0.0000 
     55 CA          5.1980   27.8560   31.9190 C.3       9 GLL5        0.0000 
     56 CA          6.7400   27.0745   32.3865 C.3       3 GLC5        0.0000 
     57 CA          8.2820   26.2930   32.8540 C.3       6 GLP5        0.0000 
     58 CA          4.7185   26.2995   31.0585 C.3       3 GLC5        0.0000 
     59 CA          4.2390   24.7430   30.1980 C.3       6 GLP5        0.0000 
     60 CA          5.7030   28.1530   30.0905 C.3       3 GLC5        0.0000 
     61 CA          4.0650   31.9225   34.3790 C.3       3 GLC5        0.0000 
     62 CA          3.4810   30.1570   34.5010 C.3       9 GLL5        0.0000 
     63 CA          4.6490   33.6880   34.2570 C.3       6 GLP5        0.0000 
     64 N           3.9930   27.2715   35.4340 N.am      2 SEC2        0.0000 
     65 N           4.7420   28.1720   34.7600 N.am      8 SEL2        0.0000 
     66 N           3.2440   26.3710   36.1080 N.am      5 SEP2        0.0000 
     67 N           5.7455   28.1840   35.8680 N.am      2 SEC2        0.0000 
     68 N           6.7490   28.1960   36.9760 N.am      5 SEP2        0.0000 
     69 CA         -1.9760   40.5965   40.1940 C.3       3 GLC5        0.0000 
     70 CA         -1.0180   39.1640   38.7830 C.3       9 GLL5        0.0000 
     71 CA         -2.9340   42.0290   41.6050 C.3       6 GLP5        0.0000 
     72 CA         -1.7100   38.2765   40.4240 C.3       3 GLC5        0.0000 
     73 CA         -2.4020   37.3890   42.0650 C.3       6 GLP5        0.0000 
     74 CA         -2.0975   40.2740   38.2095 C.3       3 GLC5        0.0000 
     75 CA         -3.1770   41.3840   37.6360 C.3       6 GLP5        0.0000 
     76 CA          1.1418   37.3430   36.4557 C.3       3 GLC5        0.0000 
     77 CA          1.4790   38.3660   38.1490 C.3       9 GLL5        0.0000 
     78 CA          3.9543   36.2473   38.5493 C.3       3 GLC5        0.0000 
     79 CA          2.4200   37.3040   37.9780 C.3       9 GLL5        0.0000 
     80 CA          5.6880   35.8630   39.0040 C.3       6 GLP5        0.0000 
     81 CA          1.6518   37.7405   39.9597 C.3       3 GLC5        0.0000 
     82 CA          1.3540   37.6460   41.8560 C.3       6 GLP5        0.0000 
     83 CA          0.1010   37.1220   36.7700 C.3       3 GLC5        0.0000 
     84 CA          0.0520   38.0780   38.5780 C.3       9 GLL5        0.0000 
     85 CA          0.8355   36.3115   36.6343 C.3       3 GLC5        0.0000 
     86 CA          0.6530   35.5850   38.6300 C.3       9 GLL5        0.0000 
     87 CA          1.3455   36.7090   40.1382 C.3       3 GLC5        0.0000 
     88 CA          2.0210   35.9590   38.2110 C.3       9 GLL5        0.0000 
     89 CA         -3.0090   34.1650   39.5528 C.3       3 GLC5        0.0000 
     90 CA         -1.4280   33.8680   38.7150 C.3       9 GLL5        0.0000 
     91 CA         -4.2440   34.4140   41.1060 C.3       6 GLP5        0.0000 
     92 CA         -2.2665   32.0235   37.8432 C.3       3 GLC5        0.0000 
     93 CA         -2.7590   30.1310   37.6870 C.3       6 GLP5        0.0000 
     94 CA          1.2923   35.8088   41.3453 C.3       3 GLC5        0.0000 
     95 CA          0.4930   33.9080   40.5250 C.3       9 GLL5        0.0000 
     96 CA         -0.4437   33.9322   41.8712 C.3       3 GLC5        0.0000 
     97 CA         -2.1180   33.8930   42.9080 C.3       6 GLP5        0.0000 
     98 CA          0.5717   32.2122   41.7927 C.3       3 GLC5        0.0000 
     99 CA          1.9095   28.5048   36.6583 C.3       3 GLC5        0.0000 
    100 CA          1.7830   30.4460   37.9040 C.3       9 GLL5        0.0000 
    101 CA          0.3265   29.5771   37.2594 C.3       3 GLC5        0.0000 
    102 CA          2.1090   30.7450   36.4170 C.3       9 GLL5        0.0000 
    103 CA          3.1159   32.9590   35.3243 C.3       3 GLC5        0.0000 
    104 CA          2.8030   27.9767   35.1457 C.3       3 GLC5        0.0000 
    105 CA          0.3895   37.9622   40.2968 C.3       3 GLC5        0.0000 
@<TRIPOS>BOND
@<TRIPOS>SUBSTRUCTURE
     1 ALC1       35 GROUP        1 X    ALC  0     ROOT ALC X 1
     2 SEC2       64 GROUP        1 X    SEC  0     **** SEC X 2
     3 GLC5        1 GROUP        1 X    GLC  0     **** GLC X 6
     4 ALP1       37 GROUP        1 Y    ALP  0     ROOT ALP Y 8
     5 SEP2       66 GROUP        1 Y    SEP  0     **** SEP Y 9
     6 GLP5        3 GROUP        1 Y    GLP  0     **** GLP Y 13
     7 ALL1       36 GROUP        1 Z    ALL  0     ROOT ALL Z 15
     8 SEL2       65 GROUP        1 Z    SEL  0     **** SEL Z 16
     9 GLL5        2 GROUP        1 Z    GLL  0     **** GLL Z 20
@<TRIPOS>SET

