#    Name: 4fhi_0S4_1_ligand
#    Modification time : Mon Mar 24 20:02:24 2014

@<TRIPOS>MOLECULE
4fhi_0S4_1_ligand
   72    73     1     0     0
SMALL
NO_CHARGES


@<TRIPOS>ATOM
      1 C1          2.4200   37.3040   37.9780 C.ar      1 0S4501      0.0000 
      2 C2          1.4790   38.3660   38.1490 C.ar      1 0S4501      0.0000 
      3 C3          0.0520   38.0780   38.5780 C.ar      1 0S4501      0.0000 
      4 C4         -0.3160   36.7080   38.8060 C.ar      1 0S4501      0.0000 
      5 C5          0.6530   35.5850   38.6300 C.ar      1 0S4501      0.0000 
      6 C6          2.0210   35.9590   38.2110 C.ar      1 0S4501      0.0000 
      7 C7          0.1870   34.0650   38.9090 C.3       1 0S4501      0.0000 
      8 C8          0.8700   32.8560   38.0660 C.ar      1 0S4501      0.0000 
      9 C9         -1.4280   33.8680   38.7150 C.3       1 0S4501      0.0000 
     10 C10         0.4930   33.9080   40.5250 C.3       1 0S4501      0.0000 
     11 C11         1.9680   34.0350   41.1440 C.3       1 0S4501      0.0000 
     12 C12        -2.1200   33.9640   37.2840 C.3       1 0S4501      0.0000 
     13 C13         1.1790   31.5010   38.6730 C.ar      1 0S4501      0.0000 
     14 C14         1.7830   30.4460   37.9040 C.ar      1 0S4501      0.0000 
     15 C15         2.1090   30.7450   36.4170 C.ar      1 0S4501      0.0000 
     16 C16         2.0930   29.0790   38.5240 C.3       1 0S4501      0.0000 
     17 C17         1.7940   32.0730   35.8590 C.ar      1 0S4501      0.0000 
     18 C18         1.2140   33.0510   36.6450 C.ar      1 0S4501      0.0000 
     19 O19         1.8510   39.6300   37.9320 O.3       1 0S4501      0.0000 
     20 O22         4.7580   41.9190   36.5890 O.3       1 0S4501      0.0000 
     21 C20         2.5720   40.2850   38.9640 C.3       1 0S4501      0.0000 
     22 C21         3.6980   41.1550   38.4510 C.2       1 0S4501      0.0000 
     23 N23         4.0850   40.9080   37.2210 N.am      1 0S4501      0.0000 
     24 O24         4.2070   42.0300   39.1410 O.2       1 0S4501      0.0000 
     25 C25         4.8400   29.2270   32.5080 C.3       1 0S4501      0.0000 
     26 C26         4.0600   30.0400   31.4540 C.3       1 0S4501      0.0000 
     27 C27         6.1250   30.0260   32.8060 C.3       1 0S4501      0.0000 
     28 C28         5.1980   27.8560   31.9190 C.3       1 0S4501      0.0000 
     29 C29         3.4810   30.1570   34.5010 C.3       1 0S4501      0.0000 
     30 O30         2.6810   29.7770   35.6370 O.3       1 0S4501      0.0000 
     31 C31         3.9850   28.9220   33.7700 C.3       1 0S4501      0.0000 
     32 O32         4.7420   28.1720   34.7600 O.3       1 0S4501      0.0000 
     33 C33        -1.0180   39.1640   38.7830 C.3       1 0S4501      0.0000 
     34 H           3.3716   37.5128   37.6904 H         1 0S4501      0.0000 
     35 H          -1.2635   36.4701   39.0979 H         1 0S4501      0.0000 
     36 H           2.6997   35.1927   38.0884 H         1 0S4501      0.0000 
     37 H          -1.9227   34.6110   39.3940 H         1 0S4501      0.0000 
     38 H          -1.6825   32.8709   39.1611 H         1 0S4501      0.0000 
     39 H           0.0729   32.9116   40.8291 H         1 0S4501      0.0000 
     40 H          -0.1673   34.6541   41.0439 H         1 0S4501      0.0000 
     41 H           0.9413   31.3676   39.6489 H         1 0S4501      0.0000 
     42 H           2.0225   32.2328   34.8757 H         1 0S4501      0.0000 
     43 H           0.9933   33.9885   36.2476 H         1 0S4501      0.0000 
     44 H           3.0123   39.5516   39.6778 H         1 0S4501      0.0000 
     45 H           1.9025   40.9295   39.5786 H         1 0S4501      0.0000 
     46 H           3.9089   40.0270   36.7414 H         1 0S4501      0.0000 
     47 H           4.3526   30.7503   34.8076 H         1 0S4501      0.0000 
     48 H           2.9021   30.7608   33.7897 H         1 0S4501      0.0000 
     49 H           3.1192   28.3377   33.4668 H         1 0S4501      0.0000 
     50 H           2.5888   33.3468   40.7686 H         1 0S4501      0.0000 
     51 H           2.3738   34.9294   40.9562 H         1 0S4501      0.0000 
     52 H           1.9655   33.9169   42.1370 H         1 0S4501      0.0000 
     53 H          -1.9790   34.8599   36.8626 H         1 0S4501      0.0000 
     54 H          -1.7574   33.2813   36.6496 H         1 0S4501      0.0000 
     55 H          -3.1078   33.8180   37.3386 H         1 0S4501      0.0000 
     56 H           2.5138   28.4581   37.8627 H         1 0S4501      0.0000 
     57 H           2.7236   29.1559   39.2963 H         1 0S4501      0.0000 
     58 H           1.2669   28.6293   38.8637 H         1 0S4501      0.0000 
     59 H           4.5867   30.1590   30.6123 H         1 0S4501      0.0000 
     60 H           3.2013   29.5939   31.2018 H         1 0S4501      0.0000 
     61 H           3.8287   30.9542   31.7867 H         1 0S4501      0.0000 
     62 H           6.6984   29.5675   33.4849 H         1 0S4501      0.0000 
     63 H           6.6838   30.1499   31.9860 H         1 0S4501      0.0000 
     64 H           5.9211   30.9378   33.1623 H         1 0S4501      0.0000 
     65 H           5.7642   27.9404   31.0991 H         1 0S4501      0.0000 
     66 H           5.7073   27.2935   32.5703 H         1 0S4501      0.0000 
     67 H           4.3824   27.3386   31.6600 H         1 0S4501      0.0000 
     68 H          -0.7497   39.8215   39.4870 H         1 0S4501      0.0000 
     69 H          -1.1851   39.6836   37.9451 H         1 0S4501      0.0000 
     70 H          -1.8942   38.7735   39.0654 H         1 0S4501      0.0000 
     71 H           5.1101   41.5089   35.7477 H         1 0S4501      0.0000 
     72 H           5.0829   27.3691   34.2710 H         1 0S4501      0.0000 
@<TRIPOS>BOND
     1    2    1 ar   
     2    6    1 ar   
     3   34    1 1    
     4    3    2 ar   
     5   19    2 1    
     6    4    3 ar   
     7   33    3 1    
     8    5    4 ar   
     9   35    4 1    
    10    6    5 ar   
    11    7    5 1    
    12   36    6 1    
    13    8    7 1    
    14    9    7 1    
    15   10    7 1    
    16   13    8 ar   
    17   18    8 ar   
    18   12    9 1    
    19   37    9 1    
    20   38    9 1    
    21   11   10 1    
    22   39   10 1    
    23   40   10 1    
    24   50   11 1    
    25   51   11 1    
    26   52   11 1    
    27   53   12 1    
    28   54   12 1    
    29   55   12 1    
    30   14   13 ar   
    31   41   13 1    
    32   15   14 ar   
    33   16   14 1    
    34   17   15 ar   
    35   30   15 1    
    36   56   16 1    
    37   57   16 1    
    38   58   16 1    
    39   18   17 ar   
    40   42   17 1    
    41   43   18 1    
    42   21   19 1    
    43   23   20 1    
    44   71   20 1    
    45   22   21 1    
    46   44   21 1    
    47   45   21 1    
    48   23   22 am   
    49   24   22 2    
    50   46   23 1    
    51   26   25 1    
    52   27   25 1    
    53   28   25 1    
    54   31   25 1    
    55   59   26 1    
    56   60   26 1    
    57   61   26 1    
    58   62   27 1    
    59   63   27 1    
    60   64   27 1    
    61   65   28 1    
    62   66   28 1    
    63   67   28 1    
    64   30   29 1    
    65   31   29 1    
    66   47   29 1    
    67   48   29 1    
    68   32   31 1    
    69   49   31 1    
    70   72   32 1    
    71   68   33 1    
    72   69   33 1    
    73   70   33 1    
@<TRIPOS>SUBSTRUCTURE
     1 0S4501      1 GROUP   
@<TRIPOS>SET

