#    Name: 1um8_ADP_1_INTS_M
#    Modification time : Tue Mar 25 06:41:20 2014

@<TRIPOS>MOLECULE
1um8_ADP_1_INTS_M
   72     0    12     0     0
SMALL
NO_CHARGES


@<TRIPOS>ATOM
      1 NZ         21.2405   48.4000   23.7905 N.4       3 LYC4        0.0000 
      2 NZ         22.1210   47.8420   22.7400 N.4      11 LYL4        0.0000 
      3 NZ         20.3600   48.9580   24.8410 N.4       7 LYP4        0.0000 
      4 N          22.0445   46.5215   23.0875 N.am      2 SEC2        0.0000 
      5 N          22.1210   47.8420   22.7400 N.am     10 SEL2        0.0000 
      6 N          21.9680   45.2010   23.4350 N.am      6 SEP2        0.0000 
      7 N          21.2405   48.4000   23.7905 N.am      2 SEC2        0.0000 
      8 N          20.3600   48.9580   24.8410 N.am      6 SEP2        0.0000 
      9 N          23.0910   47.2930   21.5005 N.am      2 SEC2        0.0000 
     10 N          24.0610   46.7440   20.2610 N.am      6 SEP2        0.0000 
     11 NZ         19.9690   48.3130   23.6790 N.4       3 LYC4        0.0000 
     12 NZ         19.5780   47.6680   22.5170 N.4      11 LYL4        0.0000 
     13 N          19.3680   46.2130   22.9480 N.am      2 SEC2        0.0000 
     14 N          19.5780   47.6680   22.5170 N.am     10 SEL2        0.0000 
     15 N          19.1580   44.7580   23.3790 N.am      6 SEP2        0.0000 
     16 N          18.3890   46.7610   22.1105 N.am      2 SEC2        0.0000 
     17 N          17.2000   45.8540   21.7040 N.am      6 SEP2        0.0000 
     18 N          18.2900   48.1135   22.0110 N.am      2 SEC2        0.0000 
     19 N          17.0020   48.5590   21.5050 N.am      6 SEP2        0.0000 
     20 N          19.9690   48.3130   23.6790 N.am      2 SEC2        0.0000 
     21 NZ         20.6465   49.2575   23.1570 N.4       3 LYC4        0.0000 
     22 NZ         20.9330   49.5570   21.4730 N.4      11 LYL4        0.0000 
     23 N          19.6210   50.1370   20.6095 N.am      2 SEC2        0.0000 
     24 N          20.9330   49.5570   21.4730 N.am     10 SEL2        0.0000 
     25 N          18.3090   50.7170   19.7460 N.am      6 SEP2        0.0000 
     26 N          18.0410   48.3450   18.6650 N.am      2 SEC2        0.0000 
     27 N          18.7460   47.1930   19.7390 N.am     10 SEL2        0.0000 
     28 N          17.3360   49.4970   17.5910 N.am      6 SEP2        0.0000 
     29 N          20.3110   49.6340   17.6160 N.am      2 SEC2        0.0000 
     30 N          20.3880   48.3190   18.4070 N.am     10 SEL2        0.0000 
     31 N          20.2340   50.9490   16.8250 N.am      6 SEP2        0.0000 
     32 CA         21.3485   44.4765   20.6025 C.3       4 GLC5        0.0000 
     33 CA         21.2940   44.8030   18.5960 C.3      12 GLL5        0.0000 
     34 CA         21.4030   44.1500   22.6090 C.3       8 GLP5        0.0000 
     35 CA         19.6120   40.8335   18.4320 C.3       4 GLC5        0.0000 
     36 CA         19.2660   42.1810   17.4130 C.3      12 GLL5        0.0000 
     37 CA         19.9580   39.4860   19.4510 C.3       8 GLP5        0.0000 
     38 CA         13.4685   43.6285   19.7605 C.3       4 GLC5        0.0000 
     39 CA         14.9820   42.3370   19.8360 C.3      12 GLL5        0.0000 
     40 CA         11.9550   44.9200   19.6850 C.3       8 GLP5        0.0000 
     41 O          12.9995   42.1705   21.4115 O.2       1 ALC1        0.0000 
     42 O          14.3820   42.7290   20.9600 O.2       9 ALL1        0.0000 
     43 O          11.6170   41.6120   21.8630 O.2       5 ALP1        0.0000 
     44 O          14.9820   43.6595   21.7885 O.2       1 ALC1        0.0000 
     45 O          15.5820   44.5900   22.6170 O.2       5 ALP1        0.0000 
     46 N          12.7785   41.6355   18.9950 N.am      2 SEC2        0.0000 
     47 N          14.2500   41.7060   18.8600 N.am     10 SEL2        0.0000 
     48 N          11.3070   41.5650   19.1300 N.am      6 SEP2        0.0000 
     49 CA         13.1520   42.3925   17.6820 C.3       4 GLC5        0.0000 
     50 CA         14.8170   41.2870   17.6910 C.3      12 GLL5        0.0000 
     51 CA         11.4870   43.4980   17.6730 C.3       8 GLP5        0.0000 
     52 CA         13.1030   40.0050   18.0390 C.3       4 GLC5        0.0000 
     53 CA         11.3890   38.7230   18.3870 C.3       8 GLP5        0.0000 
     54 CA         15.1005   43.1555   17.1415 C.3       4 GLC5        0.0000 
     55 CA         15.3840   45.0240   16.5920 C.3       8 GLP5        0.0000 
     56 CA         14.8545   39.6205   18.3355 C.3       4 GLC5        0.0000 
     57 CA         14.8920   37.9540   18.9800 C.3       8 GLP5        0.0000 
     58 CA         18.4435   40.8090   18.9430 C.3       4 GLC5        0.0000 
     59 CA         16.9290   42.1320   18.4350 C.3      12 GLL5        0.0000 
     60 CA         22.7040   43.5567   18.1385 C.3       4 GLC5        0.0000 
     61 CA         20.9800   43.8600   17.3780 C.3      12 GLL5        0.0000 
     62 CA         24.2710   42.7820   18.2900 C.3       8 GLP5        0.0000 
     63 CA         17.4118   44.3252   16.4500 C.3       4 GLC5        0.0000 
     64 CA         19.7920   44.2770   16.4810 C.3      12 GLL5        0.0000 
     65 CA         15.9883   44.4175   20.2135 C.3       4 GLC5        0.0000 
     66 CA         16.3450   42.5730   19.6580 C.3      12 GLL5        0.0000 
     67 CA         16.3130   46.3800   20.6800 C.3       8 GLP5        0.0000 
     68 CA         16.1552   41.7035   21.6840 C.3       4 GLC5        0.0000 
     69 CA         16.6470   40.9520   23.6210 C.3       8 GLP5        0.0000 
     70 CA         15.8401   43.6588   17.8415 C.3       4 GLC5        0.0000 
     71 CA         16.1146   40.4208   19.4890 C.3       4 GLC5        0.0000 
     72 CA         15.9330   38.5480   19.8870 C.3       8 GLP5        0.0000 
@<TRIPOS>BOND
@<TRIPOS>SUBSTRUCTURE
     1 ALC1       41 GROUP        1 X    ALC  0     ROOT ALC X 1
     2 SEC2        4 GROUP        1 X    SEC  0     **** SEC X 2
     3 LYC4        1 GROUP        1 X    LYC  0     **** LYC X 4
     4 GLC5       32 GROUP        1 X    GLC  0     **** GLC X 6
     5 ALP1       43 GROUP        1 Y    ALP  0     ROOT ALP Y 8
     6 SEP2        6 GROUP        1 Y    SEP  0     **** SEP Y 9
     7 LYP4        3 GROUP        1 Y    LYP  0     **** LYP Y 11
     8 GLP5       34 GROUP        1 Y    GLP  0     **** GLP Y 13
     9 ALL1       42 GROUP        1 Z    ALL  0     ROOT ALL Z 15
    10 SEL2        5 GROUP        1 Z    SEL  0     **** SEL Z 16
    11 LYL4        2 GROUP        1 Z    LYL  0     **** LYL Z 18
    12 GLL5       33 GROUP        1 Z    GLL  0     **** GLL Z 20
@<TRIPOS>SET

