#    Name: 1um8_ADP_1_ligand
#    Modification time : Tue Mar 25 06:41:20 2014

@<TRIPOS>MOLECULE
1um8_ADP_1_ligand
   39    41     1     0     0
SMALL
NO_CHARGES


@<TRIPOS>ATOM
      1 PB         20.9710   48.1160   21.8360 P.3       1 ADP487      0.0000 
      2 O1B        22.1210   47.8420   22.7400 O.co2     1 ADP487      0.0000 
      3 O2B        19.5780   47.6680   22.5170 O.co2     1 ADP487      0.0000 
      4 O3B        20.9330   49.5570   21.4730 O.co2     1 ADP487      0.0000 
      5 PA         20.1370   47.1780   19.2900 P.3       1 ADP487      0.0000 
      6 O1A        18.7460   47.1930   19.7390 O.co2     1 ADP487      0.0000 
      7 O2A        20.3880   48.3190   18.4070 O.co2     1 ADP487      0.0000 
      8 O3A        21.0720   47.2390   20.5350 O.3       1 ADP487      0.0000 
      9 O5'        20.3850   45.8830   18.4300 O.3       1 ADP487      0.0000 
     10 C5'        21.2940   44.8030   18.5960 C.3       1 ADP487      0.0000 
     11 C4'        20.9800   43.8600   17.3780 C.3       1 ADP487      0.0000 
     12 O4'        20.5710   42.5830   17.9240 O.3       1 ADP487      0.0000 
     13 C3'        19.7920   44.2770   16.4810 C.3       1 ADP487      0.0000 
     14 O3'        20.1880   45.0300   15.3280 O.3       1 ADP487      0.0000 
     15 C2'        19.0870   42.9760   16.1350 C.3       1 ADP487      0.0000 
     16 O2'        19.5950   42.3570   14.9430 O.3       1 ADP487      0.0000 
     17 C1'        19.2660   42.1810   17.4130 C.3       1 ADP487      0.0000 
     18 N9         18.2070   42.4530   18.4850 N.pl3     1 ADP487      0.0000 
     19 C8         18.4210   43.0690   19.6830 C.2       1 ADP487      0.0000 
     20 N7         17.2910   43.1300   20.3680 N.2       1 ADP487      0.0000 
     21 C5         16.3450   42.5730   19.6580 C.ar      1 ADP487      0.0000 
     22 C6         14.9820   42.3370   19.8360 C.ar      1 ADP487      0.0000 
     23 N6         14.3820   42.7290   20.9600 N.pl3     1 ADP487      0.0000 
     24 N1         14.2500   41.7060   18.8600 N.ar      1 ADP487      0.0000 
     25 C2         14.8170   41.2870   17.6910 C.ar      1 ADP487      0.0000 
     26 N3         16.1470   41.5060   17.4980 N.ar      1 ADP487      0.0000 
     27 C4         16.9290   42.1320   18.4350 C.ar      1 ADP487      0.0000 
     28 H          21.1164   44.2358   19.4848 H         1 ADP487      0.0000 
     29 H          22.3182   45.0972   18.5081 H         1 ADP487      0.0000 
     30 H          21.8496   43.7420   16.7850 H         1 ADP487      0.0000 
     31 H          19.1118   44.8431   17.1245 H         1 ADP487      0.0000 
     32 H          18.0257   43.2185   16.0620 H         1 ADP487      0.0000 
     33 H          19.2825   41.1359   17.1771 H         1 ADP487      0.0000 
     34 H          19.2918   43.4081   19.9719 H         1 ADP487      0.0000 
     35 H          14.7362   43.5649   21.3793 H         1 ADP487      0.0000 
     36 H          13.6317   42.1519   21.2826 H         1 ADP487      0.0000 
     37 H          14.2514   40.8170   16.9737 H         1 ADP487      0.0000 
     38 H          20.3418   44.3474   14.6135 H         1 ADP487      0.0000 
     39 H          20.3239   41.7491   15.2577 H         1 ADP487      0.0000 
@<TRIPOS>BOND
     1    2    1 ar   
     2    3    1 ar   
     3    4    1 ar   
     4    8    1 1    
     5    6    5 ar   
     6    7    5 ar   
     7    8    5 1    
     8    9    5 1    
     9   10    9 1    
    10   11   10 1    
    11   28   10 1    
    12   29   10 1    
    13   12   11 1    
    14   13   11 1    
    15   30   11 1    
    16   17   12 1    
    17   14   13 1    
    18   15   13 1    
    19   31   13 1    
    20   38   14 1    
    21   16   15 1    
    22   17   15 1    
    23   32   15 1    
    24   39   16 1    
    25   18   17 1    
    26   33   17 1    
    27   19   18 1    
    28   27   18 1    
    29   20   19 2    
    30   34   19 1    
    31   21   20 1    
    32   22   21 ar   
    33   27   21 ar   
    34   23   22 1    
    35   24   22 ar   
    36   35   23 1    
    37   36   23 1    
    38   25   24 ar   
    39   26   25 ar   
    40   37   25 1    
    41   27   26 ar   
@<TRIPOS>SUBSTRUCTURE
     1 ADP487      1 GROUP   
@<TRIPOS>SET

