#    Name: 1E2N_1_CAVITY_N1_6.mol2
#    Modification time : Mon Mar 10 19:35:20 2014

@<TRIPOS>MOLECULE
1E2N_1_CAVITY_N1_6.mol2
   61     0     6     0     0
SMALL
NO_CHARGES


@<TRIPOS>ATOM
      1 CA         51.9446   33.8752    1.6035 C.3       5 GLY6        0.0000 
      2 CA         52.2568   34.2655    0.1893 C.3       5 GLY6        0.0000 
      3 CA         50.7610   33.0878    1.1249 C.3       5 GLY6        0.0000 
      4 CA         51.0733   33.4780   -0.2894 C.3       5 GLY6        0.0000 
      5 CA         51.3855   33.8683   -1.7037 C.3       5 GLY6        0.0000 
      6 CA         49.5774   32.3003    0.6463 C.3       5 GLY6        0.0000 
      7 CA         49.8897   32.6906   -0.7680 C.3       5 GLY6        0.0000 
      8 OG         50.2020   33.0808   -2.1823 O.2       1 SER1        0.0000 
      9 CA         48.3938   31.5129    0.1676 C.3       5 GLY6        0.0000 
     10 CA         48.7061   31.9031   -1.2466 C.3       5 GLY6        0.0000 
     11 CZ         47.5225   31.1157   -1.7253 C.ar      4 PHE5        0.0000 
     12 O          52.5735   36.2685    0.8119 O.2       2 ALA2        0.0000 
     13 NZ         51.0776   35.0908    1.7475 N.2       3 LYS4        0.0000 
     14 CZ         49.5817   33.9131    2.6832 C.ar      4 PHE5        0.0000 
     15 CA         49.8940   34.3033    1.2689 C.3       5 GLY6        0.0000 
     16 CA         50.2063   34.6936   -0.1454 C.3       5 GLY6        0.0000 
     17 CA         48.3982   33.1256    2.2046 C.3       5 GLY6        0.0000 
     18 CA         48.7104   33.5159    0.7903 C.3       5 GLY6        0.0000 
     19 DU         49.0227   33.9062   -0.6240 H         6 CUB7        0.0000 
     20 N          49.3350   34.2964   -2.0383 N.2       2 ALA2        0.0000 
     21 CA         47.5269   32.7285    0.3116 C.3       5 GLY6        0.0000 
     22 OG         47.8391   33.1187   -1.1026 O.2       1 SER1        0.0000 
     23 OG         48.1514   33.5090   -2.5169 O.2       1 SER1        0.0000 
     24 CA         46.3433   31.9410   -0.1670 C.3       5 GLY6        0.0000 
     25 CZ         46.6556   32.3313   -1.5813 C.ar      4 PHE5        0.0000 
     26 OG         46.9678   32.7216   -2.9955 O.2       1 SER1        0.0000 
     27 CA         45.4720   31.5439   -2.0599 C.3       5 GLY6        0.0000 
     28 O          45.7843   31.9341   -3.4742 O.2       2 ALA2        0.0000 
     29 NZ         50.2106   36.3063    1.8915 N.2       3 LYS4        0.0000 
     30 CA         50.5229   36.6966    0.4773 C.3       5 GLY6        0.0000 
     31 CZ         48.7148   35.1286    2.8272 C.ar      4 PHE5        0.0000 
     32 DU         49.0271   35.5189    1.4129 H         6 CUB7        0.0000 
     33 CA         49.3393   35.9092   -0.0014 C.3       5 GLY6        0.0000 
     34 CA         47.5312   34.3412    2.3486 C.3       5 GLY6        0.0000 
     35 CA         47.8435   34.7315    0.9343 C.3       5 GLY6        0.0000 
     36 CZ         48.1558   35.1217   -0.4800 C.ar      4 PHE5        0.0000 
     37 O          48.4680   35.5120   -1.8943 O.2       2 ALA2        0.0000 
     38 CA         46.6599   33.9440    0.4557 C.3       5 GLY6        0.0000 
     39 CZ         46.9722   34.3343   -0.9586 C.ar      4 PHE5        0.0000 
     40 CA         45.4763   33.1566   -0.0230 C.3       5 GLY6        0.0000 
     41 CZ         45.7886   33.5469   -1.4372 C.ar      4 PHE5        0.0000 
     42 N          44.2927   32.3692   -0.5016 N.2       2 ALA2        0.0000 
     43 CZ         44.6050   32.7594   -1.9159 C.ar      4 PHE5        0.0000 
     44 CZ         44.9173   33.1497   -3.3302 C.ar      4 PHE5        0.0000 
     45 N          43.4214   31.9720   -2.3945 N.2       2 ALA2        0.0000 
     46 O          49.6559   37.9122    0.6213 O.2       2 ALA2        0.0000 
     47 CZ         47.8478   36.3442    2.9712 C.ar      4 PHE5        0.0000 
     48 O          48.1601   36.7345    1.5569 O.2       2 ALA2        0.0000 
     49 OG         48.4724   37.1248    0.1426 O.2       1 SER1        0.0000 
     50 CZ         46.3520   35.1665    3.9068 C.ar      4 PHE5        0.0000 
     51 CA         46.6642   35.5568    2.4926 C.3       5 GLY6        0.0000 
     52 CZ         46.9765   35.9471    1.0783 C.ar      4 PHE5        0.0000 
     53 CZ         47.2888   36.3373   -0.3360 C.ar      4 PHE5        0.0000 
     54 CA         45.4807   34.7694    2.0139 C.3       5 GLY6        0.0000 
     55 CZ         45.7929   35.1596    0.5997 C.ar      4 PHE5        0.0000 
     56 CA         44.2971   33.9819    1.5353 C.3       5 GLY6        0.0000 
     57 CZ         44.6094   34.3722    0.1210 C.ar      4 PHE5        0.0000 
     58 CA         51.9402   32.2624   -0.4334 C.3       5 GLY6        0.0000 
     59 CA         45.7973   36.7724    2.6366 C.3       5 GLY6        0.0000 
     60 CZ         46.1096   37.1626    1.2223 C.ar      4 PHE5        0.0000 
     61 CZ         44.6137   35.9849    2.1579 C.ar      4 PHE5        0.0000 
@<TRIPOS>BOND
@<TRIPOS>SUBSTRUCTURE
     1 SER1        8 GROUP   
     2 ALA2       12 GROUP   
     3 LYS4       13 GROUP   
     4 PHE5       11 GROUP   
     5 GLY6        1 GROUP   
     6 CUB7       19 GROUP   
@<TRIPOS>SET

