#    Name: 1e2n_RCA_1_INTS_M
#    Modification time : Mon Mar 24 22:46:16 2014

@<TRIPOS>MOLECULE
1e2n_RCA_1_INTS_M
   41     0     9     0     0
SMALL
NO_CHARGES


@<TRIPOS>ATOM
      1 N          41.8185   34.3215    1.6060 N.am      2 SEC2        0.0000 
      2 N          42.9340   35.0230    1.9530 N.am      8 SEL2        0.0000 
      3 N          40.7030   33.6200    1.2590 N.am      5 SEP2        0.0000 
      4 CA         44.6645   37.0170    4.4600 C.3       3 GLC5        0.0000 
      5 CA         45.3400   36.6850    2.4570 C.3       9 GLL5        0.0000 
      6 CA         43.9890   37.3490    6.4630 C.3       6 GLP5        0.0000 
      7 CA         46.2515   38.1610    2.9170 C.3       3 GLC5        0.0000 
      8 CA         47.1630   39.6370    3.3770 C.3       6 GLP5        0.0000 
      9 CA         44.2285   38.4920    2.2580 C.3       3 GLC5        0.0000 
     10 CA         43.1170   40.2990    2.0590 C.3       6 GLP5        0.0000 
     11 O          42.8855   32.8995    0.2710 O.2       1 ALC1        0.0000 
     12 O          43.9640   33.7310    0.4490 O.2       7 ALL1        0.0000 
     13 O          41.8070   32.0680    0.0930 O.2       4 ALP1        0.0000 
     14 CA         49.9030   34.8975    3.6825 C.3       3 GLC5        0.0000 
     15 CA         50.0940   35.8380    1.7500 C.3       9 GLL5        0.0000 
     16 CA         49.7120   33.9570    5.6150 C.3       6 GLP5        0.0000 
     17 O          51.6090   35.4265    3.2910 O.2       1 ALC1        0.0000 
     18 O          51.1550   34.8870    2.2220 O.2       7 ALL1        0.0000 
     19 O          52.0630   35.9660    4.3600 O.2       4 ALP1        0.0000 
     20 CA         50.7350   37.6710   -0.6920 C.3       3 GLC5        0.0000 
     21 CA         50.7100   36.7520    0.6480 C.3       9 GLL5        0.0000 
     22 CA         50.7600   38.5900   -2.0320 C.3       6 GLP5        0.0000 
     23 N          49.3735   38.8400    1.6830 N.am      2 SEC2        0.0000 
     24 N          50.6600   38.0720    1.1320 N.am      8 SEL2        0.0000 
     25 N          48.0870   39.6080    2.2340 N.am      5 SEP2        0.0000 
     26 N          49.7610   39.1775    0.6585 N.am      2 SEC2        0.0000 
     27 N          48.8620   40.2830    0.1850 N.am      5 SEP2        0.0000 
     28 CA         49.1100   33.9760    3.9680 C.3       3 GLC5        0.0000 
     29 CA         48.5080   33.9950    2.3210 C.3       9 GLL5        0.0000 
     30 CA         49.5165   32.3475    2.4850 C.3       3 GLC5        0.0000 
     31 CA         50.5250   30.7000    2.6490 C.3       6 GLP5        0.0000 
     32 CA         44.5455   36.8075    0.4277 C.3       3 GLC5        0.0000 
     33 CA         45.2780   35.5490    1.5000 C.3       9 GLL5        0.0000 
     34 CA         43.7820   37.4980   -1.1230 C.3       6 GLP5        0.0000 
     35 CA         45.9120   34.0005    2.3629 C.3       3 GLC5        0.0000 
     36 CA         45.9850   32.3500    3.3560 C.3       6 GLP5        0.0000 
     37 CA         46.4835   36.5093   -0.6797 C.3       3 GLC5        0.0000 
     38 CA         46.3690   35.1850    0.7610 C.3       9 GLL5        0.0000 
     39 CA         45.9280   37.4840   -2.1660 C.3       6 GLP5        0.0000 
     40 CA         47.3435   33.4185    2.5633 C.3       3 GLC5        0.0000 
     41 CA         48.8960   34.9790    1.2200 C.3       9 GLL5        0.0000 
@<TRIPOS>BOND
@<TRIPOS>SUBSTRUCTURE
     1 ALC1       11 GROUP        1 X    ALC  0     ROOT ALC X 1
     2 SEC2        1 GROUP        1 X    SEC  0     **** SEC X 2
     3 GLC5        4 GROUP        1 X    GLC  0     **** GLC X 6
     4 ALP1       13 GROUP        1 Y    ALP  0     ROOT ALP Y 8
     5 SEP2        3 GROUP        1 Y    SEP  0     **** SEP Y 9
     6 GLP5        6 GROUP        1 Y    GLP  0     **** GLP Y 13
     7 ALL1       12 GROUP        1 Z    ALL  0     ROOT ALL Z 15
     8 SEL2        2 GROUP        1 Z    SEL  0     **** SEL Z 16
     9 GLL5        5 GROUP        1 Z    GLL  0     **** GLL Z 20
@<TRIPOS>SET

