#    Name: 1e2n_RCA_1_ligand
#    Modification time : Mon Mar 24 22:46:16 2014

@<TRIPOS>MOLECULE
1e2n_RCA_1_ligand
   37    38     1     0     0
SMALL
NO_CHARGES


@<TRIPOS>ATOM
      1 O2         42.9340   35.0230    1.9530 O.2       1 RCA500      0.0000 
      2 C3         45.2780   35.5490    1.5000 C.2       1 RCA500      0.0000 
      3 C4         45.3400   36.6850    2.4570 C.3       1 RCA500      0.0000 
      4 C5         46.3690   35.1850    0.7610 C.2       1 RCA500      0.0000 
      5 C1         45.0990   33.3610   -0.3090 C.2       1 RCA500      0.0000 
      6 N1         46.2960   34.1070   -0.1380 N.am      1 RCA500      0.0000 
      7 C2         44.0040   34.8270    1.3770 C.2       1 RCA500      0.0000 
      8 N2         43.9640   33.7310    0.4490 N.am      1 RCA500      0.0000 
      9 O1         45.0790   32.4270   -1.1030 O.2       1 RCA500      0.0000 
     10 C11        50.0940   35.8380    1.7500 C.3       1 RCA500      0.0000 
     11 O4         52.3170   32.9590    1.7190 O.2       1 RCA500      0.0000 
     12 O3         48.7240   33.6120   -0.8210 O.2       1 RCA500      0.0000 
     13 N4         51.1550   34.8870    2.2220 N.am      1 RCA500      0.0000 
     14 C10        51.4570   33.7720    1.4010 C.2       1 RCA500      0.0000 
     15 C12        50.7100   36.7520    0.6480 C.3       1 RCA500      0.0000 
     16 O5         50.6600   38.0720    1.1320 O.3       1 RCA500      0.0000 
     17 C7         48.8960   34.9790    1.2200 C.3       1 RCA500      0.0000 
     18 N3         50.6960   33.5570    0.2050 N.am      1 RCA500      0.0000 
     19 C9         49.4240   34.1590    0.0240 C.2       1 RCA500      0.0000 
     20 C6         47.7090   35.8840    0.8520 C.3       1 RCA500      0.0000 
     21 C8         48.5080   33.9950    2.3210 C.3       1 RCA500      0.0000 
     22 H          47.1280   33.8461   -0.6899 H         1 RCA500      0.0000 
     23 H          43.0848   33.2094    0.3404 H         1 RCA500      0.0000 
     24 H          49.7591   36.4356    2.5602 H         1 RCA500      0.0000 
     25 H          51.6069   35.0667    3.0847 H         1 RCA500      0.0000 
     26 H          50.1187   36.6057   -0.2501 H         1 RCA500      0.0000 
     27 H          51.7221   36.4003    0.4758 H         1 RCA500      0.0000 
     28 H          51.0838   32.9559   -0.5295 H         1 RCA500      0.0000 
     29 H          47.6460   36.6981    1.6016 H         1 RCA500      0.0000 
     30 H          47.9318   36.3741   -0.1169 H         1 RCA500      0.0000 
     31 H          46.0274   36.5349    3.1676 H         1 RCA500      0.0000 
     32 H          45.5735   37.5433    2.0000 H         1 RCA500      0.0000 
     33 H          44.4656   36.8282    2.9206 H         1 RCA500      0.0000 
     34 H          49.2658   33.3881    2.5607 H         1 RCA500      0.0000 
     35 H          48.2327   34.4654    3.1594 H         1 RCA500      0.0000 
     36 H          47.7423   33.4134    2.0464 H         1 RCA500      0.0000 
     37 H          51.6128   38.3193    1.3081 H         1 RCA500      0.0000 
@<TRIPOS>BOND
     1    7    1 2    
     2    3    2 1    
     3    4    2 2    
     4    7    2 1    
     5   31    3 1    
     6   32    3 1    
     7   33    3 1    
     8    6    4 1    
     9   20    4 1    
    10    6    5 1    
    11    8    5 1    
    12    9    5 2    
    13   22    6 1    
    14    8    7 1    
    15   23    8 1    
    16   13   10 1    
    17   15   10 1    
    18   17   10 1    
    19   24   10 1    
    20   14   11 2    
    21   19   12 2    
    22   14   13 1    
    23   25   13 1    
    24   18   14 1    
    25   16   15 1    
    26   26   15 1    
    27   27   15 1    
    28   37   16 1    
    29   19   17 1    
    30   20   17 1    
    31   21   17 1    
    32   19   18 1    
    33   28   18 1    
    34   29   20 1    
    35   30   20 1    
    36   34   21 1    
    37   35   21 1    
    38   36   21 1    
@<TRIPOS>SUBSTRUCTURE
     1 RCA500      1 GROUP   
@<TRIPOS>SET

