#    Name: 2az5_307_2_INTS_M
#    Modification time : Mon Mar 24 19:43:38 2014

@<TRIPOS>MOLECULE
2az5_307_2_INTS_M
   63     0     3     0     0
SMALL
NO_CHARGES


@<TRIPOS>ATOM
      1 CA        -13.5685   66.4410   17.3585 C.3       1 GLC5        0.0000 
      2 CA        -13.4500   68.6110   17.4150 C.3       3 GLL5        0.0000 
      3 CA        -13.6870   64.2710   17.3020 C.3       2 GLP5        0.0000 
      4 CA        -12.0475   71.8180   16.8765 C.3       1 GLC5        0.0000 
      5 CA        -12.8540   69.7990   17.4530 C.3       3 GLL5        0.0000 
      6 CA        -11.2410   73.8370   16.3000 C.3       2 GLP5        0.0000 
      7 CA        -13.1785   72.4330   17.2315 C.3       1 GLC5        0.0000 
      8 CA        -13.8140   70.5990   17.8780 C.3       3 GLL5        0.0000 
      9 CA        -12.5430   74.2670   16.5850 C.3       2 GLP5        0.0000 
     10 CA        -15.3520   72.0005   17.9015 C.3       1 GLC5        0.0000 
     11 CA        -16.8900   73.4020   17.9250 C.3       2 GLP5        0.0000 
     12 CA        -11.7375   71.7930   15.6600 C.3       1 GLC5        0.0000 
     13 CA        -12.4890   70.2660   16.2900 C.3       3 GLL5        0.0000 
     14 CA        -10.9860   73.3200   15.0300 C.3       2 GLP5        0.0000 
     15 CA         -8.6360   61.5545   19.1870 C.3       1 GLC5        0.0000 
     16 CA         -9.3400   63.3890   19.7550 C.3       3 GLL5        0.0000 
     17 CA         -7.9320   59.7200   18.6190 C.3       2 GLP5        0.0000 
     18 CA         -7.7420   63.9655   18.3520 C.3       1 GLC5        0.0000 
     19 CA         -6.1440   64.5420   16.9490 C.3       2 GLP5        0.0000 
     20 CA         -4.7430   63.6950   20.7200 C.3       1 GLC5        0.0000 
     21 CA         -5.3620   64.6010   21.8080 C.3       3 GLL5        0.0000 
     22 CA         -4.1240   62.7890   19.6320 C.3       2 GLP5        0.0000 
     23 CA         -6.2665   70.8675   24.5635 C.3       1 GLC5        0.0000 
     24 CA         -6.8260   69.2890   23.7320 C.3       3 GLL5        0.0000 
     25 CA         -5.7070   72.4460   25.3950 C.3       2 GLP5        0.0000 
     26 CA         -6.4320   72.6395   20.9190 C.3       1 GLC5        0.0000 
     27 CA         -5.4290   70.8250   21.1340 C.3       3 GLL5        0.0000 
     28 CA         -7.4350   74.4540   20.7040 C.3       2 GLP5        0.0000 
     29 CA         -6.9540   72.4695   19.8255 C.3       1 GLC5        0.0000 
     30 CA         -6.4730   70.4850   18.9470 C.3       3 GLL5        0.0000 
     31 CA         -8.6240   72.4825   17.5665 C.3       1 GLC5        0.0000 
     32 CA         -7.1270   70.9890   17.8170 C.3       3 GLL5        0.0000 
     33 CA        -10.1210   73.9760   17.3160 C.3       2 GLP5        0.0000 
     34 CA         -9.6870   72.0075   15.3630 C.3       1 GLC5        0.0000 
     35 CA         -8.3880   70.6950   15.6960 C.3       3 GLL5        0.0000 
     36 CA         -6.4810   69.7525   15.5165 C.3       1 GLC5        0.0000 
     37 CA         -4.5740   68.8100   15.3370 C.3       2 GLP5        0.0000 
     38 CA         -8.8355   70.9130   13.8970 C.3       1 GLC5        0.0000 
     39 CA         -9.2830   71.1310   12.0980 C.3       2 GLP5        0.0000 
     40 CA         -8.6300   66.4375   14.9330 C.3       1 GLC5        0.0000 
     41 CA         -8.2370   67.7290   16.1880 C.3       3 GLL5        0.0000 
     42 CA         -9.0230   65.1460   13.6780 C.3       2 GLP5        0.0000 
     43 CA        -10.0870   67.5565   15.3790 C.3       1 GLC5        0.0000 
     44 CA        -11.9370   67.3840   14.5700 C.3       2 GLP5        0.0000 
     45 CA         -6.4055   68.2695   15.7625 C.3       1 GLC5        0.0000 
     46 CA        -15.1410   69.8805   17.6115 C.3       1 GLC5        0.0000 
     47 CA        -16.7990   69.8590   17.5670 C.3       2 GLP5        0.0000 
     48 CA        -12.3788   68.5598   15.7160 C.3       1 GLC5        0.0000 
     49 CA        -13.6160   70.1175   15.2520 C.3       1 GLC5        0.0000 
     50 CA        -14.2460   70.1510   13.5310 C.3       2 GLP5        0.0000 
     51 CA        -11.9580   72.5968   20.1090 C.3       1 GLC5        0.0000 
     52 CA        -11.5080   70.9950   19.1360 C.3       3 GLL5        0.0000 
     53 CA        -12.8680   74.1910   20.5640 C.3       2 GLP5        0.0000 
     54 CA        -10.5845   72.4892   18.4850 C.3       1 GLC5        0.0000 
     55 CA        -11.9925   64.5388   18.1472 C.3       1 GLC5        0.0000 
     56 CA        -10.3900   65.5000   19.0630 C.3       3 GLL5        0.0000 
     57 CA         -4.9292   70.0558   18.0245 C.3       1 GLC5        0.0000 
     58 CA         -6.3760   69.1160   19.1650 C.3       3 GLL5        0.0000 
     59 CA         -3.4340   70.3110   16.9930 C.3       2 GLP5        0.0000 
     60 CA         -5.3635   69.3932   17.3480 C.3       1 GLC5        0.0000 
     61 CA         -6.9640   68.2280   18.2660 C.3       3 GLL5        0.0000 
     62 CA         -5.4247   70.4295   17.1785 C.3       1 GLC5        0.0000 
     63 CA         -6.9545   66.3221   16.9473 C.3       1 GLC5        0.0000 
@<TRIPOS>BOND
@<TRIPOS>SUBSTRUCTURE
     1 GLC5        1 GROUP        1 X    GLC  0     ROOT GLC X 6
     2 GLP5        3 GROUP        1 Y    GLP  0     ROOT GLP Y 13
     3 GLL5        2 GROUP        1 Z    GLL  0     ROOT GLL Z 20
@<TRIPOS>SET

