#    Name: 2az5_307_2_ligand
#    Modification time : Mon Mar 24 19:43:38 2014

@<TRIPOS>MOLECULE
2az5_307_2_ligand
   73    77     1     0     0
SMALL
NO_CHARGES


@<TRIPOS>ATOM
      1 F9        -13.4500   68.6110   17.4150 F         1 3072        0.0000 
      2 C7        -12.8540   69.7990   17.4530 C.3       1 3072        0.0000 
      3 F10       -13.8140   70.5990   17.8780 F         1 3072        0.0000 
      4 F8        -12.4890   70.2660   16.2900 F         1 3072        0.0000 
      5 C6        -11.8010   69.7860   18.5290 C.ar      1 3072        0.0000 
      6 C11       -11.1790   68.6140   18.9860 C.ar      1 3072        0.0000 
      7 C5        -11.5080   70.9950   19.1360 C.ar      1 3072        0.0000 
      8 C4        -10.5880   71.0100   20.1720 C.ar      1 3072        0.0000 
      9 C3         -9.9770   69.8290   20.5850 C.ar      1 3072        0.0000 
     10 C1        -10.2260   68.5740   20.0370 C.ar      1 3072        0.0000 
     11 N2         -9.5700   67.4860   20.5280 N.pl3     1 3072        0.0000 
     12 C12        -8.6910   67.5740   21.5580 C.2       1 3072        0.0000 
     13 C16        -9.6780   66.2230   20.0840 C.ar      1 3072        0.0000 
     14 C20       -10.3900   65.5000   19.0630 C.ar      1 3072        0.0000 
     15 C19       -10.2060   64.1130   18.9220 C.ar      1 3072        0.0000 
     16 C18        -9.3400   63.3890   19.7550 C.ar      1 3072        0.0000 
     17 C15        -8.8220   65.4870   20.8930 C.ar      1 3072        0.0000 
     18 C17        -8.6240   64.0640   20.7470 C.ar      1 3072        0.0000 
     19 C13        -8.1580   66.2960   21.8110 C.2       1 3072        0.0000 
     20 C14        -7.1960   65.8910   22.9250 C.3       1 3072        0.0000 
     21 N21        -5.7850   65.6210   22.7410 N.4       1 3072        0.0000 
     22 C22        -5.3620   64.6010   21.8080 C.3       1 3072        0.0000 
     23 C23        -4.7480   66.2840   23.5380 C.3       1 3072        0.0000 
     24 C24        -5.3480   67.3990   24.3940 C.3       1 3072        0.0000 
     25 N25        -5.5550   68.5870   23.5570 N.3       1 3072        0.0000 
     26 C28        -6.8260   69.2890   23.7320 C.3       1 3072        0.0000 
     27 C26        -4.5480   69.0330   22.5920 C.3       1 3072        0.0000 
     28 C27        -5.2400   69.5010   21.3240 C.2       1 3072        0.0000 
     29 C29        -5.4290   70.8250   21.1340 C.2       1 3072        0.0000 
     30 O30        -5.8900   71.3370   19.8440 O.3       1 3072        0.0000 
     31 C31        -6.4730   70.4850   18.9470 C.ar      1 3072        0.0000 
     32 C32        -6.3760   69.1160   19.1650 C.ar      1 3072        0.0000 
     33 C35        -6.9640   68.2280   18.2660 C.ar      1 3072        0.0000 
     34 C33        -5.6730   68.6200   20.4000 C.2       1 3072        0.0000 
     35 O34        -5.4990   67.4160   20.5420 O.2       1 3072        0.0000 
     36 C40        -7.1270   70.9890   17.8170 C.ar      1 3072        0.0000 
     37 C38        -7.7040   70.1070   16.9110 C.ar      1 3072        0.0000 
     38 C39        -8.3880   70.6950   15.6960 C.3       1 3072        0.0000 
     39 C36        -7.6220   68.7230   17.1400 C.ar      1 3072        0.0000 
     40 C37        -8.2370   67.7290   16.1880 C.3       1 3072        0.0000 
     41 H         -11.4309   67.7034   18.5241 H         1 3072        0.0000 
     42 H         -11.9591   71.8564   18.8279 H         1 3072        0.0000 
     43 H         -10.3530   71.8973   20.6407 H         1 3072        0.0000 
     44 H          -9.2706   69.8903   21.3745 H         1 3072        0.0000 
     45 H          -8.4534   68.3591   22.0489 H         1 3072        0.0000 
     46 H         -11.0248   66.0072   18.4490 H         1 3072        0.0000 
     47 H         -10.7276   63.6107   18.1783 H         1 3072        0.0000 
     48 H          -9.2360   62.3815   19.6359 H         1 3072        0.0000 
     49 H          -7.9788   63.5879   21.3577 H         1 3072        0.0000 
     50 H          -7.6868   64.9817   23.4569 H         1 3072        0.0000 
     51 H          -7.3206   66.6885   23.7611 H         1 3072        0.0000 
     52 H          -5.6828   66.6184   21.7306 H         1 3072        0.0000 
     53 H          -3.9819   66.7239   22.8892 H         1 3072        0.0000 
     54 H          -4.2536   65.5679   24.2045 H         1 3072        0.0000 
     55 H          -4.6613   67.6142   25.2103 H         1 3072        0.0000 
     56 H          -6.2908   67.0465   24.8075 H         1 3072        0.0000 
     57 H          -3.8681   68.2189   22.3374 H         1 3072        0.0000 
     58 H          -3.9643   69.8611   22.9961 H         1 3072        0.0000 
     59 H          -5.2604   71.5203   21.8742 H         1 3072        0.0000 
     60 H          -6.9136   67.2185   18.4305 H         1 3072        0.0000 
     61 H          -7.1776   71.9992   17.6630 H         1 3072        0.0000 
     62 H          -4.3662   64.5147   21.7784 H         1 3072        0.0000 
     63 H          -5.7270   63.7020   22.0499 H         1 3072        0.0000 
     64 H          -5.6668   64.8002   20.8766 H         1 3072        0.0000 
     65 H          -6.9407   69.6216   24.6681 H         1 3072        0.0000 
     66 H          -6.8981   70.0827   23.1280 H         1 3072        0.0000 
     67 H          -7.6074   68.6975   23.5333 H         1 3072        0.0000 
     68 H          -7.7557   71.2315   15.1371 H         1 3072        0.0000 
     69 H          -8.7710   69.9848   15.1054 H         1 3072        0.0000 
     70 H          -9.1409   71.3017   15.9509 H         1 3072        0.0000 
     71 H          -7.5529   67.1063   15.8081 H         1 3072        0.0000 
     72 H          -8.9299   67.1647   16.6368 H         1 3072        0.0000 
     73 H          -8.6827   68.1814   15.4155 H         1 3072        0.0000 
@<TRIPOS>BOND
     1    2    1 1    
     2    3    2 1    
     3    4    2 1    
     4    5    2 1    
     5    6    5 ar   
     6    7    5 ar   
     7   10    6 ar   
     8   41    6 1    
     9    8    7 ar   
    10   42    7 1    
    11    9    8 ar   
    12   43    8 1    
    13   10    9 ar   
    14   44    9 1    
    15   11   10 1    
    16   12   11 1    
    17   13   11 1    
    18   19   12 2    
    19   45   12 1    
    20   14   13 ar   
    21   17   13 ar   
    22   15   14 ar   
    23   46   14 1    
    24   16   15 ar   
    25   47   15 1    
    26   18   16 ar   
    27   48   16 1    
    28   18   17 ar   
    29   19   17 1    
    30   49   18 1    
    31   20   19 1    
    32   21   20 1    
    33   50   20 1    
    34   51   20 1    
    35   22   21 1    
    36   23   21 1    
    37   52   21 1    
    38   62   22 1    
    39   63   22 1    
    40   64   22 1    
    41   24   23 1    
    42   53   23 1    
    43   54   23 1    
    44   25   24 1    
    45   55   24 1    
    46   56   24 1    
    47   26   25 1    
    48   27   25 1    
    49   65   26 1    
    50   66   26 1    
    51   67   26 1    
    52   28   27 1    
    53   57   27 1    
    54   58   27 1    
    55   29   28 2    
    56   34   28 1    
    57   30   29 1    
    58   59   29 1    
    59   31   30 1    
    60   32   31 ar   
    61   36   31 ar   
    62   33   32 ar   
    63   34   32 1    
    64   39   33 ar   
    65   60   33 1    
    66   35   34 2    
    67   37   36 ar   
    68   61   36 1    
    69   38   37 1    
    70   39   37 ar   
    71   68   38 1    
    72   69   38 1    
    73   70   38 1    
    74   40   39 1    
    75   71   40 1    
    76   72   40 1    
    77   73   40 1    
@<TRIPOS>SUBSTRUCTURE
     1 3072        1 GROUP   
@<TRIPOS>SET

