#    Name: 3ka0_MK3_1_INTS_M
#    Modification time : Mon Mar 24 19:03:12 2014

@<TRIPOS>MOLECULE
3ka0_MK3_1_INTS_M
   70     0     9     0     0
SMALL
NO_CHARGES


@<TRIPOS>ATOM
      1 CA        229.0355   80.3715  182.0255 C.3       3 GLC5        0.0000 
      2 CA        229.8000   81.4010  183.6040 C.3       9 GLL5        0.0000 
      3 CA        228.2710   79.3420  180.4470 C.3       6 GLP5        0.0000 
      4 CA        229.8825   82.8190  182.0080 C.3       3 GLC5        0.0000 
      5 CA        229.9650   84.2370  180.4120 C.3       6 GLP5        0.0000 
      6 CA        230.5180   82.2770  185.4780 C.3       3 GLC5        0.0000 
      7 CA        231.2360   83.1530  187.3520 C.3       6 GLP5        0.0000 
      8 CA        228.6430   81.5205  184.8950 C.3       3 GLC5        0.0000 
      9 CA        227.4860   81.6400  186.1860 C.3       6 GLP5        0.0000 
     10 N         230.8025   82.9660  184.4625 N.am      2 SEC2        0.0000 
     11 N         231.0680   81.8190  183.6340 N.am      8 SEL2        0.0000 
     12 N         230.5370   84.1130  185.2910 N.am      5 SEP2        0.0000 
     13 N         236.8245   86.4800  181.7265 N.am      2 SEC2        0.0000 
     14 N         235.7980   85.5500  181.3460 N.am      8 SEL2        0.0000 
     15 N         237.8510   87.4100  182.1070 N.am      5 SEP2        0.0000 
     16 O         235.1880   86.6130  180.7815 O.2       1 ALC1        0.0000 
     17 O         235.7980   85.5500  181.3460 O.2       7 ALL1        0.0000 
     18 O         234.5780   87.6760  180.2170 O.2       4 ALP1        0.0000 
     19 CA        241.6205   85.7050  182.5715 C.3       3 GLC5        0.0000 
     20 CA        241.1260   84.1600  181.5110 C.3       9 GLL5        0.0000 
     21 CA        242.1150   87.2500  183.6320 C.3       6 GLP5        0.0000 
     22 CA        229.2020   78.7860  182.8155 C.3       3 GLC5        0.0000 
     23 CA        230.3740   79.2930  184.1670 C.3       9 GLL5        0.0000 
     24 CA        228.0300   78.2790  181.4640 C.3       6 GLP5        0.0000 
     25 N         228.3285   79.5055  183.2230 N.am      2 SEC2        0.0000 
     26 N         229.4030   80.1540  183.8600 N.am      8 SEL2        0.0000 
     27 N         227.2540   78.8570  182.5860 N.am      5 SEP2        0.0000 
     28 N         243.9175   83.2505  178.0355 N.am      2 SEC2        0.0000 
     29 N         243.9140   83.5430  179.6580 N.am      8 SEL2        0.0000 
     30 N         243.9210   82.9580  176.4130 N.am      5 SEP2        0.0000 
     31 N         243.4440   85.0500  178.9155 N.am      2 SEC2        0.0000 
     32 N         242.9740   86.5570  178.1730 N.am      5 SEP2        0.0000 
     33 CA        231.6310   82.0440  185.6450 C.3       3 GLC5        0.0000 
     34 CA        232.0260   80.9350  183.9380 C.3       9 GLL5        0.0000 
     35 CA        235.5465   86.2380  183.1280 C.3       3 GLC5        0.0000 
     36 CA        235.2320   84.4820  181.9960 C.3       9 GLL5        0.0000 
     37 CA        235.8610   87.9940  184.2600 C.3       6 GLP5        0.0000 
     38 CA        232.7355   86.2310  182.5700 C.3       3 GLC5        0.0000 
     39 CA        233.9220   84.6210  182.4110 C.3       9 GLL5        0.0000 
     40 CA        231.5490   87.8410  182.7290 C.3       6 GLP5        0.0000 
     41 CA        234.3830   86.0570  183.8265 C.3       3 GLC5        0.0000 
     42 CA        234.8440   87.4930  185.2420 C.3       6 GLP5        0.0000 
     43 CA        239.0560   85.4745  180.6970 C.3       3 GLC5        0.0000 
     44 CA        238.3900   83.8400  181.9320 C.3       9 GLL5        0.0000 
     45 CA        239.7220   87.1090  179.4620 C.3       6 GLP5        0.0000 
     46 CA        238.3455   85.7465  182.7105 C.3       3 GLC5        0.0000 
     47 CA        238.3010   87.6530  183.4890 C.3       6 GLP5        0.0000 
     48 CA        240.0443   85.4292  180.4820 C.3       3 GLC5        0.0000 
     49 CA        229.6545   80.0033  185.5457 C.3       3 GLC5        0.0000 
     50 CA        231.7060   79.6280  184.2200 C.3       9 GLL5        0.0000 
     51 CA        228.2690   80.5460  186.8980 C.3       6 GLP5        0.0000 
     52 CA        232.0815   79.5029  182.5869 C.3       3 GLC5        0.0000 
     53 CA        232.6300   78.8080  181.1080 C.3       6 GLP5        0.0000 
     54 CA        234.7357   81.0740  182.0770 C.3       3 GLC5        0.0000 
     55 CA        233.9430   82.4130  183.3120 C.3       9 GLL5        0.0000 
     56 CA        234.8730   79.7810  181.0510 C.3       6 GLP5        0.0000 
     57 CA        235.7467   81.4715  181.5385 C.3       3 GLC5        0.0000 
     58 CA        235.9410   83.3180  182.2290 C.3       9 GLL5        0.0000 
     59 CA        235.4794   83.2993  184.5590 C.3       3 GLC5        0.0000 
     60 CA        235.6890   83.7560  186.4520 C.3       6 GLP5        0.0000 
     61 CA        234.8131   84.1778  180.4234 C.3       3 GLC5        0.0000 
     62 CA        234.8720   84.0950  178.5850 C.3       6 GLP5        0.0000 
     63 CA        232.3940   83.6490  181.1732 C.3       3 GLC5        0.0000 
     64 CA        231.1910   83.1910  179.6110 C.3       6 GLP5        0.0000 
     65 CA        234.6430   83.9315  184.5938 C.3       3 GLC5        0.0000 
     66 CA        233.2720   83.5930  183.0600 C.3       9 GLL5        0.0000 
     67 CA        236.1333   83.2357  180.0720 C.3       3 GLC5        0.0000 
     68 CA        237.3000   83.0060  181.8230 C.3       9 GLL5        0.0000 
     69 CA        236.4790   80.6335  181.0625 C.3       3 GLC5        0.0000 
     70 CA        237.4890   81.7470  181.2950 C.3       9 GLL5        0.0000 
@<TRIPOS>BOND
@<TRIPOS>SUBSTRUCTURE
     1 ALC1       16 GROUP        1 X    ALC  0     ROOT ALC X 1
     2 SEC2       10 GROUP        1 X    SEC  0     **** SEC X 2
     3 GLC5        1 GROUP        1 X    GLC  0     **** GLC X 6
     4 ALP1       18 GROUP        1 Y    ALP  0     ROOT ALP Y 8
     5 SEP2       12 GROUP        1 Y    SEP  0     **** SEP Y 9
     6 GLP5        3 GROUP        1 Y    GLP  0     **** GLP Y 13
     7 ALL1       17 GROUP        1 Z    ALL  0     ROOT ALL Z 15
     8 SEL2       11 GROUP        1 Z    SEL  0     **** SEL Z 16
     9 GLL5        2 GROUP        1 Z    GLL  0     **** GLL Z 20
@<TRIPOS>SET

