#    Name: 3ka0_MK3_1_ligand
#    Modification time : Mon Mar 24 19:03:12 2014

@<TRIPOS>MOLECULE
3ka0_MK3_1_ligand
   41    44     1     0     0
SMALL
NO_CHARGES


@<TRIPOS>ATOM
      1 C1        229.8000   81.4010  183.6040 C.ar      1 MK3500      0.0000 
      2 N1        231.0680   81.8190  183.6340 N.ar      1 MK3500      0.0000 
      3 O1        235.7980   85.5500  181.3460 O.3       1 MK3500      0.0000 
      4 S1        241.1260   84.1600  181.5110 S.3       1 MK3500      0.0000 
      5 C2        230.3740   79.2930  184.1670 C.ar      1 MK3500      0.0000 
      6 N2        229.4030   80.1540  183.8600 N.ar      1 MK3500      0.0000 
      7 O2        243.9140   83.5430  179.6580 O.2       1 MK3500      0.0000 
      8 C3        231.7060   79.6280  184.2200 C.ar      1 MK3500      0.0000 
      9 N3        228.8280   82.3420  183.2840 N.pl3     1 MK3500      0.0000 
     10 C4        232.0260   80.9350  183.9380 C.ar      1 MK3500      0.0000 
     11 N4        233.3870   81.2970  183.9830 N.pl3     1 MK3500      0.0000 
     12 C5        233.9430   82.4130  183.3120 C.ar      1 MK3500      0.0000 
     13 N5        244.1510   82.1180  181.4400 N.2       1 MK3500      0.0000 
     14 C6        235.2540   82.3210  182.8940 C.ar      1 MK3500      0.0000 
     15 C7        235.9410   83.3180  182.2290 C.ar      1 MK3500      0.0000 
     16 C8        235.2320   84.4820  181.9960 C.ar      1 MK3500      0.0000 
     17 C9        233.9220   84.6210  182.4110 C.ar      1 MK3500      0.0000 
     18 C10       233.2720   83.5930  183.0600 C.ar      1 MK3500      0.0000 
     19 C11       237.3000   83.0060  181.8230 C.ar      1 MK3500      0.0000 
     20 C12       237.4890   81.7470  181.2950 C.ar      1 MK3500      0.0000 
     21 C13       238.6810   81.2250  180.8530 C.ar      1 MK3500      0.0000 
     22 C14       238.3900   83.8400  181.9320 C.ar      1 MK3500      0.0000 
     23 C15       239.6070   83.3390  181.4930 C.ar      1 MK3500      0.0000 
     24 C16       239.7750   82.0590  180.9590 C.ar      1 MK3500      0.0000 
     25 C17       241.1220   81.7890  180.5870 C.2       1 MK3500      0.0000 
     26 C18       241.9910   82.8340  180.8230 C.2       1 MK3500      0.0000 
     27 C19       243.4120   82.8930  180.5650 C.2       1 MK3500      0.0000 
     28 C20       244.3340   82.4860  182.8300 C.2       1 MK3500      0.0000 
     29 H         230.1191   78.2804  184.3872 H         1 MK3500      0.0000 
     30 H         232.4154   78.9471  184.4547 H         1 MK3500      0.0000 
     31 H         229.1608   83.2532  183.0412 H         1 MK3500      0.0000 
     32 H         227.8799   82.0265  183.3242 H         1 MK3500      0.0000 
     33 H         234.0381   80.6977  184.5546 H         1 MK3500      0.0000 
     34 H         235.7760   81.4150  183.0985 H         1 MK3500      0.0000 
     35 H         233.4209   85.5123  182.2312 H         1 MK3500      0.0000 
     36 H         232.2923   83.7036  183.3553 H         1 MK3500      0.0000 
     37 H         236.6213   81.1149  181.2227 H         1 MK3500      0.0000 
     38 H         238.7538   80.2977  180.4771 H         1 MK3500      0.0000 
     39 H         238.3128   84.7714  182.3121 H         1 MK3500      0.0000 
     40 H         241.3876   80.9257  180.1974 H         1 MK3500      0.0000 
     41 H         235.0281   86.1343  181.0894 H         1 MK3500      0.0000 
@<TRIPOS>BOND
     1    2    1 ar   
     2    6    1 ar   
     3    9    1 1    
     4   10    2 ar   
     5   16    3 1    
     6   41    3 1    
     7   23    4 1    
     8   26    4 1    
     9    6    5 ar   
    10    8    5 ar   
    11   29    5 1    
    12   27    7 2    
    13   10    8 ar   
    14   30    8 1    
    15   31    9 1    
    16   32    9 1    
    17   11   10 1    
    18   12   11 1    
    19   33   11 1    
    20   14   12 ar   
    21   18   12 ar   
    22   27   13 1    
    23   28   13 2    
    24   15   14 ar   
    25   34   14 1    
    26   16   15 ar   
    27   19   15 1    
    28   17   16 ar   
    29   18   17 ar   
    30   35   17 1    
    31   36   18 1    
    32   20   19 ar   
    33   22   19 ar   
    34   21   20 ar   
    35   37   20 1    
    36   24   21 ar   
    37   38   21 1    
    38   23   22 ar   
    39   39   22 1    
    40   24   23 ar   
    41   25   24 1    
    42   26   25 2    
    43   40   25 1    
    44   27   26 1    
@<TRIPOS>SUBSTRUCTURE
     1 MK3500      1 GROUP   
@<TRIPOS>SET

