#    Name: 4cdx_JF0_1_INTS_M
#    Modification time : Tue Mar 25 09:14:20 2014

@<TRIPOS>MOLECULE
4cdx_JF0_1_INTS_M
   77     0     6     0     0
SMALL
NO_CHARGES


@<TRIPOS>ATOM
      1 CA         95.9465  258.8165  103.5020 C.3       2 GLC5        0.0000 
      2 CA         96.4320  260.2460  104.9280 C.3       6 GLL5        0.0000 
      3 CA         95.4610  257.3870  102.0760 C.3       4 GLP5        0.0000 
      4 CA         95.4240  260.7895  106.5570 C.3       2 GLC5        0.0000 
      5 CA         94.4160  261.3330  108.1860 C.3       4 GLP5        0.0000 
      6 CA         97.5425  258.8550  105.5765 C.3       2 GLC5        0.0000 
      7 CA         98.6530  257.4640  106.2250 C.3       4 GLP5        0.0000 
      8 CA         99.1950  259.2010  103.6800 C.3       2 GLC5        0.0000 
      9 CA         98.5370  261.1580  103.9270 C.3       6 GLL5        0.0000 
     10 CA         99.8530  257.2440  103.4330 C.3       4 GLP5        0.0000 
     11 CA        104.8300  259.7845  102.4055 C.3       2 GLC5        0.0000 
     12 CA        105.5810  261.6980  101.5930 C.3       6 GLL5        0.0000 
     13 CA        104.0790  257.8710  103.2180 C.3       4 GLP5        0.0000 
     14 CA        106.3510  260.7195   98.5545 C.3       2 GLC5        0.0000 
     15 CA        106.6210  261.6910  100.5120 C.3       6 GLL5        0.0000 
     16 CA        106.0810  259.7480   96.5970 C.3       4 GLP5        0.0000 
     17 CA        109.6110  260.9655  102.1360 C.3       2 GLC5        0.0000 
     18 CA        107.9390  262.0070  101.1770 C.3       6 GLL5        0.0000 
     19 CA        111.2830  259.9240  103.0950 C.3       4 GLP5        0.0000 
     20 CA        108.8235  262.9470  102.8810 C.3       2 GLC5        0.0000 
     21 CA        109.7080  263.8870  104.5850 C.3       4 GLP5        0.0000 
     22 CA        110.5945  261.2635  101.1920 C.3       2 GLC5        0.0000 
     23 CA        109.0280  262.0310  100.2030 C.3       6 GLL5        0.0000 
     24 CA        112.1610  260.4960  102.1810 C.3       4 GLP5        0.0000 
     25 CA        109.8730  260.1935   99.8770 C.3       2 GLC5        0.0000 
     26 CA        110.7180  258.3560   99.5510 C.3       4 GLP5        0.0000 
     27 CA        106.6410  263.8225   99.1815 C.3       2 GLC5        0.0000 
     28 CA        108.7180  263.0610   99.1720 C.3       6 GLL5        0.0000 
     29 CA        104.5640  264.5840   99.1910 C.3       4 GLP5        0.0000 
     30 CA        108.9150  264.9245  100.3205 C.3       2 GLC5        0.0000 
     31 CA        109.1120  266.7880  101.4690 C.3       4 GLP5        0.0000 
     32 N         109.4220  266.8285   98.4040 N.am      1 SEC2        0.0000 
     33 N         109.7750  265.4320   97.7320 N.am      5 SEL2        0.0000 
     34 N         109.0690  268.2250   99.0760 N.am      3 SEP2        0.0000 
     35 CA        110.6935  260.2895   97.2355 C.3       2 GLC5        0.0000 
     36 CA        110.4800  261.9660   97.6740 C.3       6 GLL5        0.0000 
     37 CA        110.9070  258.6130   96.7970 C.3       4 GLP5        0.0000 
     38 CA        112.0865  263.0245   98.5665 C.3       2 GLC5        0.0000 
     39 CA        113.6930  264.0830   99.4590 C.3       4 GLP5        0.0000 
     40 CA        112.4020  260.8710   96.7930 C.3       2 GLC5        0.0000 
     41 CA        111.4430  262.4890   96.6420 C.3       6 GLL5        0.0000 
     42 CA        113.3610  259.2530   96.9440 C.3       4 GLP5        0.0000 
     43 CA        112.5735  263.6845   97.4725 C.3       2 GLC5        0.0000 
     44 CA        113.7040  264.8800   98.3030 C.3       4 GLP5        0.0000 
     45 CA        111.2385  262.3370   94.7970 C.3       2 GLC5        0.0000 
     46 CA        111.0340  262.1850   92.9520 C.3       4 GLP5        0.0000 
     47 CA         96.8718  260.7078  102.6870 C.3       2 GLC5        0.0000 
     48 CA         97.2510  261.3750  104.3880 C.3       6 GLL5        0.0000 
     49 CA         96.9020  260.6050  100.7160 C.3       4 GLP5        0.0000 
     50 CA         95.7070  264.4282  104.7980 C.3       2 GLC5        0.0000 
     51 CA         96.7600  262.6590  104.3450 C.3       6 GLL5        0.0000 
     52 CA         94.2730  265.6800  105.4930 C.3       4 GLP5        0.0000 
     53 CA        101.9338  260.1410  103.9762 C.3       2 GLC5        0.0000 
     54 CA        100.6760  261.9100  102.8650 C.3       6 GLL5        0.0000 
     55 CA        102.9360  259.0100  105.1180 C.3       4 GLP5        0.0000 
     56 CA        100.8328  258.8723  102.9718 C.3       2 GLC5        0.0000 
     57 CA        101.1870  260.6340  102.8040 C.3       6 GLL5        0.0000 
     58 CA        103.4447  259.3738  102.5850 C.3       2 GLC5        0.0000 
     59 CA        102.4380  260.3670  102.2170 C.3       6 GLL5        0.0000 
     60 CA        103.4557  259.4817  100.9335 C.3       2 GLC5        0.0000 
     61 CA        104.1010  258.0870   99.9150 C.3       4 GLP5        0.0000 
     62 CA        102.1306  262.8869  100.3546 C.3       2 GLC5        0.0000 
     63 CA        102.7050  262.6830  101.7780 C.3       6 GLL5        0.0000 
     64 CA        101.6290  263.6780   98.8300 C.3       4 GLP5        0.0000 
     65 CA        105.3325  263.1392  100.1217 C.3       2 GLC5        0.0000 
     66 CA        105.1010  259.8908  100.4838 C.3       2 GLC5        0.0000 
     67 CA        106.5145  262.7159  102.7249 C.3       2 GLC5        0.0000 
     68 CA        106.0090  263.5810  104.3350 C.3       4 GLP5        0.0000 
     69 CA        115.0855  264.4257   94.6138 C.3       2 GLC5        0.0000 
     70 CA        112.7330  264.2480   94.8110 C.3       6 GLL5        0.0000 
     71 CA        117.1600  264.1880   94.8850 C.3       4 GLP5        0.0000 
     72 CA        111.9094  263.4896   93.7599 C.3       2 GLC5        0.0000 
     73 CA        113.2890  265.0790   93.8740 C.3       6 GLL5        0.0000 
     74 CA        112.5055  267.9078   96.0397 C.3       2 GLC5        0.0000 
     75 CA        111.5330  266.1180   95.6390 C.3       6 GLL5        0.0000 
     76 CA        113.1750  269.3210   96.9280 C.3       4 GLP5        0.0000 
     77 CA         97.4529  261.7386  102.2704 C.3       2 GLC5        0.0000 
@<TRIPOS>BOND
@<TRIPOS>SUBSTRUCTURE
     1 SEC2       32 GROUP        1 X    SEC  0     ROOT SEC X 2
     2 GLC5        1 GROUP        1 X    GLC  0     **** GLC X 6
     3 SEP2       34 GROUP        1 Y    SEP  0     ROOT SEP Y 9
     4 GLP5        3 GROUP        1 Y    GLP  0     **** GLP Y 13
     5 SEL2       33 GROUP        1 Z    SEL  0     ROOT SEL Z 16
     6 GLL5        2 GROUP        1 Z    GLL  0     **** GLL Z 20
@<TRIPOS>SET

