#    Name: 4cdx_JF0_1_ligand
#    Modification time : Tue Mar 25 09:14:20 2014

@<TRIPOS>MOLECULE
4cdx_JF0_1_ligand
   60    63     1     0     0
SMALL
NO_CHARGES


@<TRIPOS>ATOM
      1 CAA        96.4320  260.2460  104.9280 C.3       1 JF01298     0.0000 
      2 CAY        97.2510  261.3750  104.3880 C.ar      1 JF01298     0.0000 
      3 CAN        98.5370  261.1580  103.9270 C.ar      1 JF01298     0.0000 
      4 CAF        96.7600  262.6590  104.3450 C.ar      1 JF01298     0.0000 
      5 CAC        97.5220  263.6940  103.8610 C.ar      1 JF01298     0.0000 
      6 CAG        98.7990  263.4630  103.4140 C.ar      1 JF01298     0.0000 
      7 CBB        99.3310  262.1880  103.4320 C.ar      1 JF01298     0.0000 
      8 CBA       100.6760  261.9100  102.8650 C.ar      1 JF01298     0.0000 
      9 CAM       101.1870  260.6340  102.8040 C.ar      1 JF01298     0.0000 
     10 CAK       102.4380  260.3670  102.2170 C.ar      1 JF01298     0.0000 
     11 CAL       101.4580  262.9280  102.3650 C.ar      1 JF01298     0.0000 
     12 CAJ       102.7050  262.6830  101.7780 C.ar      1 JF01298     0.0000 
     13 CAZ       103.1830  261.3860  101.6870 C.ar      1 JF01298     0.0000 
     14 OAW       104.3510  261.4420  100.9440 O.3       1 JF01298     0.0000 
     15 CAR       105.5810  261.6980  101.5930 C.3       1 JF01298     0.0000 
     16 CAP       106.6210  261.6910  100.5120 C.3       1 JF01298     0.0000 
     17 CAO       107.9390  262.0070  101.1770 C.3       1 JF01298     0.0000 
     18 CAQ       109.0280  262.0310  100.2030 C.3       1 JF01298     0.0000 
     19 CAS       108.7180  263.0610   99.1720 C.3       1 JF01298     0.0000 
     20 NBD       109.7530  263.1560   98.1510 N.am      1 JF01298     0.0000 
     21 CAX       110.1840  264.2880   97.5230 C.2       1 JF01298     0.0000 
     22 OAB       109.7750  265.4320   97.7320 O.2       1 JF01298     0.0000 
     23 CAT       110.4800  261.9660   97.6740 C.3       1 JF01298     0.0000 
     24 CAU       111.4430  262.4890   96.6420 C.3       1 JF01298     0.0000 
     25 NBE       111.1760  263.9260   96.6280 N.am      1 JF01298     0.0000 
     26 CBC       111.8280  264.7710   95.7120 C.ar      1 JF01298     0.0000 
     27 CAH       112.7330  264.2480   94.8110 C.ar      1 JF01298     0.0000 
     28 CAD       113.2890  265.0790   93.8740 C.ar      1 JF01298     0.0000 
     29 NAV       113.0080  266.3790   93.7790 N.ar      1 JF01298     0.0000 
     30 CAE       112.1390  266.8710   94.6640 C.ar      1 JF01298     0.0000 
     31 CAI       111.5330  266.1180   95.6390 C.ar      1 JF01298     0.0000 
     32 H          98.9285  260.1896  103.9497 H         1 JF01298     0.0000 
     33 H          95.7943  262.8487  104.6853 H         1 JF01298     0.0000 
     34 H          97.1310  264.6530  103.8333 H         1 JF01298     0.0000 
     35 H          99.3732  264.2501  103.0587 H         1 JF01298     0.0000 
     36 H         100.6461  259.8382  103.1974 H         1 JF01298     0.0000 
     37 H         102.7797  259.3945  102.1944 H         1 JF01298     0.0000 
     38 H         101.1198  263.9124  102.4209 H         1 JF01298     0.0000 
     39 H         103.2599  263.4683  101.4172 H         1 JF01298     0.0000 
     40 H         105.8289  260.9285  102.3161 H         1 JF01298     0.0000 
     41 H         105.5927  262.6684  102.0776 H         1 JF01298     0.0000 
     42 H         106.3956  262.4462   99.7784 H         1 JF01298     0.0000 
     43 H         106.6708  260.7176  100.0544 H         1 JF01298     0.0000 
     44 H         108.1310  261.2505  101.9516 H         1 JF01298     0.0000 
     45 H         107.8522  262.9797  101.6825 H         1 JF01298     0.0000 
     46 H         109.1315  261.0576   99.7215 H         1 JF01298     0.0000 
     47 H         109.9714  262.2805  100.6906 H         1 JF01298     0.0000 
     48 H         108.5855  264.0401   99.6732 H         1 JF01298     0.0000 
     49 H         107.7430  262.8179   98.7055 H         1 JF01298     0.0000 
     50 H         109.8069  261.2679   97.2140 H         1 JF01298     0.0000 
     51 H         111.0280  261.5084   98.4753 H         1 JF01298     0.0000 
     52 H         111.2228  262.0459   95.6944 H         1 JF01298     0.0000 
     53 H         112.4444  262.2852   96.9556 H         1 JF01298     0.0000 
     54 H         112.9823  263.2538   94.8458 H         1 JF01298     0.0000 
     55 H         113.9836  264.6473   93.1893 H         1 JF01298     0.0000 
     56 H         111.8903  267.9077   94.6248 H         1 JF01298     0.0000 
     57 H         110.8765  266.5423   96.2989 H         1 JF01298     0.0000 
     58 H          96.2907  259.5297  104.2447 H         1 JF01298     0.0000 
     59 H          96.8683  259.8154  105.7181 H         1 JF01298     0.0000 
     60 H          95.5269  260.5519  105.2234 H         1 JF01298     0.0000 
@<TRIPOS>BOND
     1    2    1 1    
     2   58    1 1    
     3   59    1 1    
     4   60    1 1    
     5    3    2 ar   
     6    4    2 ar   
     7    7    3 ar   
     8   32    3 1    
     9    5    4 ar   
    10   33    4 1    
    11    6    5 ar   
    12   34    5 1    
    13    7    6 ar   
    14   35    6 1    
    15    8    7 1    
    16    9    8 ar   
    17   11    8 ar   
    18   10    9 ar   
    19   36    9 1    
    20   13   10 ar   
    21   37   10 1    
    22   12   11 ar   
    23   38   11 1    
    24   13   12 ar   
    25   39   12 1    
    26   14   13 1    
    27   15   14 1    
    28   16   15 1    
    29   40   15 1    
    30   41   15 1    
    31   17   16 1    
    32   42   16 1    
    33   43   16 1    
    34   18   17 1    
    35   44   17 1    
    36   45   17 1    
    37   19   18 1    
    38   46   18 1    
    39   47   18 1    
    40   20   19 1    
    41   48   19 1    
    42   49   19 1    
    43   21   20 am   
    44   23   20 1    
    45   22   21 2    
    46   25   21 am   
    47   24   23 1    
    48   50   23 1    
    49   51   23 1    
    50   25   24 1    
    51   52   24 1    
    52   53   24 1    
    53   26   25 1    
    54   27   26 ar   
    55   31   26 ar   
    56   28   27 ar   
    57   54   27 1    
    58   29   28 ar   
    59   55   28 1    
    60   30   29 ar   
    61   31   30 ar   
    62   56   30 1    
    63   57   31 1    
@<TRIPOS>SUBSTRUCTURE
     1 JF01298     1 GROUP   
@<TRIPOS>SET

