#    Name: 3f15_HS1_1_INTS_M
#    Modification time : Tue Mar 25 03:03:20 2014

@<TRIPOS>MOLECULE
3f15_HS1_1_INTS_M
   47     0     9     0     0
SMALL
NO_CHARGES


@<TRIPOS>ATOM
      1 Zn         -3.1935   -3.2150   -4.3815 Zn        2 ZIC7        0.0000 
      2 Zn         -1.9550   -5.0850   -3.7950 Zn        8 ZIL7        0.0000 
      3 Zn         -4.4320   -1.3450   -4.9680 Zn        5 ZIP7        0.0000 
      4 CA         -5.1560   -8.5730   -6.8495 C.3       3 GLC5        0.0000 
      5 CA         -4.9290   -6.6750   -6.9970 C.3       9 GLL5        0.0000 
      6 CA         -5.3830  -10.4710   -6.7020 C.3       6 GLP5        0.0000 
      7 N           0.9165   -6.2820   -5.9245 N.am      1 SEC2        0.0000 
      8 N          -0.3230   -5.8060   -5.5920 N.am      7 SEL2        0.0000 
      9 N           2.1560   -6.7580   -6.2570 N.am      4 SEP2        0.0000 
     10 N           0.7805   -5.1925   -6.7555 N.am      1 SEC2        0.0000 
     11 N           1.8840   -4.5790   -7.9190 N.am      4 SEP2        0.0000 
     12 Zn         -3.8455   -2.0995   -4.4860 Zn        2 ZIC7        0.0000 
     13 Zn         -3.2590   -2.8540   -4.0040 Zn        8 ZIL7        0.0000 
     14 Zn         -3.4655   -1.2690   -5.4320 Zn        2 ZIC7        0.0000 
     15 Zn         -2.4990   -1.1930   -5.8960 Zn        8 ZIL7        0.0000 
     16 CA          1.1120   -4.0280   -4.0150 C.3       3 GLC5        0.0000 
     17 CA         -1.1100   -3.8820   -3.7080 C.3       9 GLL5        0.0000 
     18 CA          3.3340   -4.1740   -4.3220 C.3       6 GLP5        0.0000 
     19 CA         -4.4265   -5.0645   -2.0345 C.3       3 GLC5        0.0000 
     20 CA         -2.4980   -5.6870   -2.5450 C.3       9 GLL5        0.0000 
     21 CA         -6.3550   -4.4420   -1.5240 C.3       6 GLP5        0.0000 
     22 CA          1.1105   -6.8970   -2.7995 C.3       3 GLC5        0.0000 
     23 CA         -0.6870   -7.1540   -1.6500 C.3       9 GLL5        0.0000 
     24 CA          2.9080   -6.6400   -3.9490 C.3       6 GLP5        0.0000 
     25 CA         -1.7415   -7.6650   -7.0070 C.3       3 GLC5        0.0000 
     26 CA         -2.7440   -5.9980   -6.1110 C.3       9 GLL5        0.0000 
     27 CA         -0.7390   -9.3320   -7.9030 C.3       6 GLP5        0.0000 
     28 CA         -5.3255   -6.2435  -10.9400 C.3       3 GLC5        0.0000 
     29 CA         -6.6590   -6.7570   -9.3570 C.3       9 GLL5        0.0000 
     30 CA         -3.9920   -5.7300  -12.5230 C.3       6 GLP5        0.0000 
     31 CA         -6.6465   -4.9265   -9.5585 C.3       3 GLC5        0.0000 
     32 CA         -6.6340   -3.0960   -9.7600 C.3       6 GLP5        0.0000 
     33 CA         -5.4575   -8.5245   -9.6030 C.3       3 GLC5        0.0000 
     34 CA         -4.2560  -10.2920   -9.8490 C.3       6 GLP5        0.0000 
     35 CA         -5.1085   -7.9175   -4.6495 C.3       3 GLC5        0.0000 
     36 CA         -3.9320   -6.7500   -6.0100 C.3       9 GLL5        0.0000 
     37 CA         -6.2850   -9.0850   -3.2890 C.3       6 GLP5        0.0000 
     38 CA         -3.9595   -8.6395   -6.6755 C.3       3 GLC5        0.0000 
     39 CA         -3.9870  -10.5290   -7.3410 C.3       6 GLP5        0.0000 
     40 CA         -5.6273   -4.5470   -7.9235 C.3       3 GLC5        0.0000 
     41 CA         -6.4200   -2.8350   -8.2960 C.3       6 GLP5        0.0000 
     42 CA         -2.5323   -5.4407   -9.5250 C.3       3 GLC5        0.0000 
     43 CA         -4.7400   -5.8430   -8.1050 C.3       9 GLL5        0.0000 
     44 CA         -1.7120   -5.5590  -11.3570 C.3       6 GLP5        0.0000 
     45 CA         -4.2417   -3.6580   -7.6810 C.3       3 GLC5        0.0000 
     46 CA         -3.5520   -5.0970   -8.2130 C.3       9 GLL5        0.0000 
     47 CA         -5.4280   -2.1800   -7.6420 C.3       6 GLP5        0.0000 
@<TRIPOS>BOND
@<TRIPOS>SUBSTRUCTURE
     1 SEC2        7 GROUP        1 X    SEC  0     ROOT SEC X 2
     2 ZIC7        1 GROUP        1 X    ZIC  0     **** ZIC X 5
     3 GLC5        4 GROUP        1 X    GLC  0     **** GLC X 6
     4 SEP2        9 GROUP        1 Y    SEP  0     ROOT SEP Y 9
     5 ZIP7        3 GROUP        1 Y    ZIP  0     **** ZIP Y 12
     6 GLP5        6 GROUP        1 Y    GLP  0     **** GLP Y 13
     7 SEL2        8 GROUP        1 Z    SEL  0     ROOT SEL Z 16
     8 ZIL7        2 GROUP        1 Z    ZIL  0     **** ZIL Z 19
     9 GLL5        5 GROUP        1 Z    GLL  0     **** GLL Z 20
@<TRIPOS>SET

