#    Name: 3f15_HS1_1_ligand
#    Modification time : Tue Mar 25 03:03:20 2014

@<TRIPOS>MOLECULE
3f15_HS1_1_ligand
   38    38     1     0     0
SMALL
NO_CHARGES


@<TRIPOS>ATOM
      1 N1         -1.9550   -5.0850   -3.7950 N.pl3     1 HS10        0.0000 
      2 C2         -4.9290   -6.6750   -6.9970 C.ar      1 HS10        0.0000 
      3 N2         -1.6140   -2.1030   -5.3110 N.2       1 HS10        0.0000 
      4 C4         -4.7400   -5.8430   -8.1050 C.ar      1 HS10        0.0000 
      5 C5         -2.5590   -5.1750   -7.2270 C.ar      1 HS10        0.0000 
      6 C6         -1.6090   -5.9850   -1.3390 C.3       1 HS10        0.0000 
      7 O1         -1.6050   -7.5090   -4.5700 O.2       1 HS10        0.0000 
      8 O2         -0.3230   -5.8060   -5.5920 O.2       1 HS10        0.0000 
      9 O3         -5.6780   -5.7400   -9.1140 O.3       1 HS10        0.0000 
     10 O4         -1.5030   -8.3040   -1.8940 O.3       1 HS10        0.0000 
     11 O7         -3.2590   -2.8540   -4.0040 O.2       1 HS10        0.0000 
     12 C9         -2.0750   -2.8940   -4.3480 C.2       1 HS10        0.0000 
     13 O5         -2.4990   -1.1930   -5.8960 O.2       1 HS10        0.0000 
     14 C11        -1.1100   -3.8820   -3.7080 C.3       1 HS10        0.0000 
     15 C8         -2.4980   -5.6870   -2.5450 C.3       1 HS10        0.0000 
     16 O6         -0.8500   -4.8410   -0.9580 O.3       1 HS10        0.0000 
     17 C12        -0.6870   -7.1540   -1.6500 C.3       1 HS10        0.0000 
     18 S1         -1.5910   -6.1300   -4.9960 S.o2      1 HS10        0.0000 
     19 C3         -2.7440   -5.9980   -6.1110 C.ar      1 HS10        0.0000 
     20 C7         -3.5520   -5.0970   -8.2130 C.ar      1 HS10        0.0000 
     21 C10        -6.6590   -6.7570   -9.3570 C.3       1 HS10        0.0000 
     22 C1         -3.9320   -6.7500   -6.0100 C.ar      1 HS10        0.0000 
     23 H          -5.7842   -7.2250   -6.9033 H         1 HS10        0.0000 
     24 H          -1.6973   -4.6283   -7.3247 H         1 HS10        0.0000 
     25 H          -2.2665   -6.3002   -0.5215 H         1 HS10        0.0000 
     26 H          -0.2559   -3.9705   -4.3066 H         1 HS10        0.0000 
     27 H          -0.9394   -3.6057   -2.7129 H         1 HS10        0.0000 
     28 H          -3.0388   -6.6582   -2.8134 H         1 HS10        0.0000 
     29 H          -3.3632   -5.0378   -2.1739 H         1 HS10        0.0000 
     30 H          -0.0260   -7.3008   -0.7974 H         1 HS10        0.0000 
     31 H          -0.0879   -6.8912   -2.5203 H         1 HS10        0.0000 
     32 H          -3.4121   -4.4847   -9.0302 H         1 HS10        0.0000 
     33 H          -4.0701   -7.3669   -5.1945 H         1 HS10        0.0000 
     34 H          -6.2360   -7.6359   -9.5773 H         1 HS10        0.0000 
     35 H          -7.2453   -6.9053   -8.5606 H         1 HS10        0.0000 
     36 H          -7.2580   -6.5200  -10.1219 H         1 HS10        0.0000 
     37 H          -1.7164   -8.2673   -2.8703 H         1 HS10        0.0000 
     38 H          -1.5245   -4.1139   -0.8300 H         1 HS10        0.0000 
@<TRIPOS>BOND
     1   14    1 1    
     2   15    1 1    
     3   18    1 1    
     4    4    2 ar   
     5   22    2 ar   
     6   23    2 1    
     7   12    3 1    
     8   13    3 2    
     9    9    4 1    
    10   20    4 ar   
    11   19    5 ar   
    12   20    5 ar   
    13   24    5 1    
    14   15    6 1    
    15   16    6 1    
    16   17    6 1    
    17   25    6 1    
    18   18    7 2    
    19   18    8 2    
    20   21    9 1    
    21   17   10 1    
    22   37   10 1    
    23   12   11 2    
    24   14   12 1    
    25   26   14 1    
    26   27   14 1    
    27   28   15 1    
    28   29   15 1    
    29   38   16 1    
    30   30   17 1    
    31   31   17 1    
    32   19   18 1    
    33   22   19 ar   
    34   32   20 1    
    35   34   21 1    
    36   35   21 1    
    37   36   21 1    
    38   33   22 1    
@<TRIPOS>SUBSTRUCTURE
     1 HS10        1 GROUP   
@<TRIPOS>SET

