#    Name: 1USF_4_CAVITY_N1_ALL.mol2
#    Modification time : Tue Mar 11 14:06:59 2014

@<TRIPOS>MOLECULE
1USF_4_CAVITY_N1_ALL.mol2
   87     0     7     0     0
SMALL
NO_CHARGES


@<TRIPOS>ATOM
      1 OD1        54.7804   -0.7178   24.5649 O.3       3 ASP3        0.0000 
      2 OD1        53.7845   -1.1372   23.5245 O.3       3 ASP3        0.0000 
      3 DU         52.6735   -0.9601   24.5166 H         7 CUB7        0.0000 
      4 NZ         53.8998   -1.7337   21.4920 N.2       4 LYS4        0.0000 
      5 NZ         52.7887   -1.5566   22.4841 N.2       4 LYS4        0.0000 
      6 NZ         51.6776   -1.3795   23.4762 N.2       4 LYS4        0.0000 
      7 DU         50.5666   -1.2024   24.4683 H         7 CUB7        0.0000 
      8 N          52.9039   -2.1531   20.4516 N.2       2 ALA2        0.0000 
      9 NZ         51.7929   -1.9760   21.4437 N.2       4 LYS4        0.0000 
     10 NZ         50.6818   -1.7989   22.4358 N.2       4 LYS4        0.0000 
     11 CA         49.5708   -1.6218   23.4279 C.3       6 GLY6        0.0000 
     12 CA         51.9081   -2.5724   19.4112 C.3       6 GLY6        0.0000 
     13 NZ         50.7970   -2.3954   20.4033 N.2       4 LYS4        0.0000 
     14 CA         49.6860   -2.2183   21.3954 C.3       6 GLY6        0.0000 
     15 CA         48.5749   -2.0412   22.3875 C.3       6 GLY6        0.0000 
     16 O          50.9123   -2.9918   18.3708 O.2       2 ALA2        0.0000 
     17 N          49.8012   -2.8147   19.3629 N.2       2 ALA2        0.0000 
     18 CA         48.6902   -2.6377   20.3550 C.3       6 GLY6        0.0000 
     19 OG         52.2538   -4.3618   13.3138 O.2       1 SER1        0.0000 
     20 O          51.1427   -4.1848   14.3059 O.2       2 ALA2        0.0000 
     21 N          51.2579   -4.7812   12.2734 N.2       2 ALA2        0.0000 
     22 O          50.1469   -4.6041   13.2655 O.2       2 ALA2        0.0000 
     23 OD1        54.9349   -2.1471   24.9931 O.3       3 ASP3        0.0000 
     24 N          53.8239   -1.9700   25.9852 N.2       2 ALA2        0.0000 
     25 N          52.7128   -1.7929   26.9773 N.2       2 ALA2        0.0000 
     26 OG         53.9391   -2.5665   23.9527 O.2       1 SER1        0.0000 
     27 DU         52.8280   -2.3894   24.9448 H         7 CUB7        0.0000 
     28 N          51.7170   -2.2123   25.9369 N.2       2 ALA2        0.0000 
     29 NZ         52.9432   -2.9858   22.9123 N.2       4 LYS4        0.0000 
     30 CA         51.8322   -2.8088   23.9044 C.3       6 GLY6        0.0000 
     31 CA         50.7211   -2.6317   24.8965 C.3       6 GLY6        0.0000 
     32 NZ         53.0585   -3.5823   20.8798 N.2       4 LYS4        0.0000 
     33 CA         51.9474   -3.4052   21.8719 C.3       6 GLY6        0.0000 
     34 N          53.1737   -4.1788   18.8474 N.2       2 ALA2        0.0000 
     35 NZ         52.0626   -4.0017   19.8394 N.2       4 LYS4        0.0000 
     36 CA         50.9516   -3.8246   20.8315 C.3       6 GLY6        0.0000 
     37 N          51.0668   -4.4211   18.7990 N.2       2 ALA2        0.0000 
     38 N          49.9558   -4.2440   19.7911 N.2       2 ALA2        0.0000 
     39 N          54.5152   -5.5488   13.7904 N.2       2 ALA2        0.0000 
     40 OG         53.4041   -5.3717   14.7824 O.2       1 SER1        0.0000 
     41 N          52.4083   -5.7911   13.7420 N.2       2 ALA2        0.0000 
     42 OG         51.2972   -5.6140   14.7341 O.2       1 SER1        0.0000 
     43 N          51.4125   -6.2105   12.7016 N.2       2 ALA2        0.0000 
     44 N          50.3014   -6.0334   13.6937 N.2       2 ALA2        0.0000 
     45 N          53.9784   -3.3992   26.4134 N.2       2 ALA2        0.0000 
     46 O          54.0936   -3.9957   24.3809 O.2       2 ALA2        0.0000 
     47 N          52.9826   -3.8186   25.3730 N.2       2 ALA2        0.0000 
     48 N          51.8715   -3.6415   26.3651 N.2       2 ALA2        0.0000 
     49 NZ         54.2088   -4.5922   22.3485 N.2       4 LYS4        0.0000 
     50 CA         53.0978   -4.4151   23.3405 C.3       6 GLY6        0.0000 
     51 CA         51.9867   -4.2380   24.3326 C.3       6 GLY6        0.0000 
     52 CA         50.8757   -4.0609   25.3247 C.3       6 GLY6        0.0000 
     53 NZ         53.2130   -5.0116   21.3081 N.2       4 LYS4        0.0000 
     54 CA         52.1020   -4.8345   22.3001 C.3       6 GLY6        0.0000 
     55 NZ         53.3282   -5.6080   19.2756 N.2       4 LYS4        0.0000 
     56 CZ         52.2172   -5.4309   20.2676 C.ar      5 PHE5        0.0000 
     57 CA         51.1061   -5.2539   21.2597 C.3       6 GLY6        0.0000 
     58 NZ         53.4435   -6.2045   17.2431 N.2       4 LYS4        0.0000 
     59 CZ         52.3324   -6.0274   18.2352 C.ar      5 PHE5        0.0000 
     60 CZ         51.2214   -5.8503   19.2272 C.ar      5 PHE5        0.0000 
     61 CA         53.5587   -6.8010   15.2106 C.3       6 GLY6        0.0000 
     62 OG         52.4476   -6.6239   16.2027 O.2       1 SER1        0.0000 
     63 N          51.3366   -6.4468   17.1948 N.2       2 ALA2        0.0000 
     64 O          52.5628   -7.2203   14.1702 O.2       2 ALA2        0.0000 
     65 N          51.4518   -7.0433   15.1623 N.2       2 ALA2        0.0000 
     66 CZ         53.3676   -6.4408   21.7363 C.ar      5 PHE5        0.0000 
     67 CA         48.1872    2.4829   16.6097 C.3       6 GLY6        0.0000 
     68 NZ         49.3376    1.4730   18.0783 N.2       4 LYS4        0.0000 
     69 OD1        48.2265    1.6501   19.0704 O.3       3 ASP3        0.0000 
     70 O          48.3417    1.0536   17.0379 O.2       2 ALA2        0.0000 
     71 NZ         49.4921    0.0438   18.5065 N.2       4 LYS4        0.0000 
     72 NZ         48.3811    0.2208   19.4986 N.2       4 LYS4        0.0000 
     73 OD1        47.2700    0.3979   20.4906 O.3       3 ASP3        0.0000 
     74 CA         47.3852   -0.1985   18.4582 C.3       6 GLY6        0.0000 
     75 OD1        46.2742   -0.0215   19.4502 O.3       3 ASP3        0.0000 
     76 OG         53.6300    0.2920   23.0963 O.2       1 SER1        0.0000 
     77 NZ         51.5231    0.0497   23.0480 N.2       4 LYS4        0.0000 
     78 NZ         49.4162   -0.1926   22.9997 N.2       4 LYS4        0.0000 
     79 NZ         48.4204   -0.6119   21.9593 N.2       4 LYS4        0.0000 
     80 NZ         49.6467   -1.3855   18.9347 N.2       4 LYS4        0.0000 
     81 NZ         48.5356   -1.2084   19.9268 N.2       4 LYS4        0.0000 
     82 NZ         47.4246   -1.0313   20.9189 N.2       4 LYS4        0.0000 
     83 O          48.6508   -1.8049   17.8943 O.2       2 ALA2        0.0000 
     84 OG         47.5398   -1.6278   18.8864 O.2       1 SER1        0.0000 
     85 NZ         46.4287   -1.4507   19.8784 N.2       4 LYS4        0.0000 
     86 O          52.0992   -2.9326   12.8856 O.2       2 ALA2        0.0000 
     87 O          51.1034   -3.3520   11.8452 O.2       2 ALA2        0.0000 
@<TRIPOS>BOND
@<TRIPOS>SUBSTRUCTURE
     1 SER1       19 GROUP   
     2 ALA2        8 GROUP   
     3 ASP3        1 GROUP   
     4 LYS4        4 GROUP   
     5 PHE5       56 GROUP   
     6 GLY6       11 GROUP   
     7 CUB7        3 GROUP   
@<TRIPOS>SET

