#    Name: 1USF_4_CAVITY_N1_6.mol2
#    Modification time : Tue Mar 11 14:06:58 2014

@<TRIPOS>MOLECULE
1USF_4_CAVITY_N1_6.mol2
   25     0     5     0     0
SMALL
NO_CHARGES


@<TRIPOS>ATOM
      1 O          50.9123   -2.9918   18.3708 O.2       2 ALA2        0.0000 
      2 OG         52.2538   -4.3618   13.3138 O.2       1 SER1        0.0000 
      3 O          51.1427   -4.1848   14.3059 O.2       2 ALA2        0.0000 
      4 N          51.2579   -4.7812   12.2734 N.2       2 ALA2        0.0000 
      5 O          50.1469   -4.6041   13.2655 O.2       2 ALA2        0.0000 
      6 N          53.1737   -4.1788   18.8474 N.2       2 ALA2        0.0000 
      7 N          51.0668   -4.4211   18.7990 N.2       2 ALA2        0.0000 
      8 N          54.5152   -5.5488   13.7904 N.2       2 ALA2        0.0000 
      9 OG         53.4041   -5.3717   14.7824 O.2       1 SER1        0.0000 
     10 N          52.4083   -5.7911   13.7420 N.2       2 ALA2        0.0000 
     11 OG         51.2972   -5.6140   14.7341 O.2       1 SER1        0.0000 
     12 N          51.4125   -6.2105   12.7016 N.2       2 ALA2        0.0000 
     13 N          50.3014   -6.0334   13.6937 N.2       2 ALA2        0.0000 
     14 NZ         53.3282   -5.6080   19.2756 N.2       3 LYS4        0.0000 
     15 NZ         53.4435   -6.2045   17.2431 N.2       3 LYS4        0.0000 
     16 CZ         52.3324   -6.0274   18.2352 C.ar      4 PHE5        0.0000 
     17 CZ         51.2214   -5.8503   19.2272 C.ar      4 PHE5        0.0000 
     18 CA         53.5587   -6.8010   15.2106 C.3       5 GLY6        0.0000 
     19 OG         52.4476   -6.6239   16.2027 O.2       1 SER1        0.0000 
     20 N          51.3366   -6.4468   17.1948 N.2       2 ALA2        0.0000 
     21 O          52.5628   -7.2203   14.1702 O.2       2 ALA2        0.0000 
     22 N          51.4518   -7.0433   15.1623 N.2       2 ALA2        0.0000 
     23 O          48.6508   -1.8049   17.8943 O.2       2 ALA2        0.0000 
     24 O          52.0992   -2.9326   12.8856 O.2       2 ALA2        0.0000 
     25 O          51.1034   -3.3520   11.8452 O.2       2 ALA2        0.0000 
@<TRIPOS>BOND
@<TRIPOS>SUBSTRUCTURE
     1 SER1        2 GROUP   
     2 ALA2        1 GROUP   
     3 LYS4       14 GROUP   
     4 PHE5       16 GROUP   
     5 GLY6       18 GROUP   
@<TRIPOS>SET

