#    Name: 1usf_FMN_4_INTS_M
#    Modification time : Tue Mar 25 07:04:26 2014

@<TRIPOS>MOLECULE
1usf_FMN_4_INTS_M
   94     0    12     0     0
SMALL
NO_CHARGES


@<TRIPOS>ATOM
      1 N          50.4970   -3.0260   13.5285 N.am      2 SEC2        0.0000 
      2 N          51.4050   -4.2480   13.5670 N.am     10 SEL2        0.0000 
      3 N          49.5890   -1.8040   13.4900 N.am      6 SEP2        0.0000 
      4 N          50.8165   -3.1725   14.6205 N.am      2 SEC2        0.0000 
      5 N          50.2280   -2.0970   15.6740 N.am      6 SEP2        0.0000 
      6 N          47.7245   -4.8285   13.7235 N.am      2 SEC2        0.0000 
      7 N          49.1550   -4.8400   13.7140 N.am     10 SEL2        0.0000 
      8 N          46.2940   -4.8170   13.7330 N.am      6 SEP2        0.0000 
      9 N          49.3720   -3.3220   13.6020 N.am      2 SEC2        0.0000 
     10 O          49.6800   -7.4840   13.7760 O.2       1 ALC1        0.0000 
     11 O          50.6720   -6.5290   13.9040 O.2       9 ALL1        0.0000 
     12 O          48.6880   -8.4390   13.6480 O.2       5 ALP1        0.0000 
     13 N          52.7415   -9.4985   14.4365 N.am      2 SEC2        0.0000 
     14 N          52.0940   -8.2610   14.1030 N.am     10 SEL2        0.0000 
     15 N          53.3890  -10.7360   14.7700 N.am      6 SEP2        0.0000 
     16 N          54.5730   -7.8820   13.5140 N.am      2 SEC2        0.0000 
     17 N          54.2370   -6.5310   13.8010 N.am     10 SEL2        0.0000 
     18 N          54.9090   -9.2330   13.2270 N.am      6 SEP2        0.0000 
     19 CA         55.5340   -7.2610   14.8170 C.3       4 GLC5        0.0000 
     20 CA         55.3090   -5.6580   13.4950 C.3      12 GLL5        0.0000 
     21 CA         55.7590   -8.8640   16.1390 C.3       8 GLP5        0.0000 
     22 CA         56.7510   -5.9170   11.3215 C.3       4 GLC5        0.0000 
     23 CA         56.6510   -6.1060   13.3510 C.3      12 GLL5        0.0000 
     24 CA         56.8510   -5.7280    9.2920 C.3       8 GLP5        0.0000 
     25 CA         56.6100   -7.8300   14.2040 C.3       4 GLC5        0.0000 
     26 CA         56.5690   -9.5540   15.0570 C.3       8 GLP5        0.0000 
     27 CA         59.0415   -7.5180   11.9525 C.3       4 GLC5        0.0000 
     28 CA         59.1380   -5.6820   12.8710 C.3      12 GLL5        0.0000 
     29 CA         58.9450   -9.3540   11.0340 C.3       8 GLP5        0.0000 
     30 CA         57.9945   -5.7050   11.0815 C.3       4 GLC5        0.0000 
     31 CA         59.9260   -6.4190   14.1775 C.3       4 GLC5        0.0000 
     32 CA         60.7140   -7.1560   15.4840 C.3       8 GLP5        0.0000 
     33 CA         61.0035   -5.5870   12.5985 C.3       4 GLC5        0.0000 
     34 CA         62.8690   -5.4920   12.3260 C.3       8 GLP5        0.0000 
     35 CA         60.3975   -1.6255   12.6245 C.3       4 GLC5        0.0000 
     36 CA         58.4920   -2.7940   12.5530 C.3      12 GLL5        0.0000 
     37 CA         62.3030   -0.4570   12.6960 C.3       8 GLP5        0.0000 
     38 CA         59.1655   -3.7165   14.4495 C.3       4 GLC5        0.0000 
     39 CA         59.8390   -4.6390   16.3460 C.3       8 GLP5        0.0000 
     40 CA         60.6325   -3.4770   12.6260 C.3       4 GLC5        0.0000 
     41 CA         62.7730   -4.1600   12.6990 C.3       8 GLP5        0.0000 
     42 CA         58.9510   -1.3075   13.6880 C.3       4 GLC5        0.0000 
     43 CA         59.4100    0.1790   14.8230 C.3       8 GLP5        0.0000 
     44 CA         53.4120   -1.4905   14.8360 C.3       4 GLC5        0.0000 
     45 CA         53.2660   -2.3310   13.0970 C.3      12 GLL5        0.0000 
     46 CA         53.5580   -0.6500   16.5750 C.3       8 GLP5        0.0000 
     47 CA         52.1415   -3.0485   10.1935 C.3       4 GLC5        0.0000 
     48 CA         52.9880   -2.0420   11.6280 C.3      12 GLL5        0.0000 
     49 CA         51.2950   -4.0550    8.7590 C.3       8 GLP5        0.0000 
     50 O          53.8995   -4.2740   10.6800 O.2       1 ALC1        0.0000 
     51 O          53.8880   -2.7660   10.8090 O.2       9 ALL1        0.0000 
     52 O          53.9110   -5.7820   10.5510 O.2       5 ALP1        0.0000 
     53 O          53.8050    1.9645    8.8035 O.2       1 ALC1        0.0000 
     54 O          53.5860    1.2120    9.9010 O.2       9 ALL1        0.0000 
     55 O          54.0240    2.7170    7.7060 O.2       5 ALP1        0.0000 
     56 CA         51.4055   -2.0565    9.1795 C.3       4 GLC5        0.0000 
     57 CA         51.5160   -0.0580    9.6000 C.3      12 GLL5        0.0000 
     58 CA         50.2580   -0.5660   10.9850 C.3       4 GLC5        0.0000 
     59 CA         49.0000   -1.0740   12.3700 C.3       8 GLP5        0.0000 
     60 N          52.4385    0.4895    7.1215 N.am      2 SEC2        0.0000 
     61 N          51.5090    0.4040    8.2320 N.am     10 SEL2        0.0000 
     62 N          53.3680    0.5750    6.0110 N.am      6 SEP2        0.0000 
     63 N          47.9975    1.3775    8.3170 N.am      2 SEC2        0.0000 
     64 N          49.4020    1.8270    8.4010 N.am     10 SEL2        0.0000 
     65 N          46.5930    0.9280    8.2330 N.am      6 SEP2        0.0000 
     66 N          49.4105    3.1520    8.0965 N.am      2 SEC2        0.0000 
     67 N          49.4190    4.4770    7.7920 N.am      6 SEP2        0.0000 
     68 N          48.0005   -0.7930    7.0190 N.am      2 SEC2        0.0000 
     69 N          49.3060   -0.5080    7.5200 N.am     10 SEL2        0.0000 
     70 N          46.6950   -1.0780    6.5180 N.am      6 SEP2        0.0000 
     71 N          49.1880   -1.5515    6.7320 N.am      2 SEC2        0.0000 
     72 N          49.0700   -2.5950    5.9440 N.am      6 SEP2        0.0000 
     73 NZ         51.8895    0.9040    6.0830 N.4       3 LYC4        0.0000 
     74 NZ         50.4110    1.2330    6.1550 N.4      11 LYL4        0.0000 
     75 NZ         53.3680    0.5750    6.0110 N.4       7 LYP4        0.0000 
     76 N          50.1455    0.3075    5.0935 N.am      2 SEC2        0.0000 
     77 N          50.4110    1.2330    6.1550 N.am     10 SEL2        0.0000 
     78 N          49.8800   -0.6180    4.0320 N.am      6 SEP2        0.0000 
     79 N          50.5395    2.5065    5.7060 N.am      2 SEC2        0.0000 
     80 N          50.6680    3.7800    5.2570 N.am      6 SEP2        0.0000 
     81 N          51.8895    0.9040    6.0830 N.am      2 SEC2        0.0000 
     82 CA         54.8320   -7.1665   12.3510 C.3       4 GLC5        0.0000 
     83 CA         53.6840   -8.4510   11.2790 C.3       8 GLP5        0.0000 
     84 CA         57.3206   -3.9581   11.1371 C.3       4 GLC5        0.0000 
     85 CA         56.6150   -4.2920    9.5220 C.3       8 GLP5        0.0000 
     86 CA         56.1197   -4.2065   11.3641 C.3       4 GLC5        0.0000 
     87 CA         56.1050   -3.3010   13.0050 C.3      12 GLL5        0.0000 
     88 CA         56.9306   -2.1104   11.3556 C.3       4 GLC5        0.0000 
     89 CA         56.8340   -0.9360    9.8530 C.3       8 GLP5        0.0000 
     90 CA         55.6460   -2.5583   14.9032 C.3       4 GLC5        0.0000 
     91 CA         55.7500   -1.3540   16.6440 C.3       8 GLP5        0.0000 
     92 CA         51.0422   -1.1885   11.9622 C.3       4 GLC5        0.0000 
     93 CA         54.9416   -0.8105   10.3214 C.3       4 GLC5        0.0000 
     94 CA         53.0140   -0.0670   10.0250 C.3      12 GLL5        0.0000 
@<TRIPOS>BOND
@<TRIPOS>SUBSTRUCTURE
     1 ALC1       10 GROUP        1 X    ALC  0     ROOT ALC X 1
     2 SEC2        1 GROUP        1 X    SEC  0     **** SEC X 2
     3 LYC4       73 GROUP        1 X    LYC  0     **** LYC X 4
     4 GLC5       19 GROUP        1 X    GLC  0     **** GLC X 6
     5 ALP1       12 GROUP        1 Y    ALP  0     ROOT ALP Y 8
     6 SEP2        3 GROUP        1 Y    SEP  0     **** SEP Y 9
     7 LYP4       75 GROUP        1 Y    LYP  0     **** LYP Y 11
     8 GLP5       21 GROUP        1 Y    GLP  0     **** GLP Y 13
     9 ALL1       11 GROUP        1 Z    ALL  0     ROOT ALL Z 15
    10 SEL2        2 GROUP        1 Z    SEL  0     **** SEL Z 16
    11 LYL4       74 GROUP        1 Z    LYL  0     **** LYL Z 18
    12 GLL5       20 GROUP        1 Z    GLL  0     **** GLL Z 20
@<TRIPOS>SET

