#    Name: 1usf_FMN_4_ligand
#    Modification time : Tue Mar 25 07:04:26 2014

@<TRIPOS>MOLECULE
1usf_FMN_4_ligand
   50    52     1     0     0
SMALL
NO_CHARGES


@<TRIPOS>ATOM
      1 N1         51.4050   -4.2480   13.5670 N.2       1 FMN1179     0.0000 
      2 C2         50.3690   -5.0960   13.7150 C.2       1 FMN1179     0.0000 
      3 O2         49.1550   -4.8400   13.7140 O.2       1 FMN1179     0.0000 
      4 N3         50.6720   -6.5290   13.9040 N.am      1 FMN1179     0.0000 
      5 C4         52.0110   -7.0340   13.9370 C.2       1 FMN1179     0.0000 
      6 O4         52.0940   -8.2610   14.1030 O.2       1 FMN1179     0.0000 
      7 C4A        53.0190   -6.1050   13.7770 C.2       1 FMN1179     0.0000 
      8 N5         54.2370   -6.5310   13.8010 N.2       1 FMN1179     0.0000 
      9 C5A        55.3090   -5.6580   13.4950 C.ar      1 FMN1179     0.0000 
     10 C6         56.6510   -6.1060   13.3510 C.ar      1 FMN1179     0.0000 
     11 C7         57.7140   -5.1660   13.0330 C.ar      1 FMN1179     0.0000 
     12 C7M        59.1380   -5.6820   12.8710 C.3       1 FMN1179     0.0000 
     13 C8         57.4070   -3.7430   12.8700 C.ar      1 FMN1179     0.0000 
     14 C8M        58.4920   -2.7940   12.5530 C.3       1 FMN1179     0.0000 
     15 C9         56.1050   -3.3010   13.0050 C.ar      1 FMN1179     0.0000 
     16 C9A        54.9790   -4.2240   13.3200 C.ar      1 FMN1179     0.0000 
     17 N10        53.6970   -3.6960   13.4220 N.pl3     1 FMN1179     0.0000 
     18 C10        52.7000   -4.6200   13.5820 C.2       1 FMN1179     0.0000 
     19 C1'        53.2660   -2.3310   13.0970 C.3       1 FMN1179     0.0000 
     20 C2'        52.9880   -2.0420   11.6280 C.3       1 FMN1179     0.0000 
     21 O2'        53.8880   -2.7660   10.8090 O.3       1 FMN1179     0.0000 
     22 C3'        53.1810   -0.5640   11.4810 C.3       1 FMN1179     0.0000 
     23 O3'        52.1720    0.1550   12.2520 O.3       1 FMN1179     0.0000 
     24 C4'        53.0140   -0.0670   10.0250 C.3       1 FMN1179     0.0000 
     25 O4'        53.5860    1.2120    9.9010 O.3       1 FMN1179     0.0000 
     26 C5'        51.5160   -0.0580    9.6000 C.3       1 FMN1179     0.0000 
     27 O5'        51.5090    0.4040    8.2320 O.3       1 FMN1179     0.0000 
     28 P          50.1250    0.7390    7.5790 P.3       1 FMN1179     0.0000 
     29 O1P        49.4020    1.8270    8.4010 O.co2     1 FMN1179     0.0000 
     30 O2P        49.3060   -0.5080    7.5200 O.co2     1 FMN1179     0.0000 
     31 O3P        50.4110    1.2330    6.1550 O.co2     1 FMN1179     0.0000 
     32 H          49.8802   -7.1715   14.0140 H         1 FMN1179     0.0000 
     33 H          56.8834   -7.0886   13.4686 H         1 FMN1179     0.0000 
     34 H          55.8576   -2.3062   12.8923 H         1 FMN1179     0.0000 
     35 H          54.0327   -1.5948   13.4507 H         1 FMN1179     0.0000 
     36 H          52.3419   -2.0749   13.6762 H         1 FMN1179     0.0000 
     37 H          51.9638   -2.2774   11.4377 H         1 FMN1179     0.0000 
     38 H          54.1612   -0.2756   11.8135 H         1 FMN1179     0.0000 
     39 H          53.5235   -0.7910    9.3837 H         1 FMN1179     0.0000 
     40 H          50.9947    0.6112   10.2583 H         1 FMN1179     0.0000 
     41 H          51.1452   -1.0614    9.6926 H         1 FMN1179     0.0000 
     42 H          59.7775   -4.9449   12.6523 H         1 FMN1179     0.0000 
     43 H          59.4711   -6.1211   13.7054 H         1 FMN1179     0.0000 
     44 H          59.2070   -6.3574   12.1368 H         1 FMN1179     0.0000 
     45 H          59.1987   -2.7880   13.2605 H         1 FMN1179     0.0000 
     46 H          58.9433   -3.0207   11.6899 H         1 FMN1179     0.0000 
     47 H          58.1531   -1.8569   12.4692 H         1 FMN1179     0.0000 
     48 H          53.6573   -3.7275   10.9582 H         1 FMN1179     0.0000 
     49 H          52.6727    0.8866   12.7147 H         1 FMN1179     0.0000 
     50 H          54.0018    1.2223    8.9916 H         1 FMN1179     0.0000 
@<TRIPOS>BOND
     1    2    1 1    
     2   18    1 2    
     3    3    2 2    
     4    4    2 am   
     5    5    4 am   
     6   32    4 1    
     7    6    5 2    
     8    7    5 1    
     9    8    7 2    
    10   18    7 1    
    11    9    8 1    
    12   10    9 ar   
    13   16    9 ar   
    14   11   10 ar   
    15   33   10 1    
    16   12   11 1    
    17   13   11 ar   
    18   42   12 1    
    19   43   12 1    
    20   44   12 1    
    21   14   13 1    
    22   15   13 ar   
    23   45   14 1    
    24   46   14 1    
    25   47   14 1    
    26   16   15 ar   
    27   34   15 1    
    28   17   16 1    
    29   18   17 1    
    30   19   17 1    
    31   20   19 1    
    32   35   19 1    
    33   36   19 1    
    34   21   20 1    
    35   22   20 1    
    36   37   20 1    
    37   48   21 1    
    38   23   22 1    
    39   24   22 1    
    40   38   22 1    
    41   49   23 1    
    42   25   24 1    
    43   26   24 1    
    44   39   24 1    
    45   50   25 1    
    46   27   26 1    
    47   40   26 1    
    48   41   26 1    
    49   28   27 1    
    50   29   28 ar   
    51   30   28 ar   
    52   31   28 ar   
@<TRIPOS>SUBSTRUCTURE
     1 FMN1179     1 GROUP   
@<TRIPOS>SET

