#    Name: 1p9w_ANP_1_INTS_M
#    Modification time : Mon Mar 24 21:13:46 2014

@<TRIPOS>MOLECULE
1p9w_ANP_1_INTS_M
   65     0    12     0     0
SMALL
NO_CHARGES


@<TRIPOS>ATOM
      1 N          24.9995  -15.9865 -139.7310 N.am      2 SEC2        0.0000 
      2 N          24.5190  -15.6050 -141.1890 N.am     10 SEL2        0.0000 
      3 N          25.4800  -16.3680 -138.2730 N.am      6 SEP2        0.0000 
      4 NZ         22.3340  -18.1275 -141.3805 N.4       3 LYC4        0.0000 
      5 NZ         23.0100  -17.0220 -142.5690 N.4      11 LYL4        0.0000 
      6 NZ         21.6580  -19.2330 -140.1920 N.4       7 LYP4        0.0000 
      7 NZ         23.1565  -19.3495 -140.3730 N.4       3 LYC4        0.0000 
      8 NZ         24.6550  -19.4660 -140.5540 N.4      11 LYL4        0.0000 
      9 N          25.5975  -20.3080 -139.6875 N.am      2 SEC2        0.0000 
     10 N          24.6550  -19.4660 -140.5540 N.am     10 SEL2        0.0000 
     11 N          26.5400  -21.1500 -138.8210 N.am      6 SEP2        0.0000 
     12 N          24.8930  -21.0015 -140.6745 N.am      2 SEC2        0.0000 
     13 N          25.1310  -22.5370 -140.7950 N.am      6 SEP2        0.0000 
     14 N          23.1565  -19.3495 -140.3730 N.am      2 SEC2        0.0000 
     15 N          21.6580  -19.2330 -140.1920 N.am      6 SEP2        0.0000 
     16 N          25.1215  -21.4330 -143.2575 N.am      2 SEC2        0.0000 
     17 N          25.0040  -20.0980 -142.9280 N.am     10 SEL2        0.0000 
     18 N          25.2390  -22.7680 -143.5870 N.am      6 SEP2        0.0000 
     19 N          27.8990  -22.7015 -143.5375 N.am      2 SEC2        0.0000 
     20 N          28.2610  -21.3310 -143.1220 N.am     10 SEL2        0.0000 
     21 N          27.5370  -24.0720 -143.9530 N.am      6 SEP2        0.0000 
     22 N          29.3290  -22.4410 -143.1905 N.am      2 SEC2        0.0000 
     23 N          30.3970  -23.5510 -143.2590 N.am      6 SEP2        0.0000 
     24 N          26.7150  -20.4035 -140.2320 N.am      2 SEC2        0.0000 
     25 N          26.8900  -19.6570 -141.6430 N.am     10 SEL2        0.0000 
     26 CA         28.1220  -17.9155 -139.1565 C.3       4 GLC5        0.0000 
     27 CA         29.5030  -18.9430 -140.5480 C.3      12 GLL5        0.0000 
     28 CA         26.7410  -16.8880 -137.7650 C.3       8 GLP5        0.0000 
     29 CA         28.3660  -20.5320 -140.0930 C.3       4 GLC5        0.0000 
     30 CA         27.2290  -22.1210 -139.6380 C.3       8 GLP5        0.0000 
     31 CA         30.5660  -19.9780 -138.4620 C.3       4 GLC5        0.0000 
     32 CA         31.0010  -19.0300 -140.4040 C.3      12 GLL5        0.0000 
     33 CA         30.1310  -20.9260 -136.5200 C.3       8 GLP5        0.0000 
     34 N          32.4360  -19.5000 -139.1160 N.am      2 SEC2        0.0000 
     35 N          31.3680  -20.1130 -139.5450 N.am     10 SEL2        0.0000 
     36 N          33.5040  -18.8870 -138.6870 N.am      6 SEP2        0.0000 
     37 CA         33.2595  -21.1270 -143.1150 C.3       4 GLC5        0.0000 
     38 CA         32.0990  -20.8900 -141.5080 C.3      12 GLL5        0.0000 
     39 CA         34.4200  -21.3640 -144.7220 C.3       8 GLP5        0.0000 
     40 N          33.3070  -21.1550 -142.9240 N.am      2 SEC2        0.0000 
     41 N          33.4380  -21.1690 -141.7910 N.am     10 SEL2        0.0000 
     42 N          33.1760  -21.1410 -144.0570 N.am      6 SEP2        0.0000 
     43 CA         31.1370  -21.0645 -138.2910 C.3       4 GLC5        0.0000 
     44 CA         32.1430  -21.2030 -140.0620 C.3      12 GLL5        0.0000 
     45 CA         31.0270  -25.0910 -140.4305 C.3       4 GLC5        0.0000 
     46 CA         31.5000  -24.4810 -138.4900 C.3      12 GLL5        0.0000 
     47 CA         30.5540  -25.7010 -142.3710 C.3       8 GLP5        0.0000 
     48 CA         31.7660  -27.7105 -137.5855 C.3       4 GLC5        0.0000 
     49 CA         31.9790  -25.5410 -137.6410 C.3      12 GLL5        0.0000 
     50 CA         31.5530  -29.8800 -137.5300 C.3       8 GLP5        0.0000 
     51 CA         32.4510  -25.6755 -135.4470 C.3       4 GLC5        0.0000 
     52 CA         32.9230  -25.8100 -133.2530 C.3       8 GLP5        0.0000 
     53 O          31.0210  -27.8315 -136.4110 O.2       1 ALC1        0.0000 
     54 O          31.2840  -26.6340 -137.3400 O.2       9 ALL1        0.0000 
     55 O          30.7580  -29.0290 -135.4820 O.2       5 ALP1        0.0000 
     56 CA         34.1575  -25.4930 -138.7995 C.3       4 GLC5        0.0000 
     57 CA         33.9590  -24.2830 -137.4160 C.3      12 GLL5        0.0000 
     58 CA         34.3560  -26.7030 -140.1830 C.3       8 GLP5        0.0000 
     59 CA         34.2995  -22.6405 -136.1725 C.3       4 GLC5        0.0000 
     60 CA         34.6400  -20.9980 -134.9290 C.3       8 GLP5        0.0000 
     61 CA         31.2335  -22.1610 -137.6185 C.3       4 GLC5        0.0000 
     62 CA         32.3360  -23.3960 -138.7170 C.3      12 GLL5        0.0000 
     63 CA         30.6898  -24.1100 -136.8642 C.3       4 GLC5        0.0000 
     64 CA         29.6400  -23.2090 -135.6630 C.3       8 GLP5        0.0000 
     65 CA         33.1969  -25.4533 -139.2871 C.3       4 GLC5        0.0000 
@<TRIPOS>BOND
@<TRIPOS>SUBSTRUCTURE
     1 ALC1       53 GROUP        1 X    ALC  0     ROOT ALC X 1
     2 SEC2        1 GROUP        1 X    SEC  0     **** SEC X 2
     3 LYC4        4 GROUP        1 X    LYC  0     **** LYC X 4
     4 GLC5       26 GROUP        1 X    GLC  0     **** GLC X 6
     5 ALP1       55 GROUP        1 Y    ALP  0     ROOT ALP Y 8
     6 SEP2        3 GROUP        1 Y    SEP  0     **** SEP Y 9
     7 LYP4        6 GROUP        1 Y    LYP  0     **** LYP Y 11
     8 GLP5       28 GROUP        1 Y    GLP  0     **** GLP Y 13
     9 ALL1       54 GROUP        1 Z    ALL  0     ROOT ALL Z 15
    10 SEL2        2 GROUP        1 Z    SEL  0     **** SEL Z 16
    11 LYL4        5 GROUP        1 Z    LYL  0     **** LYL Z 18
    12 GLL5       27 GROUP        1 Z    GLL  0     **** GLL Z 20
@<TRIPOS>SET

