#    Name: 1p9w_ANP_1_ligand
#    Modification time : Mon Mar 24 21:13:46 2014

@<TRIPOS>MOLECULE
1p9w_ANP_1_ligand
   43    45     1     0     0
SMALL
NO_CHARGES


@<TRIPOS>ATOM
      1 PG         24.4030  -16.4000 -142.4210 P.3       1 ANP701      0.0000 
      2 O1G        24.5190  -15.6050 -141.1890 O.co2     1 ANP701      0.0000 
      3 O2G        24.7950  -15.5510 -143.6240 O.co2     1 ANP701      0.0000 
      4 O3G        23.0100  -17.0220 -142.5690 O.co2     1 ANP701      0.0000 
      5 PB         25.4050  -19.2640 -141.8040 P.3       1 ANP701      0.0000 
      6 O1B        24.6550  -19.4660 -140.5540 O.co2     1 ANP701      0.0000 
      7 O2B        25.0040  -20.0980 -142.9280 O.co2     1 ANP701      0.0000 
      8 N3B        25.5180  -17.6910 -142.2630 N.4       1 ANP701      0.0000 
      9 PA         28.1280  -19.9350 -142.6030 P.3       1 ANP701      0.0000 
     10 O1A        28.2610  -21.3310 -143.1220 O.co2     1 ANP701      0.0000 
     11 O2A        28.4580  -18.7770 -143.5070 O.co2     1 ANP701      0.0000 
     12 O3A        26.8900  -19.6570 -141.6430 O.3       1 ANP701      0.0000 
     13 O5'        29.1660  -20.0140 -141.4310 O.3       1 ANP701      0.0000 
     14 C5'        29.5030  -18.9430 -140.5480 C.3       1 ANP701      0.0000 
     15 C4'        31.0010  -19.0300 -140.4040 C.3       1 ANP701      0.0000 
     16 O4'        31.3680  -20.1130 -139.5450 O.3       1 ANP701      0.0000 
     17 C3'        31.7460  -19.3990 -141.6610 C.3       1 ANP701      0.0000 
     18 O3'        32.8580  -18.5060 -141.6570 O.3       1 ANP701      0.0000 
     19 C2'        32.0990  -20.8900 -141.5080 C.3       1 ANP701      0.0000 
     20 O2'        33.4380  -21.1690 -141.7910 O.3       1 ANP701      0.0000 
     21 C1'        32.1430  -21.2030 -140.0620 C.3       1 ANP701      0.0000 
     22 N9         31.6530  -22.5400 -139.5450 N.pl3     1 ANP701      0.0000 
     23 C8         30.4650  -23.1400 -139.7670 C.2       1 ANP701      0.0000 
     24 N7         30.3370  -24.3040 -139.1570 N.2       1 ANP701      0.0000 
     25 C5         31.5000  -24.4810 -138.4900 C.ar      1 ANP701      0.0000 
     26 C6         31.9790  -25.5410 -137.6410 C.ar      1 ANP701      0.0000 
     27 N6         31.2840  -26.6340 -137.3400 N.pl3     1 ANP701      0.0000 
     28 N1         33.2360  -25.3940 -137.1180 N.ar      1 ANP701      0.0000 
     29 C2         33.9590  -24.2830 -137.4160 C.ar      1 ANP701      0.0000 
     30 N3         33.5780  -23.2680 -138.1900 N.ar      1 ANP701      0.0000 
     31 C4         32.3360  -23.3960 -138.7170 C.ar      1 ANP701      0.0000 
     32 H          29.0545  -19.0653 -139.5763 H         1 ANP701      0.0000 
     33 H          29.2509  -17.9823 -140.9649 H         1 ANP701      0.0000 
     34 H          31.4068  -18.1159 -140.0258 H         1 ANP701      0.0000 
     35 H          31.0979  -19.2610 -142.4772 H         1 ANP701      0.0000 
     36 H          31.4261  -21.5016 -141.9814 H         1 ANP701      0.0000 
     37 H          33.1841  -21.0371 -139.7208 H         1 ANP701      0.0000 
     38 H          29.7540  -22.7271 -140.3450 H         1 ANP701      0.0000 
     39 H          31.4976  -27.0635 -136.4625 H         1 ANP701      0.0000 
     40 H          30.6105  -26.9278 -138.0182 H         1 ANP701      0.0000 
     41 H          34.9522  -24.2258 -136.9708 H         1 ANP701      0.0000 
     42 H          32.9084  -18.1515 -142.5907 H         1 ANP701      0.0000 
     43 H          33.8808  -20.2746 -141.8546 H         1 ANP701      0.0000 
@<TRIPOS>BOND
     1    2    1 ar   
     2    3    1 ar   
     3    4    1 ar   
     4    8    1 1    
     5    6    5 ar   
     6    7    5 ar   
     7    8    5 1    
     8   12    5 1    
     9   10    9 ar   
    10   11    9 ar   
    11   12    9 1    
    12   13    9 1    
    13   14   13 1    
    14   15   14 1    
    15   32   14 1    
    16   33   14 1    
    17   16   15 1    
    18   17   15 1    
    19   34   15 1    
    20   21   16 1    
    21   18   17 1    
    22   19   17 1    
    23   35   17 1    
    24   42   18 1    
    25   20   19 1    
    26   21   19 1    
    27   36   19 1    
    28   43   20 1    
    29   22   21 1    
    30   37   21 1    
    31   23   22 1    
    32   31   22 1    
    33   24   23 2    
    34   38   23 1    
    35   25   24 1    
    36   26   25 ar   
    37   31   25 ar   
    38   27   26 1    
    39   28   26 ar   
    40   39   27 1    
    41   40   27 1    
    42   29   28 ar   
    43   30   29 ar   
    44   41   29 1    
    45   31   30 ar   
@<TRIPOS>SUBSTRUCTURE
     1 ANP701      1 GROUP   
@<TRIPOS>SET

