#    Name: 1G0H_2_CAVITY_N1_ALL.mol2
#    Modification time : Tue Mar 11 00:19:39 2014

@<TRIPOS>MOLECULE
1G0H_2_CAVITY_N1_ALL.mol2
  121     0     6     0     0
SMALL
NO_CHARGES


@<TRIPOS>ATOM
      1 CA          3.1173   46.6285   50.2510 C.3       5 GLY6        0.0000 
      2 CA          8.0865   47.7723   53.7509 C.3       5 GLY6        0.0000 
      3 DU          5.1018   45.1926   51.1171 H         6 CUB7        0.0000 
      4 DU          3.8386   44.6512   50.5160 H         6 CUB7        0.0000 
      5 CA          3.0339   45.6069   51.3462 C.3       5 GLY6        0.0000 
      6 N           2.5755   44.1099   49.9148 N.2       2 ALA2        0.0000 
      7 N           1.7708   45.0655   50.7450 N.2       2 ALA2        0.0000 
      8 CA          0.0492   43.0272   48.7124 C.3       5 GLY6        0.0000 
      9 CA          8.8078   45.7950   54.0158 C.3       5 GLY6        0.0000 
     10 DU          9.1541   43.3425   51.7542 H         6 CUB7        0.0000 
     11 DU          8.3494   44.2981   52.5844 H         6 CUB7        0.0000 
     12 DU          7.5447   45.2537   53.4146 H         6 CUB7        0.0000 
     13 DU          6.7400   46.2093   54.2449 H         6 CUB7        0.0000 
     14 NZ          5.9353   47.1649   55.0751 N.2       3 LYS4        0.0000 
     15 DU          8.6956   41.8455   50.3228 H         6 CUB7        0.0000 
     16 NZ          5.4768   45.6679   53.6437 N.2       3 LYS4        0.0000 
     17 NZ          4.6721   46.6235   54.4739 N.2       3 LYS4        0.0000 
     18 DU          6.6278   42.2597   50.5518 H         6 CUB7        0.0000 
     19 DU          5.0184   44.1710   52.2123 H         6 CUB7        0.0000 
     20 NZ          4.2137   45.1266   53.0425 N.2       3 LYS4        0.0000 
     21 DU          4.5600   42.6740   50.7809 H         6 CUB7        0.0000 
     22 DU          3.7553   43.6296   51.6111 H         6 CUB7        0.0000 
     23 CA          2.9506   44.5852   52.4413 C.3       5 GLY6        0.0000 
     24 NZ          2.1459   45.5408   53.2715 N.2       3 LYS4        0.0000 
     25 CA          3.2968   42.1326   50.1797 C.3       5 GLY6        0.0000 
     26 OG          2.4921   43.0882   51.0099 O.2       1 SER1        0.0000 
     27 N           1.6874   44.0439   51.8401 N.2       2 ALA2        0.0000 
     28 N           0.8827   44.9995   52.6703 N.2       2 ALA2        0.0000 
     29 CA          1.2290   42.5469   50.4087 C.3       5 GLY6        0.0000 
     30 N           0.4243   43.5025   51.2389 N.2       2 ALA2        0.0000 
     31 O          11.1385   41.9066   52.6203 O.2       2 ALA2        0.0000 
     32 O          10.3338   42.8622   53.4505 O.2       2 ALA2        0.0000 
     33 CA          9.5291   43.8178   54.2807 C.3       5 GLY6        0.0000 
     34 CA          8.7244   44.7734   55.1110 C.3       5 GLY6        0.0000 
     35 O           7.9197   45.7290   55.9412 O.2       2 ALA2        0.0000 
     36 O          10.6801   40.4096   51.1889 O.2       2 ALA2        0.0000 
     37 O           9.8754   41.3652   52.0191 O.2       2 ALA2        0.0000 
     38 DU          9.0707   42.3208   52.8493 H         6 CUB7        0.0000 
     39 DU          8.2660   43.2764   53.6795 H         6 CUB7        0.0000 
     40 DU          7.4613   44.2321   54.5098 H         6 CUB7        0.0000 
     41 O           6.6566   45.1877   55.3400 O.2       2 ALA2        0.0000 
     42 DU          9.4170   39.8682   50.5877 H         6 CUB7        0.0000 
     43 DU          8.6123   40.8239   51.4179 H         6 CUB7        0.0000 
     44 DU          6.1982   43.6907   53.9086 H         6 CUB7        0.0000 
     45 O           5.3935   44.6463   54.7388 O.2       2 ALA2        0.0000 
     46 CZ          8.9585   38.3713   49.1563 C.ar      4 PHE5        0.0000 
     47 CA          8.1538   39.3269   49.9865 C.3       5 GLY6        0.0000 
     48 CA          7.3491   40.2825   50.8167 C.3       5 GLY6        0.0000 
     49 DU          6.5444   41.2381   51.6470 H         6 CUB7        0.0000 
     50 DU          4.9350   43.1493   53.3074 H         6 CUB7        0.0000 
     51 O           4.1303   44.1049   54.1376 O.2       2 ALA2        0.0000 
     52 NZ          3.3256   45.0606   54.9678 N.2       3 LYS4        0.0000 
     53 CA          6.0860   39.7411   50.2156 C.3       5 GLY6        0.0000 
     54 O           5.2813   40.6968   51.0458 O.2       2 ALA2        0.0000 
     55 OG          4.4766   41.6524   51.8760 O.2       1 SER1        0.0000 
     56 OG          3.6719   42.6080   52.7062 O.2       1 SER1        0.0000 
     57 DU          2.8672   43.5636   53.5364 H         6 CUB7        0.0000 
     58 NZ          2.0625   44.5192   54.3667 N.2       3 LYS4        0.0000 
     59 OG          2.4088   42.0666   52.1050 O.2       1 SER1        0.0000 
     60 OG          1.6041   43.0222   52.9352 O.2       1 SER1        0.0000 
     61 NZ          0.7994   43.9778   53.7655 N.2       3 LYS4        0.0000 
     62 OG          0.3409   42.4809   52.3341 O.2       1 SER1        0.0000 
     63 O          11.8599   39.9293   52.8852 O.2       2 ALA2        0.0000 
     64 O          11.0552   40.8849   53.7154 O.2       2 ALA2        0.0000 
     65 O          10.2505   41.8406   54.5456 O.2       2 ALA2        0.0000 
     66 CA          9.4458   42.7962   55.3759 C.3       5 GLY6        0.0000 
     67 CA          8.6411   43.7518   56.2061 C.3       5 GLY6        0.0000 
     68 CA         11.4014   38.4324   51.4538 C.3       5 GLY6        0.0000 
     69 CA         10.5967   39.3880   52.2840 C.3       5 GLY6        0.0000 
     70 O           9.7920   40.3436   53.1142 O.2       2 ALA2        0.0000 
     71 DU          8.9873   41.2992   53.9445 H         6 CUB7        0.0000 
     72 DU          8.1826   42.2548   54.7747 H         6 CUB7        0.0000 
     73 O           7.3779   43.2104   55.6049 O.2       2 ALA2        0.0000 
     74 N           9.3336   38.8466   51.6828 N.2       2 ALA2        0.0000 
     75 N           8.5289   39.8022   52.5131 N.2       2 ALA2        0.0000 
     76 DU          7.7242   40.7578   53.3433 H         6 CUB7        0.0000 
     77 O           6.1148   42.6691   55.0037 O.2       2 ALA2        0.0000 
     78 N           8.0705   38.3053   51.0817 N.2       2 ALA2        0.0000 
     79 N           7.2658   39.2609   51.9119 N.2       2 ALA2        0.0000 
     80 DU          6.4611   40.2165   52.7421 H         6 CUB7        0.0000 
     81 DU          5.6564   41.1721   53.5723 H         6 CUB7        0.0000 
     82 DU          4.8517   42.1277   54.4025 H         6 CUB7        0.0000 
     83 O           4.0470   43.0833   55.2327 O.2       2 ALA2        0.0000 
     84 N           6.8073   37.7639   50.4805 N.2       2 ALA2        0.0000 
     85 CA          6.0026   38.7195   51.3107 C.3       5 GLY6        0.0000 
     86 O           5.1979   39.6751   52.1409 O.2       2 ALA2        0.0000 
     87 OG          4.3932   40.6307   52.9711 O.2       1 SER1        0.0000 
     88 OG          3.5885   41.5863   53.8013 O.2       1 SER1        0.0000 
     89 NZ          2.7838   42.5419   54.6316 N.2       3 LYS4        0.0000 
     90 NZ          1.5207   42.0006   54.0304 N.2       3 LYS4        0.0000 
     91 CA         10.6255   42.3159   57.0722 C.3       5 GLY6        0.0000 
     92 O          10.9718   39.8633   54.8106 O.2       2 ALA2        0.0000 
     93 O          10.1671   40.8189   55.6408 O.2       2 ALA2        0.0000 
     94 DU          9.3624   41.7745   56.4710 H         6 CUB7        0.0000 
     95 N           8.5577   42.7301   57.3012 N.2       2 ALA2        0.0000 
     96 CA         10.5134   38.3663   53.3792 C.3       5 GLY6        0.0000 
     97 DU          9.7087   39.3220   54.2094 H         6 CUB7        0.0000 
     98 DU          8.9040   40.2776   55.0396 H         6 CUB7        0.0000 
     99 DU          8.0993   41.2332   55.8698 H         6 CUB7        0.0000 
    100 NZ          7.2946   42.1888   56.7000 N.2       3 LYS4        0.0000 
    101 N           8.4455   38.7806   53.6082 N.2       2 ALA2        0.0000 
    102 DU          7.6408   39.7362   54.4384 H         6 CUB7        0.0000 
    103 DU          6.8361   40.6918   55.2686 H         6 CUB7        0.0000 
    104 NZ          6.0314   41.6474   56.0988 N.2       3 LYS4        0.0000 
    105 N           7.1824   38.2392   53.0070 N.2       2 ALA2        0.0000 
    106 O           6.3777   39.1948   53.8372 O.2       2 ALA2        0.0000 
    107 NZ          5.5730   40.1505   54.6674 N.2       3 LYS4        0.0000 
    108 NZ          4.7683   41.1061   55.4977 N.2       3 LYS4        0.0000 
    109 O           5.1146   38.6535   53.2360 O.2       2 ALA2        0.0000 
    110 O           4.3099   39.6091   54.0663 O.2       2 ALA2        0.0000 
    111 NZ          3.5052   40.5647   54.8965 N.2       3 LYS4        0.0000 
    112 O          10.8884   38.8417   55.9057 O.2       2 ALA2        0.0000 
    113 CA         10.0837   39.7973   56.7359 C.3       5 GLY6        0.0000 
    114 CA          9.2790   40.7529   57.5661 C.3       5 GLY6        0.0000 
    115 O           9.6253   38.3003   55.3045 O.2       2 ALA2        0.0000 
    116 O           8.8206   39.2559   56.1347 O.2       2 ALA2        0.0000 
    117 NZ          8.0159   40.2115   56.9649 N.2       3 LYS4        0.0000 
    118 CA          8.3622   37.7590   54.7033 C.3       5 GLY6        0.0000 
    119 NZ          7.5575   38.7146   55.5335 N.2       3 LYS4        0.0000 
    120 NZ          6.7528   39.6702   56.3638 N.2       3 LYS4        0.0000 
    121 NZ          6.2943   38.1732   54.9324 N.2       3 LYS4        0.0000 
@<TRIPOS>BOND
@<TRIPOS>SUBSTRUCTURE
     1 SER1       26 GROUP   
     2 ALA2        6 GROUP   
     3 LYS4       14 GROUP   
     4 PHE5       46 GROUP   
     5 GLY6        1 GROUP   
     6 CUB7        3 GROUP   
@<TRIPOS>SET

