#    Name: 1g0h_IPD_2_INTS_M
#    Modification time : Tue Mar 25 02:14:43 2014

@<TRIPOS>MOLECULE
1g0h_IPD_2_INTS_M
   28     0     9     0     0
SMALL
NO_CHARGES


@<TRIPOS>ATOM
      1 CA          8.7070   37.2430   55.2090 C.3       3 GLC5        0.0000 
      2 CA          8.8000   39.4610   55.3690 C.3       9 GLL5        0.0000 
      3 CA          8.6140   35.0250   55.0490 C.3       6 GLP5        0.0000 
      4 O           6.0950   38.4790   57.3615 O.2       1 ALC1        0.0000 
      5 O           7.1960   39.1620   57.2450 O.2       7 ALL1        0.0000 
      6 O           4.9940   37.7960   57.4780 O.2       4 ALP1        0.0000 
      7 N           9.5535   37.2170   56.5670 N.am      2 SEC2        0.0000 
      8 N           9.6450   38.5040   55.9930 N.am      8 SEL2        0.0000 
      9 N           9.4620   35.9300   57.1410 N.am      5 SEP2        0.0000 
     10 N          12.0770   41.7545   55.5130 N.am      2 SEC2        0.0000 
     11 N          10.6810   40.9100   55.1310 N.am      8 SEL2        0.0000 
     12 N          13.4730   42.5990   55.8950 N.am      5 SEP2        0.0000 
     13 N          12.0485   41.3135   54.4570 N.am      2 SEC2        0.0000 
     14 N          13.4160   41.7170   53.7830 N.am      5 SEP2        0.0000 
     15 N           5.4455   43.7460   56.5065 N.am      2 SEC2        0.0000 
     16 N           6.1960   42.9330   55.2080 N.am      8 SEL2        0.0000 
     17 N           4.6950   44.5590   57.8050 N.am      5 SEP2        0.0000 
     18 N           1.4650   40.9160   55.8365 N.am      2 SEC2        0.0000 
     19 N           2.4810   40.1870   55.0960 N.am      8 SEL2        0.0000 
     20 N           0.4490   41.6450   56.5770 N.am      5 SEP2        0.0000 
     21 N           1.8285   39.9960   53.5020 N.am      2 SEC2        0.0000 
     22 N           1.1760   39.8050   51.9080 N.am      5 SEP2        0.0000 
     23 N           4.0305   38.0645   53.6700 N.am      2 SEC2        0.0000 
     24 N           4.1280   39.5730   53.3520 N.am      8 SEL2        0.0000 
     25 N           3.9330   36.5560   53.9880 N.am      5 SEP2        0.0000 
     26 N           3.5195   38.5870   52.4340 N.am      2 SEC2        0.0000 
     27 N           2.9110   37.6010   51.5160 N.am      5 SEP2        0.0000 
     28 N           2.6520   39.6890   52.6300 N.am      2 SEC2        0.0000 
@<TRIPOS>BOND
@<TRIPOS>SUBSTRUCTURE
     1 ALC1        4 GROUP        1 X    ALC  0     ROOT ALC X 1
     2 SEC2        7 GROUP        1 X    SEC  0     **** SEC X 2
     3 GLC5        1 GROUP        1 X    GLC  0     **** GLC X 6
     4 ALP1        6 GROUP        1 Y    ALP  0     ROOT ALP Y 8
     5 SEP2        9 GROUP        1 Y    SEP  0     **** SEP Y 9
     6 GLP5        3 GROUP        1 Y    GLP  0     **** GLP Y 13
     7 ALL1        5 GROUP        1 Z    ALL  0     ROOT ALL Z 15
     8 SEL2        8 GROUP        1 Z    SEL  0     **** SEL Z 16
     9 GLL5        2 GROUP        1 Z    GLL  0     **** GLL Z 20
@<TRIPOS>SET

