#    Name: 1g0h_IPD_2_ligand
#    Modification time : Tue Mar 25 02:14:43 2014

@<TRIPOS>MOLECULE
1g0h_IPD_2_ligand
   27    27     1     0     0
SMALL
NO_CHARGES


@<TRIPOS>ATOM
      1 C1          6.4460   40.4380   55.1630 C.3       1 IPD592      0.0000 
      2 C2          7.3190   39.2800   55.8050 C.3       1 IPD592      0.0000 
      3 C3          8.8000   39.4610   55.3690 C.3       1 IPD592      0.0000 
      4 C4          9.3560   40.8500   55.6710 C.3       1 IPD592      0.0000 
      5 C5          8.4580   41.9750   55.1120 C.3       1 IPD592      0.0000 
      6 C6          7.0130   41.8240   55.6460 C.3       1 IPD592      0.0000 
      7 P1          3.8200   40.4880   54.4980 P.3       1 IPD592      0.0000 
      8 O1          5.0080   40.2840   55.5410 O.3       1 IPD592      0.0000 
      9 O2          7.1960   39.1620   57.2450 O.3       1 IPD592      0.0000 
     10 O3          9.6450   38.5040   55.9930 O.3       1 IPD592      0.0000 
     11 O4         10.6810   40.9100   55.1310 O.3       1 IPD592      0.0000 
     12 O5          8.9590   43.2610   55.4880 O.3       1 IPD592      0.0000 
     13 O6          6.1960   42.9330   55.2080 O.3       1 IPD592      0.0000 
     14 O7          2.4810   40.1870   55.0960 O.co2     1 IPD592      0.0000 
     15 O8          3.8720   41.9390   53.9800 O.co2     1 IPD592      0.0000 
     16 O9          4.1280   39.5730   53.3520 O.co2     1 IPD592      0.0000 
     17 H           6.5718   40.3826   54.0997 H         1 IPD592      0.0000 
     18 H           6.9759   38.3453   55.3134 H         1 IPD592      0.0000 
     19 H           8.8339   39.3299   54.2772 H         1 IPD592      0.0000 
     20 H           9.3895   40.9569   56.7570 H         1 IPD592      0.0000 
     21 H           8.4183   41.8683   54.0373 H         1 IPD592      0.0000 
     22 H           7.0749   41.7791   56.7278 H         1 IPD592      0.0000 
     23 H           6.2135   39.0860   57.4154 H         1 IPD592      0.0000 
     24 H           9.6046   38.7203   56.9685 H         1 IPD592      0.0000 
     25 H          11.0184   39.9694   55.1683 H         1 IPD592      0.0000 
     26 H           8.1778   43.8790   55.3995 H         1 IPD592      0.0000 
     27 H           5.3977   42.5120   54.7773 H         1 IPD592      0.0000 
@<TRIPOS>BOND
     1    2    1 1    
     2    6    1 1    
     3    8    1 1    
     4   17    1 1    
     5    3    2 1    
     6    9    2 1    
     7   18    2 1    
     8    4    3 1    
     9   10    3 1    
    10   19    3 1    
    11    5    4 1    
    12   11    4 1    
    13   20    4 1    
    14    6    5 1    
    15   12    5 1    
    16   21    5 1    
    17   13    6 1    
    18   22    6 1    
    19    8    7 1    
    20   14    7 ar   
    21   15    7 ar   
    22   16    7 ar   
    23   23    9 1    
    24   24   10 1    
    25   25   11 1    
    26   26   12 1    
    27   27   13 1    
@<TRIPOS>SUBSTRUCTURE
     1 IPD592      1 GROUP   
@<TRIPOS>SET

