#    Name: 3tv7_07Q_1_INTS_M
#    Modification time : Mon Mar 24 20:59:44 2014

@<TRIPOS>MOLECULE
3tv7_07Q_1_INTS_M
   84     0     9     0     0
SMALL
NO_CHARGES


@<TRIPOS>ATOM
      1 N          -0.3275  -47.3710   12.7465 N.am      2 SEC2        0.0000 
      2 N           1.0910  -46.9370   12.9000 N.am      8 SEL2        0.0000 
      3 N          -1.7460  -47.8050   12.5930 N.am      5 SEP2        0.0000 
      4 O           2.5095  -48.1215   11.1235 O.2       1 ALC1        0.0000 
      5 O           2.8900  -46.5020   11.4730 O.2       7 ALL1        0.0000 
      6 O           2.1290  -49.7410   10.7740 O.2       4 ALP1        0.0000 
      7 CA          4.6765  -42.2480   12.1435 C.3       3 GLC5        0.0000 
      8 CA          3.7970  -44.1850   11.5090 C.3       9 GLL5        0.0000 
      9 CA          5.5560  -40.3110   12.7780 C.3       6 GLP5        0.0000 
     10 CA          2.6775  -43.4185   12.8670 C.3       3 GLC5        0.0000 
     11 CA          1.5580  -42.6520   14.2250 C.3       6 GLP5        0.0000 
     12 CA          2.6300  -41.7160    9.9935 C.3       3 GLC5        0.0000 
     13 CA          1.2570  -43.3310   10.6920 C.3       9 GLL5        0.0000 
     14 CA          4.0030  -40.1010    9.2950 C.3       6 GLP5        0.0000 
     15 CA         -1.0405  -43.4655   12.0420 C.3       3 GLC5        0.0000 
     16 CA          0.0310  -42.7870   10.2780 C.3       9 GLL5        0.0000 
     17 CA         -2.1120  -44.1440   13.8060 C.3       6 GLP5        0.0000 
     18 CA         -2.2235  -45.2650    7.3480 C.3       3 GLC5        0.0000 
     19 CA         -1.4460  -46.9390    8.5250 C.3       9 GLL5        0.0000 
     20 CA         -3.0010  -43.5910    6.1710 C.3       6 GLP5        0.0000 
     21 CA         -1.6635  -46.6275   10.5140 C.3       3 GLC5        0.0000 
     22 CA         -1.8810  -46.3160   12.5030 C.3       6 GLP5        0.0000 
     23 CA         -3.0775  -45.6585    9.1005 C.3       3 GLC5        0.0000 
     24 CA         -4.7090  -44.3780    9.6760 C.3       6 GLP5        0.0000 
     25 CA         -3.4140  -47.7675    8.4135 C.3       3 GLC5        0.0000 
     26 CA         -5.3820  -48.5960    8.3020 C.3       6 GLP5        0.0000 
     27 CA          2.3200  -44.1330   17.2090 C.3       3 GLC5        0.0000 
     28 CA          2.6020  -46.2620   17.8140 C.3       9 GLL5        0.0000 
     29 CA          2.0380  -42.0040   16.6040 C.3       6 GLP5        0.0000 
     30 CA          3.0630  -43.3995   17.9550 C.3       3 GLC5        0.0000 
     31 CA          4.0880  -44.7950   19.3060 C.3       9 GLL5        0.0000 
     32 CA          5.1950  -45.7185   21.9905 C.3       3 GLC5        0.0000 
     33 CA          4.5170  -44.3870   20.5820 C.3       9 GLL5        0.0000 
     34 CA          5.8730  -47.0500   23.3990 C.3       6 GLP5        0.0000 
     35 N           4.4295  -45.0075   23.0450 N.am      2 SEC2        0.0000 
     36 N           3.9790  -44.9420   21.6830 N.am      8 SEL2        0.0000 
     37 N           4.8800  -45.0730   24.4070 N.am      5 SEP2        0.0000 
     38 CA          2.8715  -45.0375   23.3475 C.3       3 GLC5        0.0000 
     39 CA          3.0070  -45.9080   21.6010 C.3       9 GLL5        0.0000 
     40 CA          2.7360  -44.1670   25.0940 C.3       6 GLP5        0.0000 
     41 CA          1.3025  -47.9205   21.1520 C.3       3 GLC5        0.0000 
     42 CA          2.5480  -46.3550   20.3540 C.3       9 GLL5        0.0000 
     43 CA          0.0570  -49.4860   21.9500 C.3       6 GLP5        0.0000 
     44 CA         -0.2340  -46.6450   18.2615 C.3       3 GLC5        0.0000 
     45 CA          1.4510  -47.0750   17.5560 C.3       9 GLL5        0.0000 
     46 CA         -1.9190  -46.2150   18.9670 C.3       6 GLP5        0.0000 
     47 CA         -0.2310  -46.4960   14.9040 C.3       3 GLC5        0.0000 
     48 CA          1.3000  -47.3560   15.9480 C.3       9 GLL5        0.0000 
     49 CA         -1.7620  -45.6360   13.8600 C.3       6 GLP5        0.0000 
     50 CA          1.9355  -48.8725   16.8570 C.3       3 GLC5        0.0000 
     51 CA          2.5710  -50.3890   17.7660 C.3       6 GLP5        0.0000 
     52 CA          0.9465  -49.0755   14.9600 C.3       3 GLC5        0.0000 
     53 CA          0.5930  -50.7950   13.9720 C.3       6 GLP5        0.0000 
     54 CA          2.8445  -43.8380    9.2978 C.3       3 GLC5        0.0000 
     55 CA          2.9890  -45.2190   10.7360 C.3       9 GLL5        0.0000 
     56 CA          2.2960  -42.9740    7.4730 C.3       6 GLP5        0.0000 
     57 CA          1.8752  -43.4742    8.9817 C.3       3 GLC5        0.0000 
     58 CA          1.6520  -44.6180   10.2890 C.3       9 GLL5        0.0000 
     59 CA          0.6455  -41.0710   10.9555 C.3       3 GLC5        0.0000 
     60 CA          0.6470  -39.0830   11.4260 C.3       6 GLP5        0.0000 
     61 CA          0.9515  -43.0680    8.6675 C.3       3 GLC5        0.0000 
     62 CA         -1.0730  -41.4255    9.2170 C.3       3 GLC5        0.0000 
     63 CA         -1.7530  -39.6890    8.5720 C.3       6 GLP5        0.0000 
     64 CA          1.1504  -43.0164   12.3046 C.3       3 GLC5        0.0000 
     65 CA         -1.8150  -43.8855    7.7048 C.3       3 GLC5        0.0000 
     66 CA         -0.8170  -43.5370    9.4460 C.3       9 GLL5        0.0000 
     67 CA         -2.6690  -44.2790    9.4573 C.3       3 GLC5        0.0000 
     68 CA         -0.4410  -44.8230    9.0310 C.3       9 GLL5        0.0000 
     69 CA          1.2370  -44.0343    8.3580 C.3       3 GLC5        0.0000 
     70 CA         -0.8985  -45.5445   10.9249 C.3       3 GLC5        0.0000 
     71 CA          0.7970  -45.3660    9.4550 C.3       9 GLL5        0.0000 
     72 CA          4.0010  -47.5007   18.9630 C.3       3 GLC5        0.0000 
     73 CA          5.1610  -48.9730   19.4290 C.3       6 GLP5        0.0000 
     74 CA          2.2988  -48.5288   17.7255 C.3       3 GLC5        0.0000 
     75 CA          4.6133  -42.5445   19.4630 C.3       3 GLC5        0.0000 
     76 CA          4.9240  -40.4980   18.9820 C.3       6 GLP5        0.0000 
     77 CA          5.7852  -46.0980   19.6130 C.3       3 GLC5        0.0000 
     78 CA          7.2680  -47.6050   19.2820 C.3       6 GLP5        0.0000 
     79 CA          2.5903  -43.9015   20.5348 C.3       3 GLC5        0.0000 
     80 CA          1.1300  -42.9620   21.1570 C.3       6 GLP5        0.0000 
     81 CA          1.9538  -44.5468   21.0672 C.3       3 GLC5        0.0000 
     82 CA          3.7107  -47.0307   22.2873 C.3       3 GLC5        0.0000 
     83 CA          4.6440  -47.9300   23.5970 C.3       6 GLP5        0.0000 
     84 CA          3.9692  -47.5523   20.2033 C.3       3 GLC5        0.0000 
@<TRIPOS>BOND
@<TRIPOS>SUBSTRUCTURE
     1 ALC1        4 GROUP        1 X    ALC  0     ROOT ALC X 1
     2 SEC2        1 GROUP        1 X    SEC  0     **** SEC X 2
     3 GLC5        7 GROUP        1 X    GLC  0     **** GLC X 6
     4 ALP1        6 GROUP        1 Y    ALP  0     ROOT ALP Y 8
     5 SEP2        3 GROUP        1 Y    SEP  0     **** SEP Y 9
     6 GLP5        9 GROUP        1 Y    GLP  0     **** GLP Y 13
     7 ALL1        5 GROUP        1 Z    ALL  0     ROOT ALL Z 15
     8 SEL2        2 GROUP        1 Z    SEL  0     **** SEL Z 16
     9 GLL5        8 GROUP        1 Z    GLL  0     **** GLL Z 20
@<TRIPOS>SET

