#    Name: 3tv7_07Q_1_ligand
#    Modification time : Mon Mar 24 20:59:45 2014

@<TRIPOS>MOLECULE
3tv7_07Q_1_ligand
   43    45     1     0     0
SMALL
NO_CHARGES


@<TRIPOS>ATOM
      1 O01         1.0910  -46.9370   12.9000 O.2       1 07Q1        0.0000 
      2 C02         2.2820  -46.6240   12.8010 C.2       1 07Q1        0.0000 
      3 N03         2.8900  -46.5020   11.4730 N.am      1 07Q1        0.0000 
      4 C04         2.9890  -45.2190   10.7360 C.3       1 07Q1        0.0000 
      5 C05         3.7970  -44.1850   11.5090 C.3       1 07Q1        0.0000 
      6 C06         1.6520  -44.6180   10.2890 C.ar      1 07Q1        0.0000 
      7 C07         1.2570  -43.3310   10.6920 C.ar      1 07Q1        0.0000 
      8 C08         0.0310  -42.7870   10.2780 C.ar      1 07Q1        0.0000 
      9 C09        -0.8170  -43.5370    9.4460 C.ar      1 07Q1        0.0000 
     10 C10        -0.4410  -44.8230    9.0310 C.ar      1 07Q1        0.0000 
     11 O11        -1.2680  -45.5880    8.2160 O.3       1 07Q1        0.0000 
     12 C12        -1.4460  -46.9390    8.5250 C.3       1 07Q1        0.0000 
     13 C13         0.7970  -45.3660    9.4550 C.ar      1 07Q1        0.0000 
     14 N14         3.1010  -46.3650   14.0090 N.am      1 07Q1        0.0000 
     15 C15         2.6190  -46.5280   15.3960 C.2       1 07Q1        0.0000 
     16 N16         3.2850  -45.9580   16.5080 N.2       1 07Q1        0.0000 
     17 C17         2.6020  -46.2620   17.8140 C.2       1 07Q1        0.0000 
     18 C18         3.0800  -45.7950   19.1800 C.ar      1 07Q1        0.0000 
     19 C19         4.0880  -44.7950   19.3060 C.ar      1 07Q1        0.0000 
     20 C20         4.5170  -44.3870   20.5820 C.ar      1 07Q1        0.0000 
     21 N21         3.9790  -44.9420   21.6830 N.ar      1 07Q1        0.0000 
     22 C22         3.0070  -45.9080   21.6010 C.ar      1 07Q1        0.0000 
     23 C23         2.5480  -46.3550   20.3540 C.ar      1 07Q1        0.0000 
     24 C24         1.4510  -47.0750   17.5560 C.2       1 07Q1        0.0000 
     25 S25         1.3000  -47.3560   15.9480 S.3       1 07Q1        0.0000 
     26 H           3.2684  -47.3431   11.0245 H         1 07Q1        0.0000 
     27 H           3.5739  -45.4088    9.7916 H         1 07Q1        0.0000 
     28 H           1.8781  -42.7780   11.3015 H         1 07Q1        0.0000 
     29 H          -0.2437  -41.8507   10.5798 H         1 07Q1        0.0000 
     30 H          -1.7130  -43.1423    9.1419 H         1 07Q1        0.0000 
     31 H           1.0682  -46.3046    9.1529 H         1 07Q1        0.0000 
     32 H           4.0737  -46.0495   13.8697 H         1 07Q1        0.0000 
     33 H           4.4925  -44.3809   18.4668 H         1 07Q1        0.0000 
     34 H           5.2477  -43.6582   20.6446 H         1 07Q1        0.0000 
     35 H           2.6016  -46.3176   22.4592 H         1 07Q1        0.0000 
     36 H           1.8335  -47.0810   20.2977 H         1 07Q1        0.0000 
     37 H           0.8312  -47.4349   18.1201 H         1 07Q1        0.0000 
     38 H           4.7304  -44.4982   11.6841 H         1 07Q1        0.0000 
     39 H           3.8665  -43.3203   11.0115 H         1 07Q1        0.0000 
     40 H           3.3852  -43.9800   12.3969 H         1 07Q1        0.0000 
     41 H          -0.5815  -47.4413    8.5062 H         1 07Q1        0.0000 
     42 H          -1.8373  -47.0630    9.4369 H         1 07Q1        0.0000 
     43 H          -2.0611  -47.3900    7.8783 H         1 07Q1        0.0000 
@<TRIPOS>BOND
     1    2    1 2    
     2    3    2 am   
     3   14    2 am   
     4    4    3 1    
     5   26    3 1    
     6    5    4 1    
     7    6    4 1    
     8   27    4 1    
     9   38    5 1    
    10   39    5 1    
    11   40    5 1    
    12    7    6 ar   
    13   13    6 ar   
    14    8    7 ar   
    15   28    7 1    
    16    9    8 ar   
    17   29    8 1    
    18   10    9 ar   
    19   30    9 1    
    20   11   10 1    
    21   13   10 ar   
    22   12   11 1    
    23   41   12 1    
    24   42   12 1    
    25   43   12 1    
    26   31   13 1    
    27   15   14 1    
    28   32   14 1    
    29   16   15 2    
    30   25   15 1    
    31   17   16 1    
    32   18   17 1    
    33   24   17 2    
    34   19   18 ar   
    35   23   18 ar   
    36   20   19 ar   
    37   33   19 1    
    38   21   20 ar   
    39   34   20 1    
    40   22   21 ar   
    41   23   22 ar   
    42   35   22 1    
    43   36   23 1    
    44   25   24 1    
    45   37   24 1    
@<TRIPOS>SUBSTRUCTURE
     1 07Q1        1 GROUP   
@<TRIPOS>SET

