#    Name: 3h4l_ANP_1_INTS_M
#    Modification time : Tue Mar 25 13:34:30 2014

@<TRIPOS>MOLECULE
3h4l_ANP_1_INTS_M
   62     0    15     0     0
SMALL
NO_CHARGES


@<TRIPOS>ATOM
      1 NZ         38.0885    7.3045   14.3335 N.4       3 LYC4        0.0000 
      2 NZ         38.8550    6.1690   14.6460 N.4      13 LYL4        0.0000 
      3 NZ         37.3220    8.4400   14.0210 N.4       8 LYP4        0.0000 
      4 Zn         38.9790    5.2520   14.0950 Zn        4 ZIC7        0.0000 
      5 Zn         38.8550    6.1690   14.6460 Zn       14 ZIL7        0.0000 
      6 Zn         39.1030    4.3350   13.5440 Zn        9 ZIP7        0.0000 
      7 N          38.0885    7.3045   14.3335 N.am      2 SEC2        0.0000 
      8 N          38.8550    6.1690   14.6460 N.am     12 SEL2        0.0000 
      9 N          37.3220    8.4400   14.0210 N.am      7 SEP2        0.0000 
     10 NZ         42.3065    6.0605   13.2980 N.4       3 LYC4        0.0000 
     11 NZ         40.9890    6.5950   13.5690 N.4      13 LYL4        0.0000 
     12 NZ         43.6240    5.5260   13.0270 N.4       8 LYP4        0.0000 
     13 N          42.3065    6.0605   13.2980 N.am      2 SEC2        0.0000 
     14 N          40.9890    6.5950   13.5690 N.am     12 SEL2        0.0000 
     15 N          43.6240    5.5260   13.0270 N.am      7 SEP2        0.0000 
     16 NZ         38.7865    8.2805   14.6525 N.4       3 LYC4        0.0000 
     17 NZ         40.2510    8.1210   15.2840 N.4      13 LYL4        0.0000 
     18 N          40.6250    8.6525   16.4685 N.am      2 SEC2        0.0000 
     19 N          40.2510    8.1210   15.2840 N.am     12 SEL2        0.0000 
     20 N          40.9990    9.1840   17.6530 N.am      7 SEP2        0.0000 
     21 N          38.7865    8.2805   14.6525 N.am      2 SEC2        0.0000 
     22 N          43.1085    4.4350   17.4075 N.am      2 SEC2        0.0000 
     23 N          41.9680    3.8140   16.9750 N.am     12 SEL2        0.0000 
     24 N          44.2490    5.0560   17.8400 N.am      7 SEP2        0.0000 
     25 NZ         42.2490    4.5070   13.8970 N.4       3 LYC4        0.0000 
     26 NZ         40.8740    3.4880   14.7670 N.4      13 LYL4        0.0000 
     27 Zn         39.9885    3.9115   14.1555 Zn        4 ZIC7        0.0000 
     28 Zn         40.8740    3.4880   14.7670 Zn       14 ZIL7        0.0000 
     29 Zn         38.4780    3.8570   14.2880 Zn        4 ZIC7        0.0000 
     30 Zn         37.8530    3.3790   15.0320 Zn       14 ZIL7        0.0000 
     31 N          37.4550    2.3330   14.0765 N.am      2 SEC2        0.0000 
     32 N          37.8530    3.3790   15.0320 N.am     12 SEL2        0.0000 
     33 N          37.0570    1.2870   13.1210 N.am      7 SEP2        0.0000 
     34 N          35.5870    3.2410   17.4480 N.am      2 SEC2        0.0000 
     35 N          37.1610    3.2020   17.4680 N.am     12 SEL2        0.0000 
     36 N          34.0130    3.2800   17.4280 N.am      7 SEP2        0.0000 
     37 N          39.1770    4.0850   18.3700 N.am      2 SEC2        0.0000 
     38 N          39.5130    3.9760   16.7940 N.am     12 SEL2        0.0000 
     39 N          38.8410    4.1940   19.9460 N.am      7 SEP2        0.0000 
     40 CA         39.2595   -1.6135   18.2670 C.3       5 GLC5        0.0000 
     41 CA         40.5020    0.0670   17.6670 C.3      15 GLL5        0.0000 
     42 CA         38.0170   -3.2940   18.8670 C.3      10 GLP5        0.0000 
     43 CA         39.2980   -2.6155   17.7075 C.3       5 GLC5        0.0000 
     44 CA         40.5790   -1.9370   16.5480 C.3      15 GLL5        0.0000 
     45 CA         41.3020   -3.8430   11.1005 C.3       5 GLC5        0.0000 
     46 CA         39.5310   -3.9160   12.1840 C.3      15 GLL5        0.0000 
     47 CA         43.0730   -3.7700   10.0170 C.3      10 GLP5        0.0000 
     48 CA         38.8425   -5.7565   11.8405 C.3       5 GLC5        0.0000 
     49 CA         38.1540   -7.5970   11.4970 C.3      10 GLP5        0.0000 
     50 O          38.7410   -4.6865    9.8980 O.2       1 ALC1        0.0000 
     51 O          38.6990   -3.9800   11.1460 O.2      11 ALL1        0.0000 
     52 O          38.7830   -5.3930    8.6500 O.2       6 ALP1        0.0000 
     53 CA         42.3040   -4.2380   11.6235 C.3       5 GLC5        0.0000 
     54 CA         41.5350   -4.7060   13.2300 C.3      15 GLL5        0.0000 
     55 CA         42.0300   -6.8465   13.0735 C.3       5 GLC5        0.0000 
     56 CA         42.5250   -8.9870   12.9170 C.3      10 GLP5        0.0000 
     57 CA         40.6120   -5.6860   14.5745 C.3       5 GLC5        0.0000 
     58 CA         39.6890   -6.6660   15.9190 C.3      10 GLP5        0.0000 
     59 CA         38.9540   -1.5768   12.0742 C.3       5 GLC5        0.0000 
     60 CA         39.2710   -3.0390   13.3030 C.3      15 GLL5        0.0000 
     61 CA         38.5070    0.3240   11.4050 C.3      10 GLP5        0.0000 
     62 CA         39.7260   -4.8680   14.8620 C.3       5 GLC5        0.0000 
@<TRIPOS>BOND
@<TRIPOS>SUBSTRUCTURE
     1 ALC1       50 GROUP        1 X    ALC  0     ROOT ALC X 1
     2 SEC2        7 GROUP        1 X    SEC  0     **** SEC X 2
     3 LYC4        1 GROUP        1 X    LYC  0     **** LYC X 4
     4 ZIC7        4 GROUP        1 X    ZIC  0     **** ZIC X 5
     5 GLC5       40 GROUP        1 X    GLC  0     **** GLC X 6
     6 ALP1       52 GROUP        1 Y    ALP  0     ROOT ALP Y 8
     7 SEP2        9 GROUP        1 Y    SEP  0     **** SEP Y 9
     8 LYP4        3 GROUP        1 Y    LYP  0     **** LYP Y 11
     9 ZIP7        6 GROUP        1 Y    ZIP  0     **** ZIP Y 12
    10 GLP5       42 GROUP        1 Y    GLP  0     **** GLP Y 13
    11 ALL1       51 GROUP        1 Z    ALL  0     ROOT ALL Z 15
    12 SEL2        8 GROUP        1 Z    SEL  0     **** SEL Z 16
    13 LYL4        2 GROUP        1 Z    LYL  0     **** LYL Z 18
    14 ZIL7        5 GROUP        1 Z    ZIL  0     **** ZIL Z 19
    15 GLL5       41 GROUP        1 Z    GLL  0     **** GLL Z 20
@<TRIPOS>SET

