#    Name: 3h4l_ANP_1_ligand
#    Modification time : Tue Mar 25 13:34:30 2014

@<TRIPOS>MOLECULE
3h4l_ANP_1_ligand
   43    45     1     0     0
SMALL
NO_CHARGES


@<TRIPOS>ATOM
      1 PG         40.2040    6.7160   14.7790 P.3       1 ANP397      0.0000 
      2 O1G        38.8550    6.1690   14.6460 O.co2     1 ANP397      0.0000 
      3 O2G        40.9890    6.5950   13.5690 O.co2     1 ANP397      0.0000 
      4 O3G        40.2510    8.1210   15.2840 O.co2     1 ANP397      0.0000 
      5 PB         40.8970    4.2170   16.0310 P.3       1 ANP397      0.0000 
      6 O1B        41.9680    3.8140   16.9750 O.co2     1 ANP397      0.0000 
      7 O2B        40.8740    3.4880   14.7670 O.co2     1 ANP397      0.0000 
      8 N3B        40.9560    5.8190   15.8920 N.4       1 ANP397      0.0000 
      9 PA         38.2070    3.1090   16.4200 P.3       1 ANP397      0.0000 
     10 O1A        37.8530    3.3790   15.0320 O.co2     1 ANP397      0.0000 
     11 O2A        37.1610    3.2020   17.4680 O.co2     1 ANP397      0.0000 
     12 O3A        39.5130    3.9760   16.7940 O.3       1 ANP397      0.0000 
     13 O5'        38.5990    1.5490   16.6190 O.3       1 ANP397      0.0000 
     14 C5'        39.7960    1.3300   17.3120 C.3       1 ANP397      0.0000 
     15 C4'        40.5020    0.0670   17.6670 C.3       1 ANP397      0.0000 
     16 O4'        39.7260   -1.0790   17.3070 O.3       1 ANP397      0.0000 
     17 C3'        41.6300    0.1820   16.7090 C.3       1 ANP397      0.0000 
     18 O3'        42.6450    1.0470   17.2530 O.3       1 ANP397      0.0000 
     19 C2'        41.9750   -1.2760   16.4350 C.3       1 ANP397      0.0000 
     20 O2'        42.9440   -1.7210   17.3680 O.3       1 ANP397      0.0000 
     21 C1'        40.5790   -1.9370   16.5480 C.3       1 ANP397      0.0000 
     22 N9         39.8440   -2.2050   15.2760 N.pl3     1 ANP397      0.0000 
     23 C8         38.6640   -1.6760   14.7580 C.2       1 ANP397      0.0000 
     24 N7         38.2810   -2.1230   13.6020 N.2       1 ANP397      0.0000 
     25 C5         39.2710   -3.0390   13.3030 C.ar      1 ANP397      0.0000 
     26 C6         39.5310   -3.9160   12.1840 C.ar      1 ANP397      0.0000 
     27 N6         38.6990   -3.9800   11.1460 N.pl3     1 ANP397      0.0000 
     28 N1         40.6580   -4.7430   12.1730 N.ar      1 ANP397      0.0000 
     29 C2         41.5350   -4.7060   13.2300 C.ar      1 ANP397      0.0000 
     30 N3         41.3790   -3.9100   14.3280 N.ar      1 ANP397      0.0000 
     31 C4         40.2550   -3.1010   14.3070 C.ar      1 ANP397      0.0000 
     32 H          39.7454    1.9500   18.3402 H         1 ANP397      0.0000 
     33 H          40.6424    2.0224   16.8137 H         1 ANP397      0.0000 
     34 H          40.8475    0.0985   18.6283 H         1 ANP397      0.0000 
     35 H          41.2004    0.5890   15.7858 H         1 ANP397      0.0000 
     36 H          42.2778   -1.3354   15.4142 H         1 ANP397      0.0000 
     37 H          40.6960   -2.8787   17.0923 H         1 ANP397      0.0000 
     38 H          38.1579   -0.9710   15.2992 H         1 ANP397      0.0000 
     39 H          38.9697   -4.5910   10.4021 H         1 ANP397      0.0000 
     40 H          37.8785   -3.4113   11.2040 H         1 ANP397      0.0000 
     41 H          42.3891   -5.3395   13.1866 H         1 ANP397      0.0000 
     42 H          42.1541    1.8649   17.5532 H         1 ANP397      0.0000 
     43 H          43.3094   -0.8861   17.7796 H         1 ANP397      0.0000 
@<TRIPOS>BOND
     1    2    1 ar   
     2    3    1 ar   
     3    4    1 ar   
     4    8    1 1    
     5    6    5 ar   
     6    7    5 ar   
     7    8    5 1    
     8   12    5 1    
     9   10    9 ar   
    10   11    9 ar   
    11   12    9 1    
    12   13    9 1    
    13   14   13 1    
    14   15   14 1    
    15   32   14 1    
    16   33   14 1    
    17   16   15 1    
    18   17   15 1    
    19   34   15 1    
    20   21   16 1    
    21   18   17 1    
    22   19   17 1    
    23   35   17 1    
    24   42   18 1    
    25   20   19 1    
    26   21   19 1    
    27   36   19 1    
    28   43   20 1    
    29   22   21 1    
    30   37   21 1    
    31   23   22 1    
    32   31   22 1    
    33   24   23 2    
    34   38   23 1    
    35   25   24 1    
    36   26   25 ar   
    37   31   25 ar   
    38   27   26 1    
    39   28   26 ar   
    40   39   27 1    
    41   40   27 1    
    42   29   28 ar   
    43   30   29 ar   
    44   41   29 1    
    45   31   30 ar   
@<TRIPOS>SUBSTRUCTURE
     1 ANP397      1 GROUP   
@<TRIPOS>SET

