#    Name: 3ik0_7C1_1_INTS_M
#    Modification time : Tue Mar 25 16:39:06 2014

@<TRIPOS>MOLECULE
3ik0_7C1_1_INTS_M
   28     0     3     0     0
SMALL
NO_CHARGES


@<TRIPOS>ATOM
      1 CA        -32.0000    9.8190   32.0860 C.3       1 GLC5        0.0000 
      2 CA        -29.8970    9.8250   31.7420 C.3       3 GLL5        0.0000 
      3 CA        -34.1030    9.8130   32.4300 C.3       2 GLP5        0.0000 
      4 CA        -32.3320    7.8920   29.1040 C.3       1 GLC5        0.0000 
      5 CA        -30.8490    8.0090   30.3020 C.3       3 GLL5        0.0000 
      6 CA        -33.8150    7.7750   27.9060 C.3       2 GLP5        0.0000 
      7 CA        -32.1455    8.4160   31.8095 C.3       1 GLC5        0.0000 
      8 CA        -33.4420    8.8230   33.3170 C.3       2 GLP5        0.0000 
      9 CA        -23.9725    9.2190   24.3255 C.3       1 GLC5        0.0000 
     10 CA        -24.9680    9.3700   22.5690 C.3       3 GLL5        0.0000 
     11 CA        -22.9770    9.0680   26.0820 C.3       2 GLP5        0.0000 
     12 CA        -26.6610    9.7950   21.6915 C.3       1 GLC5        0.0000 
     13 CA        -28.3540   10.2200   20.8140 C.3       2 GLP5        0.0000 
     14 CA        -28.2866   10.8957   33.2886 C.3       1 GLC5        0.0000 
     15 CA        -27.8390   10.9620   35.0970 C.3       2 GLP5        0.0000 
     16 CA        -28.3180   10.0510   25.5000 C.3       1 GLC5        0.0000 
     17 CA        -26.8100    9.8020   26.5070 C.3       3 GLL5        0.0000 
     18 CA        -29.9910   10.9240   24.7720 C.3       2 GLP5        0.0000 
     19 CA        -27.3785    9.0040   22.9295 C.3       1 GLC5        0.0000 
     20 CA        -25.8930    8.4040   24.6940 C.3       3 GLL5        0.0000 
     21 CA        -29.0070    9.0420   21.5500 C.3       2 GLP5        0.0000 
     22 CA        -25.3848   10.9895   22.2508 C.3       1 GLC5        0.0000 
     23 CA        -25.6070    9.5280   23.9240 C.3       3 GLL5        0.0000 
     24 CA        -25.4820   12.5300   21.2550 C.3       2 GLP5        0.0000 
     25 CA        -26.2535   12.4795   24.0255 C.3       1 GLC5        0.0000 
     26 CA        -25.9220   10.7870   24.4330 C.3       3 GLL5        0.0000 
     27 CA        -26.2890   14.1110   22.9890 C.3       2 GLP5        0.0000 
     28 CA        -28.1045   10.8860   24.9170 C.3       1 GLC5        0.0000 
@<TRIPOS>BOND
@<TRIPOS>SUBSTRUCTURE
     1 GLC5        1 GROUP        1 X    GLC  0     ROOT GLC X 6
     2 GLP5        3 GROUP        1 Y    GLP  0     ROOT GLP Y 13
     3 GLL5        2 GROUP        1 Z    GLL  0     ROOT GLL Z 20
@<TRIPOS>SET

