#    Name: 3ik0_7C1_1_ligand
#    Modification time : Tue Mar 25 16:39:06 2014

@<TRIPOS>MOLECULE
3ik0_7C1_1_ligand
   35    37     1     0     0
SMALL
NO_CHARGES


@<TRIPOS>ATOM
      1 C1        -29.8770    9.1300   30.5430 C.ar      1 7C1500      0.0000 
      2 C2        -29.8970    9.8250   31.7420 C.ar      1 7C1500      0.0000 
      3 C3        -29.0000   10.8730   31.9910 C.ar      1 7C1500      0.0000 
      4 C4        -28.0200   11.3100   31.0940 C.ar      1 7C1500      0.0000 
      5 C5        -27.9310   10.6690   29.8730 C.ar      1 7C1500      0.0000 
      6 C6        -28.8580    9.5490   29.5390 C.ar      1 7C1500      0.0000 
      7 C7        -28.4200    9.1670   28.1620 C.2       1 7C1500      0.0000 
      8 C8        -27.0530   10.8270   28.6690 C.2       1 7C1500      0.0000 
      9 N9        -27.3910    9.9250   27.7230 N.am      1 7C1500      0.0000 
     10 N20       -23.8270    9.9930   22.2860 N.pl3     1 7C1500      0.0000 
     11 O10       -28.9730    8.2160   27.4940 O.2       1 7C1500      0.0000 
     12 C21       -30.8490    8.0090   30.3020 C.3       1 7C1500      0.0000 
     13 O11       -26.1100   11.7030   28.5620 O.2       1 7C1500      0.0000 
     14 C12       -26.8100    9.8020   26.5070 C.ar      1 7C1500      0.0000 
     15 C13       -26.4800    8.5540   25.9490 C.ar      1 7C1500      0.0000 
     16 C14       -25.8930    8.4040   24.6940 C.ar      1 7C1500      0.0000 
     17 C15       -25.6070    9.5280   23.9240 C.ar      1 7C1500      0.0000 
     18 C16       -25.9220   10.7870   24.4330 C.ar      1 7C1500      0.0000 
     19 C17       -26.5140   10.9090   25.6910 C.ar      1 7C1500      0.0000 
     20 C18       -24.9680    9.3700   22.5690 C.2       1 7C1500      0.0000 
     21 N19       -25.5010    8.6450   21.6900 N.pl3     1 7C1500      0.0000 
     22 H         -30.5859    9.5701   32.4730 H         1 7C1500      0.0000 
     23 H         -29.0703   11.3675   32.9237 H         1 7C1500      0.0000 
     24 H         -27.3992   12.0725   31.3388 H         1 7C1500      0.0000 
     25 H         -23.4496   10.5704   23.0100 H         1 7C1500      0.0000 
     26 H         -23.4496    9.8276   21.3748 H         1 7C1500      0.0000 
     27 H         -26.6890    7.6927   26.5119 H         1 7C1500      0.0000 
     28 H         -25.6723    7.4666   24.3387 H         1 7C1500      0.0000 
     29 H         -25.7176   11.6298   23.8798 H         1 7C1500      0.0000 
     30 H         -26.7497   11.8634   26.0467 H         1 7C1500      0.0000 
     31 H         -25.0030    8.5620   20.8268 H         1 7C1500      0.0000 
     32 H         -26.3719    8.2208   21.9382 H         1 7C1500      0.0000 
     33 H         -30.7250    7.5976   29.3990 H         1 7C1500      0.0000 
     34 H         -30.7451    7.2763   30.9746 H         1 7C1500      0.0000 
     35 H         -31.7973    8.3221   30.3537 H         1 7C1500      0.0000 
@<TRIPOS>BOND
     1    2    1 ar   
     2    6    1 ar   
     3   12    1 1    
     4    3    2 ar   
     5   22    2 1    
     6    4    3 ar   
     7   23    3 1    
     8    5    4 ar   
     9   24    4 1    
    10    6    5 ar   
    11    8    5 1    
    12    7    6 1    
    13    9    7 am   
    14   11    7 2    
    15    9    8 am   
    16   13    8 2    
    17   14    9 1    
    18   20   10 2    
    19   25   10 1    
    20   26   10 1    
    21   33   12 1    
    22   34   12 1    
    23   35   12 1    
    24   15   14 ar   
    25   19   14 ar   
    26   16   15 ar   
    27   27   15 1    
    28   17   16 ar   
    29   28   16 1    
    30   18   17 ar   
    31   20   17 1    
    32   19   18 ar   
    33   29   18 1    
    34   30   19 1    
    35   21   20 1    
    36   31   21 1    
    37   32   21 1    
@<TRIPOS>SUBSTRUCTURE
     1 7C1500      1 GROUP   
@<TRIPOS>SET

