#    Name: 3iar_3D1_1_INTS_M
#    Modification time : Tue Mar 25 16:09:58 2014

@<TRIPOS>MOLECULE
3iar_3D1_1_INTS_M
   64     0     9     0     0
SMALL
NO_CHARGES


@<TRIPOS>ATOM
      1 N           6.2655   -0.7730    2.4365 N.am      2 SEC2        0.0000 
      2 N           7.5630   -0.5100    2.9120 N.am      8 SEL2        0.0000 
      3 N           4.9680   -1.0360    1.9610 N.am      5 SEP2        0.0000 
      4 O           7.9700    0.6580    2.4390 O.2       1 ALC1        0.0000 
      5 O           7.5630   -0.5100    2.9120 O.2       7 ALL1        0.0000 
      6 O           8.3770    1.8260    1.9660 O.2       4 ALP1        0.0000 
      7 CA          7.9935   -0.1980    4.8115 C.3       3 GLC5        0.0000 
      8 CA          8.5610   -1.4860    3.2370 C.3       9 GLL5        0.0000 
      9 CA          7.4260    1.0900    6.3860 C.3       6 GLP5        0.0000 
     10 CA          9.8940   -1.6900    4.8620 C.3       3 GLC5        0.0000 
     11 CA         11.2270   -1.8940    6.4870 C.3       6 GLP5        0.0000 
     12 CA          7.1925   -2.0085    4.7780 C.3       3 GLC5        0.0000 
     13 CA          5.8240   -2.5310    6.3190 C.3       6 GLP5        0.0000 
     14 CA          9.2370   -3.3740    3.8255 C.3       3 GLC5        0.0000 
     15 CA          9.9130   -5.2620    4.4140 C.3       6 GLP5        0.0000 
     16 CA         11.0395   -2.3135    2.6575 C.3       3 GLC5        0.0000 
     17 CA          8.9980   -2.3440    2.0460 C.3       9 GLL5        0.0000 
     18 CA         13.0810   -2.2830    3.2690 C.3       6 GLP5        0.0000 
     19 CA          9.7115   -4.0275    2.4085 C.3       3 GLC5        0.0000 
     20 CA         10.4250   -5.7110    2.7710 C.3       6 GLP5        0.0000 
     21 CA          9.2930   -4.6435    1.4615 C.3       3 GLC5        0.0000 
     22 CA          8.1610   -3.5760    0.1520 C.3       9 GLL5        0.0000 
     23 CA          7.0560   -4.6725    1.7695 C.3       3 GLC5        0.0000 
     24 CA          5.9510   -5.7690    3.3870 C.3       6 GLP5        0.0000 
     25 CA          7.4910   -4.7685   -1.8465 C.3       3 GLC5        0.0000 
     26 CA          5.9390   -4.4550   -0.6630 C.3       9 GLL5        0.0000 
     27 CA          9.0430   -5.0820   -3.0300 C.3       6 GLP5        0.0000 
     28 CA          5.9450   -5.1120    1.3620 C.3       3 GLC5        0.0000 
     29 N           6.7805   -6.6925    0.5100 N.am      2 SEC2        0.0000 
     30 N           6.1840   -5.7760   -0.5700 N.am      8 SEL2        0.0000 
     31 N           7.3770   -7.6090    1.5900 N.am      5 SEP2        0.0000 
     32 CA          5.1440   -6.8625   -3.0975 C.3       3 GLC5        0.0000 
     33 CA          5.1260   -6.4970   -0.9400 C.3       9 GLL5        0.0000 
     34 CA          5.1620   -7.2280   -5.2550 C.3       6 GLP5        0.0000 
     35 CA          5.5385   -6.1330    1.2235 C.3       3 GLC5        0.0000 
     36 CA          6.8045   -7.3460   -0.0565 C.3       3 GLC5        0.0000 
     37 CA          8.4830   -8.1950    0.8270 C.3       6 GLP5        0.0000 
     38 CA          3.5585   -6.3190    0.0610 C.3       3 GLC5        0.0000 
     39 CA          1.9910   -6.1410    1.0620 C.3       6 GLP5        0.0000 
     40 N           2.9950   -6.9170   -1.9085 N.am      2 SEC2        0.0000 
     41 N           3.9270   -6.0360   -1.3480 N.am      8 SEL2        0.0000 
     42 N           2.0630   -7.7980   -2.4690 N.am      5 SEP2        0.0000 
     43 O           1.0740   -4.7405   -1.8330 O.2       1 ALC1        0.0000 
     44 O           2.4370   -4.2490   -1.5710 O.2       7 ALL1        0.0000 
     45 O          -0.2890   -5.2320   -2.0950 O.2       4 ALP1        0.0000 
     46 O           1.8570   -2.9190   -1.3875 O.2       1 ALC1        0.0000 
     47 O           1.2770   -1.5890   -1.2040 O.2       4 ALP1        0.0000 
     48 CA          3.9705   -2.1905   -0.1115 C.3       3 GLC5        0.0000 
     49 CA          4.7770   -3.8400   -1.0520 C.3       9 GLL5        0.0000 
     50 CA          3.1640   -0.5410    0.8290 C.3       6 GLP5        0.0000 
     51 N           4.3290   -1.4955   -1.8850 N.am      2 SEC2        0.0000 
     52 N           4.8960   -2.4590   -1.0420 N.am      8 SEL2        0.0000 
     53 N           3.7620   -0.5320   -2.7280 N.am      5 SEP2        0.0000 
     54 CA          9.0265   -1.1905   -1.4095 C.3       3 GLC5        0.0000 
     55 CA          9.2450   -2.6510   -0.3450 C.3       9 GLL5        0.0000 
     56 CA          8.8080    0.2700   -2.4740 C.3       6 GLP5        0.0000 
     57 CA          9.5285   -0.2520   -0.5000 C.3       3 GLC5        0.0000 
     58 CA          9.3860   -1.5720    0.7720 C.3       9 GLL5        0.0000 
     59 CA          9.6710    1.0680   -1.7720 C.3       6 GLP5        0.0000 
     60 O          10.6125    0.0630    1.4625 O.2       1 ALC1        0.0000 
     61 O          10.7180   -1.0980    0.8440 O.2       7 ALL1        0.0000 
     62 O          10.5070    1.2240    2.0810 O.2       4 ALP1        0.0000 
     63 CA          8.8730   -4.0977   -1.5633 C.3       3 GLC5        0.0000 
     64 CA          3.1103   -5.2035   -0.0692 C.3       3 GLC5        0.0000 
@<TRIPOS>BOND
@<TRIPOS>SUBSTRUCTURE
     1 ALC1        4 GROUP        1 X    ALC  0     ROOT ALC X 1
     2 SEC2        1 GROUP        1 X    SEC  0     **** SEC X 2
     3 GLC5        7 GROUP        1 X    GLC  0     **** GLC X 6
     4 ALP1        6 GROUP        1 Y    ALP  0     ROOT ALP Y 8
     5 SEP2        3 GROUP        1 Y    SEP  0     **** SEP Y 9
     6 GLP5        9 GROUP        1 Y    GLP  0     **** GLP Y 13
     7 ALL1        5 GROUP        1 Z    ALL  0     ROOT ALL Z 15
     8 SEL2        2 GROUP        1 Z    SEL  0     **** SEL Z 16
     9 GLL5        8 GROUP        1 Z    GLL  0     **** GLL Z 20
@<TRIPOS>SET

