#    Name: 3iar_3D1_1_ligand
#    Modification time : Tue Mar 25 16:09:59 2014

@<TRIPOS>MOLECULE
3iar_3D1_1_ligand
   31    33     1     0     0
SMALL
NO_CHARGES


@<TRIPOS>ATOM
      1 O5'         7.5630   -0.5100    2.9120 O.3       1 3D1501      0.0000 
      2 C5'         8.5610   -1.4860    3.2370 C.3       1 3D1501      0.0000 
      3 C4'         8.9980   -2.3440    2.0460 C.3       1 3D1501      0.0000 
      4 O4'         7.8980   -3.1870    1.5730 O.3       1 3D1501      0.0000 
      5 C1'         8.1610   -3.5760    0.1520 C.3       1 3D1501      0.0000 
      6 N9          6.8170   -3.4220   -0.4010 N.pl3     1 3D1501      0.0000 
      7 C4          5.9390   -4.4550   -0.6630 C.ar      1 3D1501      0.0000 
      8 N3          6.1840   -5.7760   -0.5700 N.ar      1 3D1501      0.0000 
      9 C2          5.1260   -6.4970   -0.9400 C.ar      1 3D1501      0.0000 
     10 N1          3.9270   -6.0360   -1.3480 N.ar      1 3D1501      0.0000 
     11 C6          3.6820   -4.6920   -1.3490 C.ar      1 3D1501      0.0000 
     12 N6          2.4370   -4.2490   -1.5710 N.pl3     1 3D1501      0.0000 
     13 C5          4.7770   -3.8400   -1.0520 C.ar      1 3D1501      0.0000 
     14 N7          4.8960   -2.4590   -1.0420 N.2       1 3D1501      0.0000 
     15 C8          6.1340   -2.2440   -0.6510 C.2       1 3D1501      0.0000 
     16 C2'         9.2450   -2.6510   -0.3450 C.3       1 3D1501      0.0000 
     17 C3'         9.3860   -1.5720    0.7720 C.3       1 3D1501      0.0000 
     18 O3'        10.7180   -1.0980    0.8440 O.3       1 3D1501      0.0000 
     19 H           8.2027   -2.1789    4.0301 H         1 3D1501      0.0000 
     20 H           9.4745   -1.0047    3.6508 H         1 3D1501      0.0000 
     21 H           9.8263   -2.9721    2.3160 H         1 3D1501      0.0000 
     22 H           8.4708   -4.5836    0.1525 H         1 3D1501      0.0000 
     23 H           5.2375   -7.5858   -0.9113 H         1 3D1501      0.0000 
     24 H           2.3076   -3.2585   -1.5247 H         1 3D1501      0.0000 
     25 H           1.7487   -4.9486   -1.7631 H         1 3D1501      0.0000 
     26 H           6.5616   -1.3576   -0.5374 H         1 3D1501      0.0000 
     27 H           8.9467   -2.1718   -1.2450 H         1 3D1501      0.0000 
     28 H          10.1682   -3.1687   -0.4363 H         1 3D1501      0.0000 
     29 H           8.6570   -0.8332    0.5957 H         1 3D1501      0.0000 
     30 H           8.0759    0.2951    2.6142 H         1 3D1501      0.0000 
     31 H          10.6585   -0.2343    1.3445 H         1 3D1501      0.0000 
@<TRIPOS>BOND
     1    2    1 1    
     2   30    1 1    
     3    3    2 1    
     4   19    2 1    
     5   20    2 1    
     6    4    3 1    
     7   17    3 1    
     8   21    3 1    
     9    5    4 1    
    10    6    5 1    
    11   16    5 1    
    12   22    5 1    
    13    7    6 1    
    14   15    6 1    
    15    8    7 ar   
    16   13    7 ar   
    17    9    8 ar   
    18   10    9 ar   
    19   23    9 1    
    20   11   10 ar   
    21   12   11 1    
    22   13   11 ar   
    23   24   12 1    
    24   25   12 1    
    25   14   13 1    
    26   15   14 2    
    27   26   15 1    
    28   17   16 1    
    29   27   16 1    
    30   28   16 1    
    31   18   17 1    
    32   29   17 1    
    33   31   18 1    
@<TRIPOS>SUBSTRUCTURE
     1 3D1501      1 GROUP   
@<TRIPOS>SET

