#    Name: 1dli_UDX_1_INTS_M
#    Modification time : Mon Mar 24 22:04:55 2014

@<TRIPOS>MOLECULE
1dli_UDX_1_INTS_M
   79     0    12     0     0
SMALL
NO_CHARGES


@<TRIPOS>ATOM
      1 CA        -17.7235   14.5450   52.5740 C.3       4 GLC5        0.0000 
      2 CA        -17.7560   14.8500   54.4690 C.3      12 GLL5        0.0000 
      3 CA        -17.6910   14.2400   50.6790 C.3       8 GLP5        0.0000 
      4 O         -21.3720   14.9205   54.7180 O.2       1 ALC1        0.0000 
      5 O         -20.1470   14.6670   54.0400 O.2       9 ALL1        0.0000 
      6 O         -22.5970   15.1740   55.3960 O.2       5 ALP1        0.0000 
      7 O         -20.5375   13.9855   57.1800 O.2       1 ALC1        0.0000 
      8 O         -20.4880   12.9740   56.1890 O.2       9 ALL1        0.0000 
      9 O         -20.5870   14.9970   58.1710 O.2       5 ALP1        0.0000 
     10 CA        -17.4315   11.8485   57.9090 C.3       4 GLC5        0.0000 
     11 CA        -18.1500   13.2440   56.8180 C.3      12 GLL5        0.0000 
     12 CA        -16.7130   10.4530   59.0000 C.3       8 GLP5        0.0000 
     13 NZ        -15.9120   18.3830   58.5075 N.4       3 LYC4        0.0000 
     14 NZ        -16.1060   16.8830   58.5290 N.4      11 LYL4        0.0000 
     15 NZ        -15.7180   19.8830   58.4860 N.4       7 LYP4        0.0000 
     16 N         -17.1570   17.3530   59.4165 N.am      2 SEC2        0.0000 
     17 N         -16.1060   16.8830   58.5290 N.am     10 SEL2        0.0000 
     18 N         -18.2080   17.8230   60.3040 N.am      6 SEP2        0.0000 
     19 N         -15.9120   18.3830   58.5075 N.am      2 SEC2        0.0000 
     20 N         -15.7180   19.8830   58.4860 N.am      6 SEP2        0.0000 
     21 N         -15.2625   18.6670   57.5080 N.am      2 SEC2        0.0000 
     22 N         -14.8070   17.4510   56.5300 N.am     10 SEL2        0.0000 
     23 NZ        -15.2480   19.6065   56.7345 N.4       3 LYC4        0.0000 
     24 NZ        -14.7780   19.3300   54.9830 N.4      11 LYL4        0.0000 
     25 N         -14.7170   16.7965   52.9550 N.am      2 SEC2        0.0000 
     26 N         -15.2640   16.9690   54.1240 N.am     10 SEL2        0.0000 
     27 N         -14.1700   16.6240   51.7860 N.am      6 SEP2        0.0000 
     28 CA         -9.1490   15.4610   54.0190 C.3       4 GLC5        0.0000 
     29 CA        -10.8890   16.3750   54.8170 C.3      12 GLL5        0.0000 
     30 CA         -7.4090   14.5470   53.2210 C.3       8 GLP5        0.0000 
     31 CA        -10.6230   17.3205   57.7465 C.3       4 GLC5        0.0000 
     32 CA        -10.3360   17.4590   55.7320 C.3      12 GLL5        0.0000 
     33 CA        -10.9100   17.1820   59.7610 C.3       8 GLP5        0.0000 
     34 N          -8.4995   15.8040   55.8870 N.am      2 SEC2        0.0000 
     35 N          -9.0530   17.0310   56.2120 N.am     10 SEL2        0.0000 
     36 N          -7.9460   14.5770   55.5620 N.am      6 SEP2        0.0000 
     37 O          -8.5865   17.8165   57.2580 O.2       1 ALC1        0.0000 
     38 O          -9.0530   17.0310   56.2120 O.2       9 ALL1        0.0000 
     39 O          -8.1200   18.6020   58.3040 O.2       5 ALP1        0.0000 
     40 O          -9.5595   20.6590   54.4220 O.2       1 ALC1        0.0000 
     41 O          -9.1170   19.4880   55.2290 O.2       9 ALL1        0.0000 
     42 O         -10.0020   21.8300   53.6150 O.2       5 ALP1        0.0000 
     43 CA        -10.0365   17.3265   51.5105 C.3       4 GLC5        0.0000 
     44 CA         -9.7730   17.9850   53.5050 C.3      12 GLL5        0.0000 
     45 CA        -10.3000   16.6680   49.5160 C.3       8 GLP5        0.0000 
     46 CA         -8.5910   16.2660   53.3630 C.3       4 GLC5        0.0000 
     47 CA        -12.8745   18.3580   51.4460 C.3       4 GLC5        0.0000 
     48 CA        -11.3800   19.1320   52.0680 C.3      12 GLL5        0.0000 
     49 CA        -14.3690   17.5840   50.8240 C.3       8 GLP5        0.0000 
     50 N          -6.5720   19.0580   51.9840 N.am      2 SEC2        0.0000 
     51 N          -7.8800   19.2680   52.0710 N.am     10 SEL2        0.0000 
     52 N          -5.2640   18.8480   51.8970 N.am      6 SEP2        0.0000 
     53 O          -8.4175   21.1305   50.1485 O.2       1 ALC1        0.0000 
     54 O          -9.4180   20.2950   50.7150 O.2       9 ALL1        0.0000 
     55 O          -7.4170   21.9660   49.5820 O.2       5 ALP1        0.0000 
     56 N         -10.1680   22.2005   48.5055 N.am      2 SEC2        0.0000 
     57 N         -10.9310   21.3560   49.3950 N.am     10 SEL2        0.0000 
     58 N          -9.4050   23.0450   47.6160 N.am      6 SEP2        0.0000 
     59 CA        -13.3885   19.3450   51.0980 C.3       4 GLC5        0.0000 
     60 CA        -11.7110   19.9330   51.0760 C.3      12 GLL5        0.0000 
     61 CA        -15.0660   18.7570   51.1200 C.3       8 GLP5        0.0000 
     62 CA        -15.8520   13.5343   54.4105 C.3       4 GLC5        0.0000 
     63 CA        -16.7040   14.7290   55.5470 C.3      12 GLL5        0.0000 
     64 CA        -14.4740   12.2790   53.8130 C.3       8 GLP5        0.0000 
     65 CA        -18.9590   16.5572   55.3458 C.3       4 GLC5        0.0000 
     66 CA        -19.4600   18.3780   55.9260 C.3       8 GLP5        0.0000 
     67 CA        -19.4755   12.6282   57.9177 C.3       4 GLC5        0.0000 
     68 CA        -19.1820   13.2570   55.6970 C.3      12 GLL5        0.0000 
     69 CA        -20.2850   12.0060   59.5780 C.3       8 GLP5        0.0000 
     70 CA        -12.1610   14.9550   53.6910 C.3       4 GLC5        0.0000 
     71 CA        -12.4030   16.3170   54.9090 C.3      12 GLL5        0.0000 
     72 CA        -12.6760   13.5640   52.5190 C.3       8 GLP5        0.0000 
     73 CA         -9.2873   15.4950   56.0992 C.3       4 GLC5        0.0000 
     74 CA         -7.9620   14.0730   56.9240 C.3       8 GLP5        0.0000 
     75 CA        -10.5145   19.2527   56.6417 C.3       4 GLC5        0.0000 
     76 CA        -10.7740   20.4490   58.0160 C.3       8 GLP5        0.0000 
     77 CA        -10.9228   18.1002   50.5440 C.3       4 GLC5        0.0000 
     78 CA        -11.9103   21.1973   52.1055 C.3       4 GLC5        0.0000 
     79 CA        -12.2750   22.8620   52.6390 C.3       8 GLP5        0.0000 
@<TRIPOS>BOND
@<TRIPOS>SUBSTRUCTURE
     1 ALC1        4 GROUP        1 X    ALC  0     ROOT ALC X 1
     2 SEC2       16 GROUP        1 X    SEC  0     **** SEC X 2
     3 LYC4       13 GROUP        1 X    LYC  0     **** LYC X 4
     4 GLC5        1 GROUP        1 X    GLC  0     **** GLC X 6
     5 ALP1        6 GROUP        1 Y    ALP  0     ROOT ALP Y 8
     6 SEP2       18 GROUP        1 Y    SEP  0     **** SEP Y 9
     7 LYP4       15 GROUP        1 Y    LYP  0     **** LYP Y 11
     8 GLP5        3 GROUP        1 Y    GLP  0     **** GLP Y 13
     9 ALL1        5 GROUP        1 Z    ALL  0     ROOT ALL Z 15
    10 SEL2       17 GROUP        1 Z    SEL  0     **** SEL Z 16
    11 LYL4       14 GROUP        1 Z    LYL  0     **** LYL Z 18
    12 GLL5        2 GROUP        1 Z    GLL  0     **** GLL Z 20
@<TRIPOS>SET

