#    Name: 1dli_UDX_1_ligand
#    Modification time : Mon Mar 24 22:04:55 2014

@<TRIPOS>MOLECULE
1dli_UDX_1_ligand
   54    56     1     0     0
SMALL
NO_CHARGES


@<TRIPOS>ATOM
      1 C1'       -16.7040   14.7290   55.5470 C.3       1 UDX404      0.0000 
      2 C2'       -17.7560   14.8500   54.4690 C.3       1 UDX404      0.0000 
      3 O2'       -17.6680   16.1550   53.9340 O.3       1 UDX404      0.0000 
      4 C3'       -19.1600   14.6230   55.0620 C.3       1 UDX404      0.0000 
      5 O3'       -20.1470   14.6670   54.0400 O.3       1 UDX404      0.0000 
      6 C4'       -19.1820   13.2570   55.6970 C.3       1 UDX404      0.0000 
      7 O4'       -20.4880   12.9740   56.1890 O.3       1 UDX404      0.0000 
      8 C5'       -18.1500   13.2440   56.8180 C.3       1 UDX404      0.0000 
      9 O5'       -16.8420   13.5060   56.2690 O.3       1 UDX404      0.0000 
     10 PB        -15.5430   16.2660   57.2920 P.3       1 UDX404      0.0000 
     11 O1B       -14.6240   15.1140   57.4020 O.co2     1 UDX404      0.0000 
     12 O2B       -16.1060   16.8830   58.5290 O.co2     1 UDX404      0.0000 
     13 O3B       -16.7690   15.8500   56.3710 O.3       1 UDX404      0.0000 
     14 O3A       -14.8070   17.4510   56.5300 O.3       1 UDX404      0.0000 
     15 PA        -14.5230   17.8700   55.0210 P.3       1 UDX404      0.0000 
     16 O1A       -14.7780   19.3300   54.9830 O.co2     1 UDX404      0.0000 
     17 O2A       -15.2640   16.9690   54.1240 O.co2     1 UDX404      0.0000 
     18 O5D       -12.9540   17.6280   54.8260 O.3       1 UDX404      0.0000 
     19 C5D       -12.4030   16.3170   54.9090 C.3       1 UDX404      0.0000 
     20 C4D       -10.8890   16.3750   54.8170 C.3       1 UDX404      0.0000 
     21 O4D       -10.5050   16.7340   53.4570 O.3       1 UDX404      0.0000 
     22 C3D       -10.3360   17.4590   55.7320 C.3       1 UDX404      0.0000 
     23 O3D        -9.0530   17.0310   56.2120 O.3       1 UDX404      0.0000 
     24 C2D       -10.1740   18.6540   54.8030 C.3       1 UDX404      0.0000 
     25 O2D        -9.1170   19.4880   55.2290 O.3       1 UDX404      0.0000 
     26 C1D        -9.7730   17.9850   53.5050 C.3       1 UDX404      0.0000 
     27 N1        -10.0840   18.8930   52.4130 N.am      1 UDX404      0.0000 
     28 C6        -11.3800   19.1320   52.0680 C.2       1 UDX404      0.0000 
     29 C2         -9.0480   19.4670   51.7540 C.2       1 UDX404      0.0000 
     30 O2         -7.8800   19.2680   52.0710 O.2       1 UDX404      0.0000 
     31 N3         -9.4180   20.2950   50.7150 N.am      1 UDX404      0.0000 
     32 C4        -10.7090   20.5810   50.3160 C.2       1 UDX404      0.0000 
     33 O4        -10.9310   21.3560   49.3950 O.2       1 UDX404      0.0000 
     34 C5        -11.7110   19.9330   51.0760 C.2       1 UDX404      0.0000 
     35 H         -15.7278   14.7221   55.0098 H         1 UDX404      0.0000 
     36 H         -17.5766   14.1011   53.7257 H         1 UDX404      0.0000 
     37 H         -19.3253   15.3579   55.8195 H         1 UDX404      0.0000 
     38 H         -18.8719   12.5375   54.9522 H         1 UDX404      0.0000 
     39 H         -18.1895   12.2660   57.3053 H         1 UDX404      0.0000 
     40 H         -18.4345   14.0038   57.5510 H         1 UDX404      0.0000 
     41 H         -12.7663   15.6721   54.0954 H         1 UDX404      0.0000 
     42 H         -12.6651   15.8262   55.8578 H         1 UDX404      0.0000 
     43 H         -10.4724   15.4389   55.0934 H         1 UDX404      0.0000 
     44 H         -11.0269   17.6747   56.4726 H         1 UDX404      0.0000 
     45 H         -11.0933   19.1220   54.6759 H         1 UDX404      0.0000 
     46 H          -8.7126   17.7993   53.5619 H         1 UDX404      0.0000 
     47 H         -12.1375   18.6455   52.6313 H         1 UDX404      0.0000 
     48 H          -8.6237   20.7646   50.1604 H         1 UDX404      0.0000 
     49 H         -12.7005   20.1182   50.8161 H         1 UDX404      0.0000 
     50 H         -16.9110   16.5856   54.4256 H         1 UDX404      0.0000 
     51 H         -20.8081   15.3511   54.3481 H         1 UDX404      0.0000 
     52 H         -20.4585   13.2205   57.1576 H         1 UDX404      0.0000 
     53 H          -8.6276   17.8560   56.5839 H         1 UDX404      0.0000 
     54 H          -9.2037   20.3176   54.6774 H         1 UDX404      0.0000 
@<TRIPOS>BOND
     1    2    1 1    
     2    9    1 1    
     3   13    1 1    
     4   35    1 1    
     5    3    2 1    
     6    4    2 1    
     7   36    2 1    
     8   50    3 1    
     9    5    4 1    
    10    6    4 1    
    11   37    4 1    
    12   51    5 1    
    13    7    6 1    
    14    8    6 1    
    15   38    6 1    
    16   52    7 1    
    17    9    8 1    
    18   39    8 1    
    19   40    8 1    
    20   11   10 ar   
    21   12   10 ar   
    22   13   10 1    
    23   14   10 1    
    24   15   14 1    
    25   16   15 ar   
    26   17   15 ar   
    27   18   15 1    
    28   19   18 1    
    29   20   19 1    
    30   41   19 1    
    31   42   19 1    
    32   21   20 1    
    33   22   20 1    
    34   43   20 1    
    35   26   21 1    
    36   23   22 1    
    37   24   22 1    
    38   44   22 1    
    39   53   23 1    
    40   25   24 1    
    41   26   24 1    
    42   45   24 1    
    43   54   25 1    
    44   27   26 1    
    45   46   26 1    
    46   28   27 1    
    47   29   27 1    
    48   34   28 2    
    49   47   28 1    
    50   30   29 2    
    51   31   29 1    
    52   32   31 1    
    53   48   31 1    
    54   33   32 2    
    55   34   32 1    
    56   49   34 1    
@<TRIPOS>SUBSTRUCTURE
     1 UDX404      1 GROUP   
@<TRIPOS>SET

