#    Name: 2dfd_NAD_3_INTS_M
#    Modification time : Tue Mar 25 10:05:45 2014

@<TRIPOS>MOLECULE
2dfd_NAD_3_INTS_M
   90     0     9     0     0
SMALL
NO_CHARGES


@<TRIPOS>ATOM
      1 N          28.7395  164.8100   58.6205 N.am      2 SEC2        0.0000 
      2 N          28.0430  165.2080   57.3720 N.am      8 SEL2        0.0000 
      3 N          29.4360  164.4120   59.8690 N.am      5 SEP2        0.0000 
      4 CA         23.5485  163.9945   61.9690 C.3       3 GLC5        0.0000 
      5 CA         24.1260  164.2280   59.8690 C.3       9 GLL5        0.0000 
      6 CA         22.9710  163.7610   64.0690 C.3       6 GLP5        0.0000 
      7 O          23.2775  160.9650   60.5335 O.2       1 ALC1        0.0000 
      8 O          24.6080  161.8570   59.9430 O.2       7 ALL1        0.0000 
      9 O          21.9470  160.0730   61.1240 O.2       4 ALP1        0.0000 
     10 O          24.0880  161.4475   61.1140 O.2       1 ALC1        0.0000 
     11 O          23.5680  161.0380   62.2850 O.2       4 ALP1        0.0000 
     12 O          22.0285  160.6995   60.0320 O.2       1 ALC1        0.0000 
     13 O          22.1100  161.3260   58.9400 O.2       7 ALL1        0.0000 
     14 CA         22.5005  163.6025   62.1005 C.3       3 GLC5        0.0000 
     15 CA         22.0300  163.4440   60.1320 C.3       9 GLL5        0.0000 
     16 CA         21.8835  165.2965   61.2665 C.3       3 GLC5        0.0000 
     17 CA         21.7370  167.1490   62.4010 C.3       6 GLP5        0.0000 
     18 CA         18.2260  162.1675   59.4555 C.3       3 GLC5        0.0000 
     19 CA         18.4270  163.7370   60.5320 C.3       9 GLL5        0.0000 
     20 CA         18.0250  160.5980   58.3790 C.3       6 GLP5        0.0000 
     21 CA         17.1085  161.6490   61.2890 C.3       3 GLC5        0.0000 
     22 CA         17.3390  163.5360   61.3490 C.3       9 GLL5        0.0000 
     23 CA         16.8780  159.7620   61.2290 C.3       6 GLP5        0.0000 
     24 CA         17.4060  164.9835   63.0080 C.3       3 GLC5        0.0000 
     25 CA         17.4730  166.4310   64.6670 C.3       6 GLP5        0.0000 
     26 CA         20.8920  163.2235   63.5660 C.3       3 GLC5        0.0000 
     27 CA         18.8130  162.6860   63.0630 C.3       9 GLL5        0.0000 
     28 CA         19.8770  161.0900   63.5240 C.3       3 GLC5        0.0000 
     29 CA         20.9410  159.4940   63.9850 C.3       6 GLP5        0.0000 
     30 CA         17.8455  161.2240   62.1460 C.3       3 GLC5        0.0000 
     31 CA         19.6640  164.5555   63.0190 C.3       3 GLC5        0.0000 
     32 CA         20.5150  166.4250   62.9750 C.3       6 GLP5        0.0000 
     33 CA         18.1430  164.5585   63.8650 C.3       3 GLC5        0.0000 
     34 CA         21.3375  163.5855   62.5395 C.3       3 GLC5        0.0000 
     35 CA         19.7040  163.4100   61.0100 C.3       9 GLL5        0.0000 
     36 CA         19.2180  161.6280   60.2365 C.3       3 GLC5        0.0000 
     37 CA         18.7320  159.8460   59.4630 C.3       6 GLP5        0.0000 
     38 N          28.9525  166.8435   60.9085 N.am      2 SEC2        0.0000 
     39 N          27.7050  167.2200   60.2450 N.am      8 SEL2        0.0000 
     40 N          30.2000  166.4670   61.5720 N.am      5 SEP2        0.0000 
     41 CA         23.1790  169.7855   59.4680 C.3       3 GLC5        0.0000 
     42 CA         25.1240  170.7830   59.9120 C.3       9 GLL5        0.0000 
     43 CA         21.2340  168.7880   59.0240 C.3       6 GLP5        0.0000 
     44 CA         23.7455  171.9170   61.0355 C.3       3 GLC5        0.0000 
     45 CA         22.3670  173.0510   62.1590 C.3       6 GLP5        0.0000 
     46 N          23.0725  173.3535   59.4315 N.am      2 SEC2        0.0000 
     47 N          23.5930  172.0870   58.5790 N.am      8 SEL2        0.0000 
     48 N          22.5520  174.6200   60.2840 N.am      5 SEP2        0.0000 
     49 N          25.8335  175.0205   58.2890 N.am      2 SEC2        0.0000 
     50 N          25.7750  173.6250   57.7060 N.am      8 SEL2        0.0000 
     51 N          25.8920  176.4160   58.8720 N.am      5 SEP2        0.0000 
     52 CA         27.3975  171.7020   61.0040 C.3       3 GLC5        0.0000 
     53 CA         26.0380  172.9580   60.0110 C.3       9 GLL5        0.0000 
     54 CA         28.7570  170.4460   61.9970 C.3       6 GLP5        0.0000 
     55 CA         26.2915  172.8350   62.1190 C.3       3 GLC5        0.0000 
     56 CA         26.5450  172.7120   64.2270 C.3       6 GLP5        0.0000 
     57 CA         24.2025  173.0045   61.0850 C.3       3 GLC5        0.0000 
     58 O          25.7010  175.5885   63.2805 O.2       1 ALC1        0.0000 
     59 O          26.8950  176.5350   63.5450 O.2       7 ALL1        0.0000 
     60 O          24.5070  174.6420   63.0160 O.2       4 ALP1        0.0000 
     61 O          26.9450  177.3340   64.9260 O.2       1 ALC1        0.0000 
     62 O          26.9950  178.1330   66.3070 O.2       4 ALP1        0.0000 
     63 CA         31.3865  175.6320   62.0000 C.3       3 GLC5        0.0000 
     64 CA         29.5400  174.8660   61.4830 C.3       9 GLL5        0.0000 
     65 CA         33.2330  176.3980   62.5170 C.3       6 GLP5        0.0000 
     66 CA         31.7810  173.9005   59.9390 C.3       3 GLC5        0.0000 
     67 CA         29.6640  173.8260   60.5490 C.3       9 GLL5        0.0000 
     68 CA         33.8980  173.9750   59.3290 C.3       6 GLP5        0.0000 
     69 CA         30.1400  173.2725   62.3460 C.3       3 GLC5        0.0000 
     70 CA         30.6160  172.7190   64.1430 C.3       6 GLP5        0.0000 
     71 CA         25.9696  163.3871   59.9469 C.3       3 GLC5        0.0000 
     72 CA         24.6790  165.3430   59.0840 C.3       9 GLL5        0.0000 
     73 CA         27.6940  162.9400   60.5990 C.3       6 GLP5        0.0000 
     74 CA         19.7903  164.9993   61.8730 C.3       3 GLC5        0.0000 
     75 CA         17.5850  165.6628   60.9507 C.3       3 GLC5        0.0000 
     76 CA         17.2870  167.6890   60.9610 C.3       6 GLP5        0.0000 
     77 CA         27.1145  170.2725   60.9407 C.3       3 GLC5        0.0000 
     78 CA         25.8200  169.4150   59.8570 C.3       9 GLL5        0.0000 
     79 CA         25.6172  171.5140   56.7310 C.3       3 GLC5        0.0000 
     80 CA         24.8890  171.4920   58.5820 C.3       9 GLL5        0.0000 
     81 CA         25.7950  171.0110   54.8920 C.3       6 GLP5        0.0000 
     82 CA         24.7575  174.4290   58.9072 C.3       3 GLC5        0.0000 
     83 CA         25.9900  172.5420   58.5580 C.3       9 GLL5        0.0000 
     84 CA         23.5010  176.1080   58.5300 C.3       6 GLP5        0.0000 
     85 CA         27.1043  173.8367   62.9363 C.3       3 GLC5        0.0000 
     86 CA         27.0970  174.6520   61.3900 C.3       9 GLL5        0.0000 
     87 CA         29.6520  174.7493   63.2145 C.3       3 GLC5        0.0000 
     88 CA         28.2300  175.2710   61.9010 C.3       9 GLL5        0.0000 
     89 CA         30.4190  174.4300   64.7370 C.3       6 GLP5        0.0000 
     90 CA         28.9185  171.9917   61.1557 C.3       3 GLC5        0.0000 
@<TRIPOS>BOND
@<TRIPOS>SUBSTRUCTURE
     1 ALC1        7 GROUP        1 X    ALC  0     ROOT ALC X 1
     2 SEC2        1 GROUP        1 X    SEC  0     **** SEC X 2
     3 GLC5        4 GROUP        1 X    GLC  0     **** GLC X 6
     4 ALP1        9 GROUP        1 Y    ALP  0     ROOT ALP Y 8
     5 SEP2        3 GROUP        1 Y    SEP  0     **** SEP Y 9
     6 GLP5        6 GROUP        1 Y    GLP  0     **** GLP Y 13
     7 ALL1        8 GROUP        1 Z    ALL  0     ROOT ALL Z 15
     8 SEL2        2 GROUP        1 Z    SEL  0     **** SEL Z 16
     9 GLL5        5 GROUP        1 Z    GLL  0     **** GLL Z 20
@<TRIPOS>SET

