#    Name: 2dfd_NAD_3_ligand
#    Modification time : Tue Mar 25 10:05:45 2014

@<TRIPOS>MOLECULE
2dfd_NAD_3_ligand
   70    74     1     0     0
SMALL
NO_CHARGES


@<TRIPOS>ATOM
      1 PA         26.6900  165.7350   57.5870 P.3       1 NAD3002     0.0000 
      2 O1A        25.8290  165.6550   56.3790 O.co2     1 NAD3002     0.0000 
      3 O2A        28.0430  165.2080   57.3720 O.co2     1 NAD3002     0.0000 
      4 O5B        26.0280  165.0250   58.8280 O.3       1 NAD3002     0.0000 
      5 C5B        24.6790  165.3430   59.0840 C.3       1 NAD3002     0.0000 
      6 C4B        24.1260  164.2280   59.8690 C.3       1 NAD3002     0.0000 
      7 O4B        22.7900  164.6240   60.2230 O.3       1 NAD3002     0.0000 
      8 C3B        24.0880  162.8830   59.1130 C.3       1 NAD3002     0.0000 
      9 O3B        24.6080  161.8570   59.9430 O.3       1 NAD3002     0.0000 
     10 C2B        22.5720  162.6760   58.9070 C.3       1 NAD3002     0.0000 
     11 O2B        22.1100  161.3260   58.9400 O.3       1 NAD3002     0.0000 
     12 C1B        22.0300  163.4440   60.1320 C.3       1 NAD3002     0.0000 
     13 N9A        20.5650  163.7000   60.0310 N.pl3     1 NAD3002     0.0000 
     14 C8A        19.8920  164.2030   58.9450 C.2       1 NAD3002     0.0000 
     15 N7A        18.5740  164.2400   59.2740 N.2       1 NAD3002     0.0000 
     16 C5A        18.4270  163.7370   60.5320 C.ar      1 NAD3002     0.0000 
     17 C6A        17.3390  163.5360   61.3490 C.ar      1 NAD3002     0.0000 
     18 N6A        16.0790  163.8340   60.9150 N.pl3     1 NAD3002     0.0000 
     19 N1A        17.5480  163.0040   62.5930 N.ar      1 NAD3002     0.0000 
     20 C2A        18.8130  162.6860   63.0630 C.ar      1 NAD3002     0.0000 
     21 N3A        19.8820  162.8890   62.2380 N.ar      1 NAD3002     0.0000 
     22 C4A        19.7040  163.4100   61.0100 C.ar      1 NAD3002     0.0000 
     23 O3         26.7670  167.3440   57.8630 O.3       1 NAD3002     0.0000 
     24 PN         27.7690  168.0120   59.0010 P.3       1 NAD3002     0.0000 
     25 O1N        28.9670  168.4650   58.2920 O.co2     1 NAD3002     0.0000 
     26 O2N        27.7050  167.2200   60.2450 O.co2     1 NAD3002     0.0000 
     27 O5D        27.0240  169.4290   59.1470 O.3       1 NAD3002     0.0000 
     28 C5D        25.8200  169.4150   59.8570 C.3       1 NAD3002     0.0000 
     29 C4D        25.1240  170.7830   59.9120 C.3       1 NAD3002     0.0000 
     30 O4D        25.9180  171.7050   60.7100 O.3       1 NAD3002     0.0000 
     31 C3D        24.8890  171.4920   58.5820 C.3       1 NAD3002     0.0000 
     32 O3D        23.5930  172.0870   58.5790 O.3       1 NAD3002     0.0000 
     33 C2D        25.9900  172.5420   58.5580 C.3       1 NAD3002     0.0000 
     34 O2D        25.7750  173.6250   57.7060 O.3       1 NAD3002     0.0000 
     35 C1D        26.0380  172.9580   60.0110 C.3       1 NAD3002     0.0000 
     36 N1N        27.2490  173.6550   60.4720 N.pl3     1 NAD3002     0.0000 
     37 C2N        27.0970  174.6520   61.3900 C.ar      1 NAD3002     0.0000 
     38 C3N        28.2300  175.2710   61.9010 C.ar      1 NAD3002     0.0000 
     39 C7N        28.0620  176.3560   62.9180 C.2       1 NAD3002     0.0000 
     40 O7N        29.2070  177.1040   63.1950 O.2       1 NAD3002     0.0000 
     41 N7N        26.8950  176.5350   63.5450 N.am      1 NAD3002     0.0000 
     42 C4N        29.5400  174.8660   61.4830 C.ar      1 NAD3002     0.0000 
     43 C5N        29.6640  173.8260   60.5490 C.ar      1 NAD3002     0.0000 
     44 C6N        28.4960  173.2490   60.0800 C.ar      1 NAD3002     0.0000 
     45 H          24.1071  165.4486   58.1603 H         1 NAD3002     0.0000 
     46 H          24.5842  166.2666   59.6581 H         1 NAD3002     0.0000 
     47 H          24.7120  164.0944   60.7703 H         1 NAD3002     0.0000 
     48 H          24.5433  162.9993   58.1925 H         1 NAD3002     0.0000 
     49 H          22.2786  163.2320   58.0514 H         1 NAD3002     0.0000 
     50 H          22.2243  162.8007   60.9981 H         1 NAD3002     0.0000 
     51 H          20.2825  164.4724   58.1212 H         1 NAD3002     0.0000 
     52 H          15.3410  163.6903   61.5743 H         1 NAD3002     0.0000 
     53 H          16.0050  164.1698   59.9760 H         1 NAD3002     0.0000 
     54 H          18.9323  162.3093   64.0056 H         1 NAD3002     0.0000 
     55 H          25.9590  169.0845   60.9132 H         1 NAD3002     0.0000 
     56 H          25.0838  168.6992   59.4214 H         1 NAD3002     0.0000 
     57 H          24.1530  170.6613   60.4026 H         1 NAD3002     0.0000 
     58 H          25.0540  170.8032   57.8048 H         1 NAD3002     0.0000 
     59 H          26.9209  172.0103   58.3675 H         1 NAD3002     0.0000 
     60 H          25.1488  173.5459   60.2193 H         1 NAD3002     0.0000 
     61 H          26.1671  174.9477   61.7047 H         1 NAD3002     0.0000 
     62 H          26.8517  177.3038   64.1830 H         1 NAD3002     0.0000 
     63 H          26.1701  175.8841   63.3197 H         1 NAD3002     0.0000 
     64 H          30.3539  175.3312   61.8634 H         1 NAD3002     0.0000 
     65 H          30.5724  173.5173   60.2371 H         1 NAD3002     0.0000 
     66 H          28.5782  172.4577   59.3864 H         1 NAD3002     0.0000 
     67 H          23.9674  161.7938   60.7083 H         1 NAD3002     0.0000 
     68 H          21.6855  161.2198   59.8392 H         1 NAD3002     0.0000 
     69 H          22.9689  171.3465   58.3296 H         1 NAD3002     0.0000 
     70 H          24.7860  173.7725   57.7196 H         1 NAD3002     0.0000 
@<TRIPOS>BOND
     1    2    1 ar   
     2    3    1 ar   
     3    4    1 1    
     4   23    1 1    
     5    5    4 1    
     6    6    5 1    
     7   45    5 1    
     8   46    5 1    
     9    7    6 1    
    10    8    6 1    
    11   47    6 1    
    12   12    7 1    
    13    9    8 1    
    14   10    8 1    
    15   48    8 1    
    16   67    9 1    
    17   11   10 1    
    18   12   10 1    
    19   49   10 1    
    20   68   11 1    
    21   13   12 1    
    22   50   12 1    
    23   14   13 1    
    24   22   13 1    
    25   15   14 2    
    26   51   14 1    
    27   16   15 1    
    28   17   16 ar   
    29   22   16 ar   
    30   18   17 1    
    31   19   17 ar   
    32   52   18 1    
    33   53   18 1    
    34   20   19 ar   
    35   21   20 ar   
    36   54   20 1    
    37   22   21 ar   
    38   24   23 1    
    39   25   24 ar   
    40   26   24 ar   
    41   27   24 1    
    42   28   27 1    
    43   29   28 1    
    44   55   28 1    
    45   56   28 1    
    46   30   29 1    
    47   31   29 1    
    48   57   29 1    
    49   35   30 1    
    50   32   31 1    
    51   33   31 1    
    52   58   31 1    
    53   69   32 1    
    54   34   33 1    
    55   35   33 1    
    56   59   33 1    
    57   70   34 1    
    58   36   35 1    
    59   60   35 1    
    60   37   36 ar   
    61   44   36 ar   
    62   38   37 ar   
    63   61   37 1    
    64   39   38 1    
    65   42   38 ar   
    66   40   39 2    
    67   41   39 am   
    68   62   41 1    
    69   63   41 1    
    70   43   42 ar   
    71   64   42 1    
    72   44   43 ar   
    73   65   43 1    
    74   66   44 1    
@<TRIPOS>SUBSTRUCTURE
     1 NAD3002     1 GROUP   
@<TRIPOS>SET

