#    Name: 3oix_FMN_3_INTS_M
#    Modification time : Tue Mar 25 04:43:16 2014

@<TRIPOS>MOLECULE
3oix_FMN_3_INTS_M
   63     0     9     0     0
SMALL
NO_CHARGES


@<TRIPOS>ATOM
      1 N          25.5095   14.0105   77.8935 N.am      2 SEC2        0.0000 
      2 N          25.0340   14.1360   76.3960 N.am      8 SEL2        0.0000 
      3 N          25.9850   13.8850   79.3910 N.am      5 SEP2        0.0000 
      4 N          25.6995   12.9595   78.2360 N.am      2 SEC2        0.0000 
      5 N          25.4140   12.0340   77.0810 N.am      8 SEL2        0.0000 
      6 O          26.8305   11.5910   74.4515 O.2       1 ALC1        0.0000 
      7 O          25.8540   12.4760   74.9120 O.2       7 ALL1        0.0000 
      8 O          27.8070   10.7060   73.9910 O.2       4 ALP1        0.0000 
      9 CA         26.2580   17.5960   70.7470 C.3       3 GLC5        0.0000 
     10 CA         25.1200   17.9520   72.4120 C.3       9 GLL5        0.0000 
     11 CA         27.3960   17.2400   69.0820 C.3       6 GLP5        0.0000 
     12 CA         24.0330   21.7990   71.1625 C.3       3 GLC5        0.0000 
     13 CA         24.7210   20.2960   71.6580 C.3       9 GLL5        0.0000 
     14 CA         23.3450   23.3020   70.6670 C.3       6 GLP5        0.0000 
     15 CA         23.8835   20.2440   70.0765 C.3       3 GLC5        0.0000 
     16 CA         23.0460   20.1920   68.4950 C.3       6 GLP5        0.0000 
     17 CA         23.8320   22.4525   73.0890 C.3       3 GLC5        0.0000 
     18 CA         23.8450   20.9490   74.3720 C.3       9 GLL5        0.0000 
     19 CA         23.8190   23.9560   71.8060 C.3       6 GLP5        0.0000 
     20 CA         22.3345   20.6685   72.7380 C.3       3 GLC5        0.0000 
     21 CA         20.8240   20.3880   71.1040 C.3       6 GLP5        0.0000 
     22 CA         26.8670   17.8630   78.4195 C.3       3 GLC5        0.0000 
     23 CA         25.1520   17.5330   77.5750 C.3       9 GLL5        0.0000 
     24 CA         28.5820   18.1930   79.2640 C.3       6 GLP5        0.0000 
     25 N          25.9800   15.2855   78.8630 N.am      2 SEC2        0.0000 
     26 N          25.9750   16.6860   78.3350 N.am      8 SEL2        0.0000 
     27 CA         26.5020   18.2055   79.5115 C.3       3 GLC5        0.0000 
     28 CA         24.4220   18.2180   79.7590 C.3       9 GLL5        0.0000 
     29 N          25.1170   15.3620   79.7275 N.am      2 SEC2        0.0000 
     30 N          24.2490   16.8390   80.0640 N.am      8 SEL2        0.0000 
     31 O          23.6940   16.5140   81.2160 O.2       1 ALC1        0.0000 
     32 O          24.2490   16.8390   80.0640 O.2       7 ALL1        0.0000 
     33 O          23.1390   16.1890   82.3680 O.2       4 ALP1        0.0000 
     34 CA         23.5855   20.0105   82.2235 C.3       3 GLC5        0.0000 
     35 CA         23.4970   19.2930   80.3360 C.3       9 GLL5        0.0000 
     36 CA         23.6740   20.7280   84.1110 C.3       6 GLP5        0.0000 
     37 N          22.4010   23.3500   80.7385 N.am      2 SEC2        0.0000 
     38 N          23.3050   22.5220   81.1910 N.am      8 SEL2        0.0000 
     39 N          21.4970   24.1780   80.2860 N.am      5 SEP2        0.0000 
     40 N          23.3875   22.8295   82.5840 N.am      2 SEC2        0.0000 
     41 N          23.4700   23.1370   83.9770 N.am      5 SEP2        0.0000 
     42 N          25.2245   22.7615   78.3720 N.am      2 SEC2        0.0000 
     43 N          24.2160   22.0340   78.9840 N.am      8 SEL2        0.0000 
     44 N          26.2330   23.4890   77.7600 N.am      5 SEP2        0.0000 
     45 N          23.8205   23.0610   78.2180 N.am      2 SEC2        0.0000 
     46 N          23.4250   24.0880   77.4520 N.am      5 SEP2        0.0000 
     47 N          26.9745   22.1510   80.2350 N.am      2 SEC2        0.0000 
     48 N          25.7480   22.3850   80.8670 N.am      8 SEL2        0.0000 
     49 N          28.2010   21.9170   79.6030 N.am      5 SEP2        0.0000 
     50 N          25.9905   22.9370   79.3135 N.am      2 SEC2        0.0000 
     51 CA         24.2350   18.0980   70.7887 C.3       3 GLC5        0.0000 
     52 CA         24.7160   19.2440   72.7250 C.3       9 GLL5        0.0000 
     53 CA         23.5520   17.5980   69.0090 C.3       6 GLP5        0.0000 
     54 CA         22.7713   20.0790   71.6478 C.3       3 GLC5        0.0000 
     55 CA         26.3873   19.9095   73.4391 C.3       3 GLC5        0.0000 
     56 CA         27.9550   20.3720   74.7650 C.3       6 GLP5        0.0000 
     57 CA         26.0601   19.8904   74.6751 C.3       3 GLC5        0.0000 
     58 CA         24.2900   19.5560   74.0130 C.3       9 GLL5        0.0000 
     59 CA         26.7071   16.7112   73.4178 C.3       3 GLC5        0.0000 
     60 CA         24.6710   17.2860   74.6600 C.3       9 GLL5        0.0000 
     61 CA         28.5230   16.0500   73.0560 C.3       6 GLP5        0.0000 
     62 CA         25.1827   18.3277   81.2103 C.3       3 GLC5        0.0000 
     63 CA         26.4060   17.9000   82.3730 C.3       6 GLP5        0.0000 
@<TRIPOS>BOND
@<TRIPOS>SUBSTRUCTURE
     1 ALC1        6 GROUP        1 X    ALC  0     ROOT ALC X 1
     2 SEC2        1 GROUP        1 X    SEC  0     **** SEC X 2
     3 GLC5        9 GROUP        1 X    GLC  0     **** GLC X 6
     4 ALP1        8 GROUP        1 Y    ALP  0     ROOT ALP Y 8
     5 SEP2        3 GROUP        1 Y    SEP  0     **** SEP Y 9
     6 GLP5       11 GROUP        1 Y    GLP  0     **** GLP Y 13
     7 ALL1        7 GROUP        1 Z    ALL  0     ROOT ALL Z 15
     8 SEL2        2 GROUP        1 Z    SEL  0     **** SEL Z 16
     9 GLL5       10 GROUP        1 Z    GLL  0     **** GLL Z 20
@<TRIPOS>SET

