#    Name: 3oix_FMN_3_ligand
#    Modification time : Tue Mar 25 04:43:16 2014

@<TRIPOS>MOLECULE
3oix_FMN_3_ligand
   50    52     1     0     0
SMALL
NO_CHARGES


@<TRIPOS>ATOM
      1 N1         25.0340   14.1360   76.3960 N.2       1 FMN400      0.0000 
      2 C2         25.4390   12.8530   76.1670 C.2       1 FMN400      0.0000 
      3 O2         25.4140   12.0340   77.0810 O.2       1 FMN400      0.0000 
      4 N3         25.8540   12.4760   74.9120 N.am      1 FMN400      0.0000 
      5 C4         25.8810   13.3820   73.8740 C.2       1 FMN400      0.0000 
      6 O4         26.2730   13.0170   72.7720 O.2       1 FMN400      0.0000 
      7 C4A        25.4790   14.6940   74.0940 C.2       1 FMN400      0.0000 
      8 N5         25.4920   15.6670   73.1060 N.2       1 FMN400      0.0000 
      9 C5A        25.1030   16.9660   73.3860 C.ar      1 FMN400      0.0000 
     10 C6         25.1200   17.9520   72.4120 C.ar      1 FMN400      0.0000 
     11 C7         24.7160   19.2440   72.7250 C.ar      1 FMN400      0.0000 
     12 C7M        24.7210   20.2960   71.6580 C.3       1 FMN400      0.0000 
     13 C8         24.2900   19.5560   74.0130 C.ar      1 FMN400      0.0000 
     14 C8M        23.8450   20.9490   74.3720 C.3       1 FMN400      0.0000 
     15 C9         24.2630   18.5650   74.9780 C.ar      1 FMN400      0.0000 
     16 C9A        24.6710   17.2860   74.6600 C.ar      1 FMN400      0.0000 
     17 N10        24.6570   16.3010   75.6080 N.pl3     1 FMN400      0.0000 
     18 C10        25.0640   15.0340   75.3580 C.2       1 FMN400      0.0000 
     19 C1'        24.2220   16.5460   76.9770 C.3       1 FMN400      0.0000 
     20 C2'        25.1520   17.5330   77.5750 C.3       1 FMN400      0.0000 
     21 O2'        25.9750   16.6860   78.3350 O.3       1 FMN400      0.0000 
     22 C3'        24.1080   18.3400   78.3300 C.3       1 FMN400      0.0000 
     23 O3'        24.0130   19.7220   78.0640 O.3       1 FMN400      0.0000 
     24 C4'        24.4220   18.2180   79.7590 C.3       1 FMN400      0.0000 
     25 O4'        24.2490   16.8390   80.0640 O.3       1 FMN400      0.0000 
     26 C5'        23.4970   19.2930   80.3360 C.3       1 FMN400      0.0000 
     27 O5'        24.3990   20.2620   80.8290 O.3       1 FMN400      0.0000 
     28 P          24.4180   21.8250   80.4600 P.3       1 FMN400      0.0000 
     29 O1P        23.3050   22.5220   81.1910 O.co2     1 FMN400      0.0000 
     30 O2P        24.2160   22.0340   78.9840 O.co2     1 FMN400      0.0000 
     31 O3P        25.7480   22.3850   80.8670 O.co2     1 FMN400      0.0000 
     32 H          26.1517   11.4950   74.7421 H         1 FMN400      0.0000 
     33 H          25.4315   17.7287   71.4570 H         1 FMN400      0.0000 
     34 H          23.9388   18.7833   75.9311 H         1 FMN400      0.0000 
     35 H          24.2464   15.6247   77.5567 H         1 FMN400      0.0000 
     36 H          23.2090   16.9451   76.9908 H         1 FMN400      0.0000 
     37 H          25.5828   18.0708   76.8324 H         1 FMN400      0.0000 
     38 H          23.1354   17.8439   78.1852 H         1 FMN400      0.0000 
     39 H          25.4413   18.5563   79.8703 H         1 FMN400      0.0000 
     40 H          22.9075   18.8417   81.1091 H         1 FMN400      0.0000 
     41 H          22.8829   19.6632   79.5392 H         1 FMN400      0.0000 
     42 H          25.6358   20.4368   71.2795 H         1 FMN400      0.0000 
     43 H          24.1221   20.0537   70.8947 H         1 FMN400      0.0000 
     44 H          24.4088   21.1798   72.0064 H         1 FMN400      0.0000 
     45 H          24.5717   21.6202   74.2260 H         1 FMN400      0.0000 
     46 H          23.0614   21.2414   73.8238 H         1 FMN400      0.0000 
     47 H          23.5726   21.0161   75.3318 H         1 FMN400      0.0000 
     48 H          25.7969   16.9376   79.2863 H         1 FMN400      0.0000 
     49 H          24.5671   20.1603   78.7717 H         1 FMN400      0.0000 
     50 H          23.7933   16.8261   80.9540 H         1 FMN400      0.0000 
@<TRIPOS>BOND
     1    2    1 1    
     2   18    1 2    
     3    3    2 2    
     4    4    2 am   
     5    5    4 am   
     6   32    4 1    
     7    6    5 2    
     8    7    5 1    
     9    8    7 2    
    10   18    7 1    
    11    9    8 1    
    12   10    9 ar   
    13   16    9 ar   
    14   11   10 ar   
    15   33   10 1    
    16   12   11 1    
    17   13   11 ar   
    18   42   12 1    
    19   43   12 1    
    20   44   12 1    
    21   14   13 1    
    22   15   13 ar   
    23   45   14 1    
    24   46   14 1    
    25   47   14 1    
    26   16   15 ar   
    27   34   15 1    
    28   17   16 1    
    29   18   17 1    
    30   19   17 1    
    31   20   19 1    
    32   35   19 1    
    33   36   19 1    
    34   21   20 1    
    35   22   20 1    
    36   37   20 1    
    37   48   21 1    
    38   23   22 1    
    39   24   22 1    
    40   38   22 1    
    41   49   23 1    
    42   25   24 1    
    43   26   24 1    
    44   39   24 1    
    45   50   25 1    
    46   27   26 1    
    47   40   26 1    
    48   41   26 1    
    49   28   27 1    
    50   29   28 ar   
    51   30   28 ar   
    52   31   28 ar   
@<TRIPOS>SUBSTRUCTURE
     1 FMN400      1 GROUP   
@<TRIPOS>SET

