#    Name: 3fci_3FI_1_INTS_M
#    Modification time : Tue Mar 25 03:33:51 2014

@<TRIPOS>MOLECULE
3fci_3FI_1_INTS_M
   44     0     9     0     0
SMALL
NO_CHARGES


@<TRIPOS>ATOM
      1 CA        -14.6740   -2.3800   -4.6690 C.3       3 GLC5        0.0000 
      2 CA        -13.0810   -3.6930   -4.7500 C.3       9 GLL5        0.0000 
      3 CA        -16.2670   -1.0670   -4.5880 C.3       6 GLP5        0.0000 
      4 CA        -14.4185   -4.1285   -2.4830 C.3       3 GLC5        0.0000 
      5 CA        -12.8910   -3.8110   -3.3720 C.3       9 GLL5        0.0000 
      6 CA        -15.9460   -4.4460   -1.5940 C.3       6 GLP5        0.0000 
      7 N         -10.8295   -8.8230   -2.3210 N.am      2 SEC2        0.0000 
      8 N         -11.6310   -7.7600   -2.0980 N.am      8 SEL2        0.0000 
      9 N         -10.0280   -9.8860   -2.5440 N.am      5 SEP2        0.0000 
     10 N         -11.2245   -8.7945   -0.8715 N.am      2 SEC2        0.0000 
     11 N         -10.8180   -9.8290    0.3550 N.am      5 SEP2        0.0000 
     12 N         -12.5090   -7.8505   -0.7110 N.am      2 SEC2        0.0000 
     13 N         -13.3870   -7.9410    0.6760 N.am      5 SEP2        0.0000 
     14 N         -12.7285   -9.4510   -2.8900 N.am      2 SEC2        0.0000 
     15 N         -12.6360   -8.5580   -4.0020 N.am      8 SEL2        0.0000 
     16 N         -12.8210  -10.3440   -1.7780 N.am      5 SEP2        0.0000 
     17 N         -11.3320   -9.2220   -3.2730 N.am      2 SEC2        0.0000 
     18 CA        -14.7585   -0.0615   -3.4985 C.3       3 GLC5        0.0000 
     19 CA        -13.2500    0.9440   -2.4090 C.3       9 GLL5        0.0000 
     20 CA        -17.5205    1.4325    0.1335 C.3       3 GLC5        0.0000 
     21 CA        -15.7080    1.7780    1.1730 C.3       9 GLL5        0.0000 
     22 CA        -19.3330    1.0870   -0.9060 C.3       6 GLP5        0.0000 
     23 N         -13.6390   -2.9605    4.2355 N.am      2 SEC2        0.0000 
     24 N         -14.3750   -2.0980    3.4240 N.am      8 SEL2        0.0000 
     25 N         -12.9030   -3.8230    5.0470 N.am      5 SEP2        0.0000 
     26 O         -14.7460   -1.1515    5.9175 O.2       1 ALC1        0.0000 
     27 O         -15.1600   -0.4790    4.7470 O.2       7 ALL1        0.0000 
     28 O         -14.3320   -1.8240    7.0880 O.2       4 ALP1        0.0000 
     29 N         -17.3655    1.0315    6.2195 N.am      2 SEC2        0.0000 
     30 N         -15.9190    1.1780    6.0550 N.am      8 SEL2        0.0000 
     31 N         -18.8120    0.8850    6.3840 N.am      5 SEP2        0.0000 
     32 N         -15.0995    0.6345    7.1620 N.am      2 SEC2        0.0000 
     33 N         -14.2800    0.0910    8.2690 N.am      5 SEP2        0.0000 
     34 CA        -14.5207   -5.2781   -5.9794 C.3       3 GLC5        0.0000 
     35 CA        -12.6850   -6.0430   -5.0170 C.3       9 GLL5        0.0000 
     36 CA        -16.1850   -5.4110   -6.8650 C.3       6 GLP5        0.0000 
     37 CA        -16.4818    3.0537    2.1282 C.3       3 GLC5        0.0000 
     38 CA        -17.3240    4.6810    2.3980 C.3       6 GLP5        0.0000 
     39 CA        -16.8311   -0.4546    2.1631 C.3       3 GLC5        0.0000 
     40 CA        -15.0350   -0.2150    2.3200 C.3       9 GLL5        0.0000 
     41 CA        -18.3250   -1.5150    2.2370 C.3       6 GLP5        0.0000 
     42 CA        -14.3969   -5.4554   -3.3726 C.3       3 GLC5        0.0000 
     43 CA        -12.4980   -6.1530   -3.6160 C.3       9 GLL5        0.0000 
     44 CA        -16.0920   -5.5450   -2.6080 C.3       6 GLP5        0.0000 
@<TRIPOS>BOND
@<TRIPOS>SUBSTRUCTURE
     1 ALC1       26 GROUP        1 X    ALC  0     ROOT ALC X 1
     2 SEC2        7 GROUP        1 X    SEC  0     **** SEC X 2
     3 GLC5        1 GROUP        1 X    GLC  0     **** GLC X 6
     4 ALP1       28 GROUP        1 Y    ALP  0     ROOT ALP Y 8
     5 SEP2        9 GROUP        1 Y    SEP  0     **** SEP Y 9
     6 GLP5        3 GROUP        1 Y    GLP  0     **** GLP Y 13
     7 ALL1       27 GROUP        1 Z    ALL  0     ROOT ALL Z 15
     8 SEL2        8 GROUP        1 Z    SEL  0     **** SEL Z 16
     9 GLL5        2 GROUP        1 Z    GLL  0     **** GLL Z 20
@<TRIPOS>SET

