#    Name: 3fci_3FI_1_ligand
#    Modification time : Tue Mar 25 03:33:51 2014

@<TRIPOS>MOLECULE
3fci_3FI_1_ligand
   41    42     1     0     0
SMALL
NO_CHARGES


@<TRIPOS>ATOM
      1 C1        -12.9750   -4.8020   -5.5910 C.ar      1 3FI1        0.0000 
      2 C2        -13.0810   -3.6930   -4.7500 C.ar      1 3FI1        0.0000 
      3 C3        -12.8910   -3.8110   -3.3720 C.ar      1 3FI1        0.0000 
      4 C4        -12.5960   -5.0200   -2.7450 C.ar      1 3FI1        0.0000 
      5 C5        -12.4980   -6.1530   -3.6160 C.ar      1 3FI1        0.0000 
      6 C6        -12.6850   -6.0430   -5.0170 C.ar      1 3FI1        0.0000 
      7 O40       -11.6310   -7.7600   -2.0980 O.co2     1 3FI1        0.0000 
      8 C38       -12.1950   -7.5490   -3.1390 C.2       1 3FI1        0.0000 
      9 O39       -12.6360   -8.5580   -4.0020 O.co2     1 3FI1        0.0000 
     10 C9        -13.0600   -2.4860   -2.6670 C.2       1 3FI1        0.0000 
     11 N18       -12.5520   -1.2670   -2.5120 N.2       1 3FI1        0.0000 
     12 O1        -13.0850   -0.2560   -1.7000 O.3       1 3FI1        0.0000 
     13 C22       -13.2500    0.9440   -2.4090 C.3       1 3FI1        0.0000 
     14 C23       -12.9030    2.0730   -1.4860 C.3       1 3FI1        0.0000 
     15 C8        -14.1910    2.5380   -0.7730 C.3       1 3FI1        0.0000 
     16 N31       -14.3870    1.8700    0.5110 N.4       1 3FI1        0.0000 
     17 C30       -15.7080    1.7780    1.1730 C.3       1 3FI1        0.0000 
     18 C16       -15.5710    1.0750    2.5440 C.2       1 3FI1        0.0000 
     19 N11       -15.8920    1.6000    3.7940 N.am      1 3FI1        0.0000 
     20 C15       -15.0350   -0.2150    2.3200 C.2       1 3FI1        0.0000 
     21 C14       -14.8680   -0.8860    3.5140 C.2       1 3FI1        0.0000 
     22 O33       -14.3750   -2.0980    3.4240 O.2       1 3FI1        0.0000 
     23 N13       -15.1600   -0.4790    4.7470 N.am      1 3FI1        0.0000 
     24 C12       -15.6740    0.7900    4.8990 C.2       1 3FI1        0.0000 
     25 O34       -15.9190    1.1780    6.0550 O.2       1 3FI1        0.0000 
     26 H         -13.1049   -4.7106   -6.5926 H         1 3FI1        0.0000 
     27 H         -13.3042   -2.7675   -5.1548 H         1 3FI1        0.0000 
     28 H         -12.4606   -5.1095   -1.7706 H         1 3FI1        0.0000 
     29 H         -12.6056   -6.8793   -5.6018 H         1 3FI1        0.0000 
     30 H         -14.0503   -2.6290   -1.9928 H         1 3FI1        0.0000 
     31 H         -14.2807    1.0838   -2.7490 H         1 3FI1        0.0000 
     32 H         -12.5928    1.0008   -3.2821 H         1 3FI1        0.0000 
     33 H         -12.4975    2.9053   -2.0437 H         1 3FI1        0.0000 
     34 H         -12.1941    1.7453   -0.7389 H         1 3FI1        0.0000 
     35 H         -15.0367    2.3433   -1.4513 H         1 3FI1        0.0000 
     36 H         -14.1247    3.6297   -0.6428 H         1 3FI1        0.0000 
     37 H         -16.4054    1.2020    0.5653 H         1 3FI1        0.0000 
     38 H         -16.1256    2.7702    1.3415 H         1 3FI1        0.0000 
     39 H         -16.2678    2.5321    3.8888 H         1 3FI1        0.0000 
     40 H         -14.8226   -0.5594    1.4474 H         1 3FI1        0.0000 
     41 H         -15.0154   -1.0730    5.5703 H         1 3FI1        0.0000 
@<TRIPOS>BOND
     1    2    1 ar   
     2    6    1 ar   
     3   26    1 1    
     4    3    2 ar   
     5   27    2 1    
     6    4    3 ar   
     7   10    3 1    
     8    5    4 ar   
     9   28    4 1    
    10    6    5 ar   
    11    8    5 1    
    12   29    6 1    
    13    8    7 ar   
    14    9    8 ar   
    15   11   10 2    
    16   30   10 1    
    17   12   11 1    
    18   13   12 1    
    19   14   13 1    
    20   31   13 1    
    21   32   13 1    
    22   15   14 1    
    23   33   14 1    
    24   34   14 1    
    25   16   15 1    
    26   35   15 1    
    27   36   15 1    
    28   17   16 1    
    29   18   17 1    
    30   37   17 1    
    31   38   17 1    
    32   19   18 1    
    33   20   18 2    
    34   24   19 am   
    35   39   19 1    
    36   21   20 1    
    37   40   20 1    
    38   22   21 2    
    39   23   21 am   
    40   24   23 am   
    41   41   23 1    
    42   25   24 2    
@<TRIPOS>SUBSTRUCTURE
     1 3FI1        1 GROUP   
@<TRIPOS>SET

