#    Name: 3rk0_AMP_1_INTS_M
#    Modification time : Tue Mar 25 11:34:55 2014

@<TRIPOS>MOLECULE
3rk0_AMP_1_INTS_M
   45     0     9     0     0
SMALL
NO_CHARGES


@<TRIPOS>ATOM
      1 N          70.1595   23.8530    0.4875 N.am      2 SEC2        0.0000 
      2 N          69.4960   22.6660    0.4510 N.am      8 SEL2        0.0000 
      3 N          70.8230   25.0400    0.5240 N.am      5 SEP2        0.0000 
      4 N          68.8145   23.8375    2.6670 N.am      2 SEC2        0.0000 
      5 N          68.8220   22.1180    2.8170 N.am      8 SEL2        0.0000 
      6 N          68.8070   25.5570    2.5170 N.am      5 SEP2        0.0000 
      7 N          68.0990   22.8770    3.5095 N.am      2 SEC2        0.0000 
      8 N          67.3760   23.6360    4.2020 N.am      5 SEP2        0.0000 
      9 CA         67.4180   24.6035    2.4660 C.3       3 GLC5        0.0000 
     10 CA         66.6780   23.2840    1.1620 C.3       9 GLL5        0.0000 
     11 CA         68.1580   25.9230    3.7700 C.3       6 GLP5        0.0000 
     12 CA         64.0390   23.7905   -1.0700 C.3       3 GLC5        0.0000 
     13 CA         65.2180   23.4970    0.7840 C.3       9 GLL5        0.0000 
     14 CA         62.8600   24.0840   -2.9240 C.3       6 GLP5        0.0000 
     15 CA         66.4900   25.4135    2.4855 C.3       3 GLC5        0.0000 
     16 CA         64.8220   24.9040    1.2010 C.3       9 GLL5        0.0000 
     17 CA         64.9360   26.7890    0.4400 C.3       3 GLC5        0.0000 
     18 CA         65.0500   28.6740   -0.3210 C.3       6 GLP5        0.0000 
     19 O          65.7545   26.1110   -0.7770 O.2       1 ALC1        0.0000 
     20 O          64.8110   25.7920    0.0750 O.2       7 ALL1        0.0000 
     21 O          66.6980   26.4300   -1.6290 O.2       4 ALP1        0.0000 
     22 CA         62.4000   25.0820    3.8175 C.3       3 GLC5        0.0000 
     23 CA         63.4380   24.7450    1.8820 C.3       9 GLL5        0.0000 
     24 CA         61.3620   25.4190    5.7530 C.3       6 GLP5        0.0000 
     25 CA         62.2350   26.3790    1.7520 C.3       3 GLC5        0.0000 
     26 CA         61.0320   28.0130    1.6220 C.3       6 GLP5        0.0000 
     27 N          63.2755   26.9420    0.9880 N.am      2 SEC2        0.0000 
     28 N          62.4420   25.5440    1.2410 N.am      8 SEL2        0.0000 
     29 N          64.1090   28.3400    0.7350 N.am      5 SEP2        0.0000 
     30 CA         59.4730   23.4950    4.8610 C.3       3 GLC5        0.0000 
     31 CA         59.8450   21.5830    5.0980 C.3       9 GLL5        0.0000 
     32 CA         59.1010   25.4070    4.6240 C.3       6 GLP5        0.0000 
     33 CA         59.0100   23.7720    3.8155 C.3       3 GLC5        0.0000 
     34 CA         58.9190   22.1370    3.0070 C.3       9 GLL5        0.0000 
     35 CA         59.3275   21.4265    1.2790 C.3       3 GLC5        0.0000 
     36 CA         59.7360   20.7160   -0.4490 C.3       6 GLP5        0.0000 
     37 CA         57.9840   23.6980    2.0790 C.3       3 GLC5        0.0000 
     38 CA         57.0490   25.2590    1.1510 C.3       6 GLP5        0.0000 
     39 CA         60.4795   21.5700    1.4085 C.3       3 GLC5        0.0000 
     40 CA         61.2230   22.4240    3.2660 C.3       9 GLL5        0.0000 
     41 CA         67.0575   24.8116    0.1810 C.3       3 GLC5        0.0000 
     42 CA         68.7300   25.4760   -0.7250 C.3       6 GLP5        0.0000 
     43 CA         62.5175   24.3733   -0.1495 C.3       3 GLC5        0.0000 
     44 CA         61.7570   24.7560   -2.1320 C.3       6 GLP5        0.0000 
     45 CA         61.2710   23.8053    4.8470 C.3       3 GLC5        0.0000 
@<TRIPOS>BOND
@<TRIPOS>SUBSTRUCTURE
     1 ALC1       19 GROUP        1 X    ALC  0     ROOT ALC X 1
     2 SEC2        1 GROUP        1 X    SEC  0     **** SEC X 2
     3 GLC5        9 GROUP        1 X    GLC  0     **** GLC X 6
     4 ALP1       21 GROUP        1 Y    ALP  0     ROOT ALP Y 8
     5 SEP2        3 GROUP        1 Y    SEP  0     **** SEP Y 9
     6 GLP5       11 GROUP        1 Y    GLP  0     **** GLP Y 13
     7 ALL1       20 GROUP        1 Z    ALL  0     ROOT ALL Z 15
     8 SEL2        2 GROUP        1 Z    SEL  0     **** SEL Z 16
     9 GLL5       10 GROUP        1 Z    GLL  0     **** GLL Z 20
@<TRIPOS>SET

