#    Name: 3rk0_AMP_1_ligand
#    Modification time : Tue Mar 25 11:34:55 2014

@<TRIPOS>MOLECULE
3rk0_AMP_1_ligand
   35    37     1     0     0
SMALL
NO_CHARGES


@<TRIPOS>ATOM
      1 P          68.6230   21.7890    1.2670 P.3       1 AMP301      0.0000 
      2 O1P        69.4960   22.6660    0.4510 O.co2     1 AMP301      0.0000 
      3 O2P        68.8220   22.1180    2.8170 O.co2     1 AMP301      0.0000 
      4 O3P        69.0130   20.2560    0.9470 O.co2     1 AMP301      0.0000 
      5 O5'        67.0730   21.9610    0.8420 O.3       1 AMP301      0.0000 
      6 C5'        66.6780   23.2840    1.1620 C.3       1 AMP301      0.0000 
      7 C4'        65.2180   23.4970    0.7840 C.3       1 AMP301      0.0000 
      8 O4'        64.3630   22.5570    1.4790 O.3       1 AMP301      0.0000 
      9 C3'        64.8220   24.9040    1.2010 C.3       1 AMP301      0.0000 
     10 O3'        64.8110   25.7920    0.0750 O.3       1 AMP301      0.0000 
     11 C2'        63.4380   24.7450    1.8820 C.3       1 AMP301      0.0000 
     12 O2'        62.4420   25.5440    1.2410 O.3       1 AMP301      0.0000 
     13 C1'        63.1180   23.2360    1.7840 C.3       1 AMP301      0.0000 
     14 N9         62.5460   22.7190    3.0530 N.pl3     1 AMP301      0.0000 
     15 C8         63.2180   22.4370    4.2220 C.2       1 AMP301      0.0000 
     16 N7         62.3930   21.9920    5.1330 N.2       1 AMP301      0.0000 
     17 C5         61.1370   21.9590    4.6160 C.ar      1 AMP301      0.0000 
     18 C6         59.8450   21.5830    5.0980 C.ar      1 AMP301      0.0000 
     19 N6         59.6750   21.1160    6.3910 N.pl3     1 AMP301      0.0000 
     20 N1         58.7860   21.6900    4.2640 N.ar      1 AMP301      0.0000 
     21 C2         58.9190   22.1370    3.0070 C.ar      1 AMP301      0.0000 
     22 N3         60.1050   22.5000    2.5160 N.ar      1 AMP301      0.0000 
     23 C4         61.2230   22.4240    3.2660 C.ar      1 AMP301      0.0000 
     24 H          67.2749   24.0325    0.6224 H         1 AMP301      0.0000 
     25 H          66.7785   23.4940    2.2360 H         1 AMP301      0.0000 
     26 H          65.1156   23.4151   -0.2742 H         1 AMP301      0.0000 
     27 H          65.5168   25.2177    1.9686 H         1 AMP301      0.0000 
     28 H          63.5664   24.9797    2.9202 H         1 AMP301      0.0000 
     29 H          62.4173   23.1059    0.9780 H         1 AMP301      0.0000 
     30 H          64.1881   22.5664    4.3187 H         1 AMP301      0.0000 
     31 H          60.4979   21.0814    6.9581 H         1 AMP301      0.0000 
     32 H          58.7441   20.8539    6.6454 H         1 AMP301      0.0000 
     33 H          58.0616   22.2023    2.3925 H         1 AMP301      0.0000 
     34 H          65.7231   25.7113   -0.3270 H         1 AMP301      0.0000 
     35 H          62.7558   25.6399    0.2963 H         1 AMP301      0.0000 
@<TRIPOS>BOND
     1    2    1 ar   
     2    3    1 ar   
     3    4    1 ar   
     4    5    1 1    
     5    6    5 1    
     6    7    6 1    
     7   24    6 1    
     8   25    6 1    
     9    8    7 1    
    10    9    7 1    
    11   26    7 1    
    12   13    8 1    
    13   10    9 1    
    14   11    9 1    
    15   27    9 1    
    16   34   10 1    
    17   12   11 1    
    18   13   11 1    
    19   28   11 1    
    20   35   12 1    
    21   14   13 1    
    22   29   13 1    
    23   15   14 1    
    24   23   14 1    
    25   16   15 2    
    26   30   15 1    
    27   17   16 1    
    28   18   17 ar   
    29   23   17 ar   
    30   19   18 1    
    31   20   18 ar   
    32   31   19 1    
    33   32   19 1    
    34   21   20 ar   
    35   22   21 ar   
    36   33   21 1    
    37   23   22 ar   
@<TRIPOS>SUBSTRUCTURE
     1 AMP301      1 GROUP   
@<TRIPOS>SET

