#    Name: 1H3B_2_CAVITY_N1_ALL.mol2
#    Modification time : Tue Mar 11 03:58:04 2014

@<TRIPOS>MOLECULE
1H3B_2_CAVITY_N1_ALL.mol2
   86     0     6     0     0
SMALL
NO_CHARGES


@<TRIPOS>ATOM
      1 CZ         48.5112   17.7181   62.6314 C.ar      4 PHE5        0.0000 
      2 OG         49.4415   16.5676   62.8782 O.2       1 SER1        0.0000 
      3 CZ         50.3718   15.4172   63.1251 C.ar      4 PHE5        0.0000 
      4 CZ         47.8024   16.9190   61.5782 C.ar      4 PHE5        0.0000 
      5 OG         48.7328   15.7685   61.8251 O.2       1 SER1        0.0000 
      6 CZ         49.6631   14.6181   62.0720 C.ar      4 PHE5        0.0000 
      7 CZ         47.0937   16.1198   60.5251 C.ar      4 PHE5        0.0000 
      8 NZ         48.0240   14.9694   60.7720 N.2       3 LYS4        0.0000 
      9 NZ         48.9543   13.8189   61.0189 N.2       3 LYS4        0.0000 
     10 NZ         46.3849   15.3207   59.4720 N.2       3 LYS4        0.0000 
     11 CA         47.3153   14.1703   59.7189 C.3       5 GLY6        0.0000 
     12 NZ         48.2456   13.0198   59.9657 N.2       3 LYS4        0.0000 
     13 CA         48.9894   18.7798   65.7768 C.3       5 GLY6        0.0000 
     14 CA         49.9198   17.6294   66.0237 C.3       5 GLY6        0.0000 
     15 CZ         50.8501   16.4789   66.2706 C.ar      4 PHE5        0.0000 
     16 CZ         48.2807   17.9807   64.7237 C.ar      4 PHE5        0.0000 
     17 OG         49.2110   16.8302   64.9706 O.2       1 SER1        0.0000 
     18 CZ         50.1413   15.6798   65.2175 C.ar      4 PHE5        0.0000 
     19 CZ         48.5023   16.0311   63.9175 C.ar      4 PHE5        0.0000 
     20 CZ         49.4326   14.8807   64.1643 C.ar      4 PHE5        0.0000 
     21 CZ         46.8632   16.3824   62.6175 C.ar      4 PHE5        0.0000 
     22 CZ         47.7935   15.2320   62.8643 C.ar      4 PHE5        0.0000 
     23 CZ         48.7239   14.0815   63.1112 C.ar      4 PHE5        0.0000 
     24 CZ         46.1544   15.5833   61.5643 C.ar      4 PHE5        0.0000 
     25 OG         47.0848   14.4329   61.8112 O.2       1 SER1        0.0000 
     26 NZ         48.0151   13.2824   62.0581 N.2       3 LYS4        0.0000 
     27 CA         45.4457   14.7842   60.5112 C.3       5 GLY6        0.0000 
     28 NZ         46.3760   13.6337   60.7581 N.2       3 LYS4        0.0000 
     29 CA         49.4588   18.1546   70.2084 C.3       5 GLY6        0.0000 
     30 CZ         45.9591   20.8068   68.4147 C.ar      4 PHE5        0.0000 
     31 CZ         46.8894   19.6564   68.6615 C.ar      4 PHE5        0.0000 
     32 CZ         47.8197   18.5059   68.9084 C.ar      4 PHE5        0.0000 
     33 CA         48.7500   17.3555   69.1553 C.3       5 GLY6        0.0000 
     34 CA         49.6804   16.2050   69.4022 C.3       5 GLY6        0.0000 
     35 CZ         45.2503   20.0077   67.3615 C.ar      4 PHE5        0.0000 
     36 CZ         46.1806   18.8572   67.6084 C.ar      4 PHE5        0.0000 
     37 DU         47.1110   17.7068   67.8553 H         6 CUB7        0.0000 
     38 CA         48.0413   16.5563   68.1022 C.3       5 GLY6        0.0000 
     39 CA         48.9716   15.4059   68.3490 C.3       5 GLY6        0.0000 
     40 CZ         45.4719   18.0581   66.5553 C.ar      4 PHE5        0.0000 
     41 CZ         46.4022   16.9077   66.8022 C.ar      4 PHE5        0.0000 
     42 CA         47.3325   15.7572   67.0490 C.3       5 GLY6        0.0000 
     43 CA         48.2629   14.6068   67.2959 C.3       5 GLY6        0.0000 
     44 CZ         45.6935   16.1085   65.7490 C.ar      4 PHE5        0.0000 
     45 OG         46.6238   14.9581   65.9959 O.2       1 SER1        0.0000 
     46 CZ         44.9847   15.3094   64.6959 C.ar      4 PHE5        0.0000 
     47 OG         49.4504   18.2546   61.5922 O.2       1 SER1        0.0000 
     48 CA         48.7417   17.4555   60.5390 C.3       5 GLY6        0.0000 
     49 OG         49.6720   16.3050   60.7859 O.2       1 SER1        0.0000 
     50 CZ         50.6023   15.1546   61.0328 C.ar      4 PHE5        0.0000 
     51 NZ         48.0329   16.6564   59.4859 N.2       3 LYS4        0.0000 
     52 NZ         48.9632   15.5059   59.7328 N.2       3 LYS4        0.0000 
     53 CZ         49.8936   14.3555   59.9796 C.ar      4 PHE5        0.0000 
     54 N          49.6809   17.9920   59.4998 N.2       2 ALA2        0.0000 
     55 OG         50.6112   16.8416   59.7467 O.2       1 SER1        0.0000 
     56 CA         45.2325   16.6337   69.9337 C.3       5 GLY6        0.0000 
     57 CA         45.4541   14.6842   69.1275 C.3       5 GLY6        0.0000 
     58 N          48.5196   17.6181   71.2476 N.2       2 ALA2        0.0000 
     59 DU         46.8805   17.9694   69.9476 H         6 CUB7        0.0000 
     60 CA         47.8108   16.8189   70.1945 C.3       5 GLY6        0.0000 
     61 CZ         45.2414   18.3207   68.6476 C.ar      4 PHE5        0.0000 
     62 DU         46.1717   17.1703   68.8945 H         6 CUB7        0.0000 
     63 CA         47.1021   16.0198   69.1414 C.3       5 GLY6        0.0000 
     64 CZ         44.5327   17.5216   67.5945 C.ar      4 PHE5        0.0000 
     65 CA         45.4630   16.3711   67.8414 C.3       5 GLY6        0.0000 
     66 CA         46.3933   15.2207   68.0883 C.3       5 GLY6        0.0000 
     67 OG         45.6846   14.4216   67.0351 O.2       1 SER1        0.0000 
     68 OG         46.6149   13.2711   67.2820 O.2       1 SER1        0.0000 
     69 CZ         47.8286   20.1929   67.6223 C.ar      4 PHE5        0.0000 
     70 CZ         48.7589   19.0424   67.8692 C.ar      4 PHE5        0.0000 
     71 CA         49.6893   17.8920   68.1161 C.3       5 GLY6        0.0000 
     72 CA         50.6196   16.7415   68.3629 C.3       5 GLY6        0.0000 
     73 CA         47.1199   19.3938   66.5692 C.3       5 GLY6        0.0000 
     74 CA         48.0502   18.2433   66.8161 C.3       5 GLY6        0.0000 
     75 DU         48.9805   17.0929   67.0629 H         6 CUB7        0.0000 
     76 CA         49.9109   15.9424   67.3098 C.3       5 GLY6        0.0000 
     77 CZ         47.3415   17.4442   65.7629 C.ar      4 PHE5        0.0000 
     78 DU         48.2718   16.2937   66.0098 H         6 CUB7        0.0000 
     79 CZ         49.2021   15.1433   66.2567 C.ar      4 PHE5        0.0000 
     80 OG         47.5630   15.4946   64.9567 O.2       1 SER1        0.0000 
     81 OG         48.4934   14.3441   65.2036 O.2       1 SER1        0.0000 
     82 CZ         45.9240   15.8459   63.6567 C.ar      4 PHE5        0.0000 
     83 OG         46.8543   14.6955   63.9036 O.2       1 SER1        0.0000 
     84 CZ         45.2152   15.0468   62.6036 C.ar      4 PHE5        0.0000 
     85 OG         46.1455   13.8963   62.8504 O.2       1 SER1        0.0000 
     86 CA         45.4368   13.0972   61.7973 C.3       5 GLY6        0.0000 
@<TRIPOS>BOND
@<TRIPOS>SUBSTRUCTURE
     1 SER1        2 GROUP   
     2 ALA2       54 GROUP   
     3 LYS4        8 GROUP   
     4 PHE5        1 GROUP   
     5 GLY6       11 GROUP   
     6 CUB7       37 GROUP   
@<TRIPOS>SET

