#    Name: 1h3b_R46_2_INTS_M
#    Modification time : Tue Mar 25 04:31:36 2014

@<TRIPOS>MOLECULE
1h3b_R46_2_INTS_M
   68     0     3     0     0
SMALL
NO_CHARGES


@<TRIPOS>ATOM
      1 CA         51.7030   17.9800   60.7485 C.3       1 GLC5        0.0000 
      2 CA         50.4500   17.5620   59.0630 C.3       3 GLL5        0.0000 
      3 CA         52.9560   18.3980   62.4340 C.3       2 GLP5        0.0000 
      4 CA         51.2630   15.1515   58.7780 C.3       1 GLC5        0.0000 
      5 CA         49.6130   15.2950   59.7200 C.3       3 GLL5        0.0000 
      6 CA         52.9130   15.0080   57.8360 C.3       2 GLP5        0.0000 
      7 CA         48.3430   14.1775   58.4915 C.3       1 GLC5        0.0000 
      8 CA         47.0730   13.0600   57.2630 C.3       2 GLP5        0.0000 
      9 CA         50.7665   14.4360   62.4545 C.3       1 GLC5        0.0000 
     10 CA         48.9620   15.0500   62.1190 C.3       3 GLL5        0.0000 
     11 CA         52.5710   13.8220   62.7900 C.3       2 GLP5        0.0000 
     12 CA         49.7820   13.2360   63.6360 C.3       1 GLC5        0.0000 
     13 CA         48.0450   14.4130   63.2040 C.3       3 GLL5        0.0000 
     14 CA         51.5190   12.0590   64.0680 C.3       2 GLP5        0.0000 
     15 CA         48.5655   14.7475   68.7610 C.3       1 GLC5        0.0000 
     16 CA         49.3270   15.6210   67.0550 C.3       3 GLL5        0.0000 
     17 CA         47.8040   13.8740   70.4670 C.3       2 GLP5        0.0000 
     18 CA         50.6350   15.2065   68.2170 C.3       1 GLC5        0.0000 
     19 CA         51.9430   14.7920   69.3790 C.3       2 GLP5        0.0000 
     20 CA         44.1765   16.5110   69.3475 C.3       1 GLC5        0.0000 
     21 CA         46.0080   17.7050   69.1370 C.3       3 GLL5        0.0000 
     22 CA         42.3450   15.3170   69.5580 C.3       2 GLP5        0.0000 
     23 CA         47.7290   16.1185   71.3855 C.3       1 GLC5        0.0000 
     24 CA         47.7740   18.1620   70.7930 C.3       3 GLL5        0.0000 
     25 CA         47.6840   14.0750   71.9780 C.3       2 GLP5        0.0000 
     26 CA         47.4840   17.4635   72.8640 C.3       1 GLC5        0.0000 
     27 CA         47.1940   16.7650   74.9350 C.3       2 GLP5        0.0000 
     28 CA         50.4940   18.3775   70.7650 C.3       1 GLC5        0.0000 
     29 CA         48.7570   17.7740   69.8590 C.3       3 GLL5        0.0000 
     30 CA         52.2310   18.9810   71.6710 C.3       2 GLP5        0.0000 
     31 CA         42.7025   16.7980   71.0860 C.3       1 GLC5        0.0000 
     32 CA         43.0600   18.2790   72.6140 C.3       3 GLL5        0.0000 
     33 CA         43.1675   23.0840   76.2535 C.3       1 GLC5        0.0000 
     34 CA         44.4790   23.1360   75.0640 C.3       3 GLL5        0.0000 
     35 CA         41.8560   23.0320   77.4430 C.3       2 GLP5        0.0000 
     36 CA         44.2970   24.2535   73.6855 C.3       1 GLC5        0.0000 
     37 CA         44.1150   25.3710   72.3070 C.3       2 GLP5        0.0000 
     38 CA         50.2160   12.9255   61.6630 C.3       1 GLC5        0.0000 
     39 CA         48.5010   13.2670   60.4770 C.3       3 GLL5        0.0000 
     40 CA         51.9310   12.5840   62.8490 C.3       2 GLP5        0.0000 
     41 CA         46.9545   11.7335   60.8360 C.3       1 GLC5        0.0000 
     42 CA         45.4080   10.2000   61.1950 C.3       2 GLP5        0.0000 
     43 CA         47.7870   13.1635   58.8700 C.3       1 GLC5        0.0000 
     44 CA         51.0115   16.2993   58.0427 C.3       1 GLC5        0.0000 
     45 CA         49.4520   16.7790   59.5060 C.3       3 GLL5        0.0000 
     46 CA         52.0720   15.4280   56.8010 C.3       2 GLP5        0.0000 
     47 CA         48.4990   18.3388   59.3128 C.3       1 GLC5        0.0000 
     48 CA         47.0470   19.5070   59.3410 C.3       2 GLP5        0.0000 
     49 CA         46.2473   13.4545   64.1683 C.3       1 GLC5        0.0000 
     50 CA         44.7730   11.9680   64.6580 C.3       2 GLP5        0.0000 
     51 CA         46.6755   17.1555   64.0337 C.3       1 GLC5        0.0000 
     52 CA         47.3980   15.4690   64.1530 C.3       3 GLL5        0.0000 
     53 CA         45.4410   18.3520   63.5910 C.3       2 GLP5        0.0000 
     54 CA         50.9265   14.8425   65.7385 C.3       1 GLC5        0.0000 
     55 CA         49.5630   15.7010   65.5330 C.3       3 GLL5        0.0000 
     56 CA         52.4080   14.0240   65.1830 C.3       2 GLP5        0.0000 
     57 CA         50.2535   16.1763   69.2915 C.3       1 GLC5        0.0000 
     58 CA         48.3710   17.3470   68.5490 C.3       3 GLL5        0.0000 
     59 CA         46.9998   15.8965   70.1285 C.3       1 GLC5        0.0000 
     60 CA         46.3830   18.1330   70.4430 C.3       3 GLL5        0.0000 
     61 CA         48.0119   15.7134   69.7918 C.3       1 GLC5        0.0000 
     62 CA         45.9355   18.9820   73.6815 C.3       1 GLC5        0.0000 
     63 CA         45.2700   19.6660   72.1870 C.3       3 GLL5        0.0000 
     64 CA         46.1210   17.7780   75.1190 C.3       2 GLP5        0.0000 
     65 CA         44.8425   18.3800   73.9500 C.3       1 GLC5        0.0000 
     66 CA         44.0680   19.6850   72.9480 C.3       3 GLL5        0.0000 
     67 CA         45.3606   19.5147   74.4052 C.3       1 GLC5        0.0000 
     68 CA         43.8240   20.7450   73.8270 C.3       3 GLL5        0.0000 
@<TRIPOS>BOND
@<TRIPOS>SUBSTRUCTURE
     1 GLC5        1 GROUP        1 X    GLC  0     ROOT GLC X 6
     2 GLP5        3 GROUP        1 Y    GLP  0     ROOT GLP Y 13
     3 GLL5        2 GROUP        1 Z    GLL  0     ROOT GLL Z 20
@<TRIPOS>SET

