#    Name: 1h3b_R46_2_ligand
#    Modification time : Tue Mar 25 04:31:37 2014

@<TRIPOS>MOLECULE
1h3b_R46_2_ligand
   54    56     1     0     0
SMALL
NO_CHARGES


@<TRIPOS>ATOM
      1 C3A        50.4500   17.5620   59.0630 C.2       1 R46800      0.0000 
      2 C2A        49.4520   16.7790   59.5060 C.2       1 R46800      0.0000 
      3 C1A        49.6130   15.2950   59.7200 C.3       1 R46800      0.0000 
      4 N1         48.6450   14.7320   60.7000 N.4       1 R46800      0.0000 
      5 C1B        48.9620   15.0500   62.1190 C.3       1 R46800      0.0000 
      6 C2B        48.0450   14.4130   63.2040 C.3       1 R46800      0.0000 
      7 C3B        47.3980   15.4690   64.1530 C.3       1 R46800      0.0000 
      8 C4B        48.4220   16.4490   64.8000 C.3       1 R46800      0.0000 
      9 C5B        49.5630   15.7010   65.5330 C.3       1 R46800      0.0000 
     10 C6B        49.3270   15.6210   67.0550 C.3       1 R46800      0.0000 
     11 O          49.3080   16.9550   67.5880 O.3       1 R46800      0.0000 
     12 C1C        48.3710   17.3470   68.5490 C.ar      1 R46800      0.0000 
     13 C2C        46.9940   17.3160   68.1990 C.ar      1 R46800      0.0000 
     14 C3C        46.0080   17.7050   69.1370 C.ar      1 R46800      0.0000 
     15 N2D        44.1660   17.7830   71.5860 N.2       1 R46800      0.0000 
     16 C3D        45.2840   18.5440   71.4110 C.2       1 R46800      0.0000 
     17 C4C        46.3830   18.1330   70.4430 C.ar      1 R46800      0.0000 
     18 C5C        47.7740   18.1620   70.7930 C.ar      1 R46800      0.0000 
     19 C6C        48.7570   17.7740   69.8590 C.ar      1 R46800      0.0000 
     20 C3P        45.2700   19.6660   72.1870 C.ar      1 R46800      0.0000 
     21 C4D        46.2300   20.7060   72.3010 C.ar      1 R46800      0.0000 
     22 C5D        45.9740   21.7510   73.1790 C.ar      1 R46800      0.0000 
     23 S1D        43.0600   18.2790   72.6140 S.3       1 R46800      0.0000 
     24 C6D        44.7790   21.7650   73.9330 C.ar      1 R46800      0.0000 
     25 C7D        43.8240   20.7450   73.8270 C.ar      1 R46800      0.0000 
     26 C7P        44.0680   19.6850   72.9480 C.ar      1 R46800      0.0000 
     27 BR28       44.4790   23.1360   75.0640 Br        1 R46800      0.0000 
     28 C1E        48.5010   13.2670   60.4770 C.3       1 R46800      0.0000 
     29 H          48.5059   17.1456   59.7294 H         1 R46800      0.0000 
     30 H          50.6458   15.0938   60.0613 H         1 R46800      0.0000 
     31 H          49.4986   14.7800   58.7477 H         1 R46800      0.0000 
     32 H          47.6455   15.1859   60.4683 H         1 R46800      0.0000 
     33 H          48.9406   16.1557   62.2750 H         1 R46800      0.0000 
     34 H          50.0110   14.7456   62.3518 H         1 R46800      0.0000 
     35 H          48.6371   13.7190   63.8035 H         1 R46800      0.0000 
     36 H          47.2497   13.8524   62.7092 H         1 R46800      0.0000 
     37 H          46.8628   14.9421   64.9505 H         1 R46800      0.0000 
     38 H          46.6659   16.0510   63.5825 H         1 R46800      0.0000 
     39 H          47.8970   17.0840   65.5119 H         1 R46800      0.0000 
     40 H          48.8502   17.0742   64.0181 H         1 R46800      0.0000 
     41 H          50.5036   16.2210   65.3443 H         1 R46800      0.0000 
     42 H          49.6378   14.6899   65.1296 H         1 R46800      0.0000 
     43 H          50.1310   15.0237   67.4829 H         1 R46800      0.0000 
     44 H          48.3811   15.1054   67.2159 H         1 R46800      0.0000 
     45 H          46.7167   17.0107   67.2641 H         1 R46800      0.0000 
     46 H          45.0196   17.6801   68.8796 H         1 R46800      0.0000 
     47 H          48.0441   18.4680   71.7297 H         1 R46800      0.0000 
     48 H          49.7443   17.7946   70.1083 H         1 R46800      0.0000 
     49 H          47.0784   20.6732   71.7479 H         1 R46800      0.0000 
     50 H          46.6456   22.5179   73.2880 H         1 R46800      0.0000 
     51 H          42.9712   20.7761   74.3786 H         1 R46800      0.0000 
     52 H          49.3709   12.7869   60.5898 H         1 R46800      0.0000 
     53 H          47.8538   12.8555   61.1187 H         1 R46800      0.0000 
     54 H          48.1705   13.0623   59.5557 H         1 R46800      0.0000 
@<TRIPOS>BOND
     1    2    1 2    
     2    3    2 1    
     3   29    2 1    
     4    4    3 1    
     5   30    3 1    
     6   31    3 1    
     7    5    4 1    
     8   28    4 1    
     9   32    4 1    
    10    6    5 1    
    11   33    5 1    
    12   34    5 1    
    13    7    6 1    
    14   35    6 1    
    15   36    6 1    
    16    8    7 1    
    17   37    7 1    
    18   38    7 1    
    19    9    8 1    
    20   39    8 1    
    21   40    8 1    
    22   10    9 1    
    23   41    9 1    
    24   42    9 1    
    25   11   10 1    
    26   43   10 1    
    27   44   10 1    
    28   12   11 1    
    29   13   12 ar   
    30   19   12 ar   
    31   14   13 ar   
    32   45   13 1    
    33   17   14 ar   
    34   46   14 1    
    35   16   15 2    
    36   23   15 1    
    37   17   16 1    
    38   20   16 1    
    39   18   17 ar   
    40   19   18 ar   
    41   47   18 1    
    42   48   19 1    
    43   21   20 ar   
    44   26   20 ar   
    45   22   21 ar   
    46   49   21 1    
    47   24   22 ar   
    48   50   22 1    
    49   26   23 1    
    50   25   24 ar   
    51   27   24 1    
    52   26   25 ar   
    53   51   25 1    
    54   52   28 1    
    55   53   28 1    
    56   54   28 1    
@<TRIPOS>SUBSTRUCTURE
     1 R46800      1 GROUP   
@<TRIPOS>SET

