#    Name: 1ZOS_4_CAVITY_N1_6.mol2
#    Modification time : Mon Mar 10 23:19:51 2014

@<TRIPOS>MOLECULE
1ZOS_4_CAVITY_N1_6.mol2
   74     0     6     0     0
SMALL
NO_CHARGES


@<TRIPOS>ATOM
      1 OG         10.4805   41.3283    1.7658 O.2       1 SER1        0.0000 
      2 CA          9.5300   41.9500    2.7457 C.3       5 GLY6        0.0000 
      3 O           8.5795   42.5716    3.7255 O.2       2 ALA2        0.0000 
      4 N           7.6289   43.1932    4.7053 N.2       2 ALA2        0.0000 
      5 CZ         10.5258   40.0826    2.6001 C.ar      4 PHE5        0.0000 
      6 CZ          9.5753   40.7042    3.5799 C.ar      4 PHE5        0.0000 
      7 CZ          8.6247   41.3258    4.5597 C.ar      4 PHE5        0.0000 
      8 CZ          7.6742   41.9474    5.5396 C.ar      4 PHE5        0.0000 
      9 CZ         10.5710   38.8368    3.4343 C.ar      4 PHE5        0.0000 
     10 CZ         10.6163   37.5910    4.2686 C.ar      4 PHE5        0.0000 
     11 CZ         11.6121   35.7236    4.1230 C.ar      4 PHE5        0.0000 
     12 CA         14.5089   32.6129    2.0178 C.3       5 GLY6        0.0000 
     13 CA         13.5584   33.2345    2.9976 C.3       5 GLY6        0.0000 
     14 CZ         12.6078   33.8562    3.9775 C.ar      4 PHE5        0.0000 
     15 CZ         11.6573   34.4778    4.9573 C.ar      4 PHE5        0.0000 
     16 DU         13.6036   31.9888    3.8319 H         6 CUB7        0.0000 
     17 CZ         12.6531   32.6104    4.8117 C.ar      4 PHE5        0.0000 
     18 CZ         11.7026   33.2320    5.7915 C.ar      4 PHE5        0.0000 
     19 OG         12.6983   31.3646    5.6460 O.2       1 SER1        0.0000 
     20 OG         11.6400   41.8866    2.5365 O.2       1 SER1        0.0000 
     21 CA         10.6895   42.5082    3.5163 C.3       5 GLY6        0.0000 
     22 CA          9.7390   43.1298    4.4962 C.3       5 GLY6        0.0000 
     23 N           8.7884   43.7514    5.4760 N.2       2 ALA2        0.0000 
     24 CZ         12.6358   40.0191    2.3909 C.ar      4 PHE5        0.0000 
     25 CZ         11.6853   40.6408    3.3708 C.ar      4 PHE5        0.0000 
     26 CZ         10.7347   41.2624    4.3506 C.ar      4 PHE5        0.0000 
     27 CZ          9.7842   41.8840    5.3304 C.ar      4 PHE5        0.0000 
     28 CZ          8.8337   42.5057    6.3103 C.ar      4 PHE5        0.0000 
     29 CZ         12.6811   38.7734    3.2252 C.ar      4 PHE5        0.0000 
     30 CZ         11.7305   39.3950    4.2050 C.ar      4 PHE5        0.0000 
     31 CZ         10.7800   40.0166    5.1849 C.ar      4 PHE5        0.0000 
     32 CZ         12.7263   37.5276    4.0595 C.ar      4 PHE5        0.0000 
     33 CZ         11.7758   38.1492    5.0393 C.ar      4 PHE5        0.0000 
     34 CA         13.7221   35.6602    3.9139 C.3       5 GLY6        0.0000 
     35 CA         12.7716   36.2818    4.8937 C.3       5 GLY6        0.0000 
     36 CZ         11.8210   36.9034    5.8735 C.ar      4 PHE5        0.0000 
     37 CA         15.6684   33.1711    2.7885 C.3       5 GLY6        0.0000 
     38 CA         14.7179   33.7928    3.7683 C.3       5 GLY6        0.0000 
     39 CA         13.7673   34.4144    4.7481 C.3       5 GLY6        0.0000 
     40 CZ         12.8168   35.0360    5.7280 C.ar      4 PHE5        0.0000 
     41 CZ         11.8663   35.6576    6.7078 C.ar      4 PHE5        0.0000 
     42 OG         14.7631   32.5470    4.6026 O.2       1 SER1        0.0000 
     43 OG         13.8126   33.1686    5.5824 O.2       1 SER1        0.0000 
     44 CZ         12.8621   33.7902    6.5622 C.ar      4 PHE5        0.0000 
     45 NZ         14.0043   41.7572    4.9122 N.2       3 LYS4        0.0000 
     46 NZ         13.7501   41.8231    2.3274 N.2       3 LYS4        0.0000 
     47 NZ         12.7995   42.4448    3.3072 N.2       3 LYS4        0.0000 
     48 O          11.8490   43.0664    4.2870 O.2       2 ALA2        0.0000 
     49 NZ         13.7953   40.5774    3.1616 N.2       3 LYS4        0.0000 
     50 CA         12.8448   41.1990    4.1415 C.3       5 GLY6        0.0000 
     51 CA         11.8942   41.8206    5.1213 C.3       5 GLY6        0.0000 
     52 CA         10.9437   42.4422    6.1011 C.3       5 GLY6        0.0000 
     53 CA         13.8406   39.3316    3.9959 C.3       5 GLY6        0.0000 
     54 CA         12.8900   39.9532    4.9757 C.3       5 GLY6        0.0000 
     55 CA         13.8858   38.0858    4.8301 C.3       5 GLY6        0.0000 
     56 CA         12.9353   38.7074    5.8100 C.3       5 GLY6        0.0000 
     57 CA         13.9311   36.8400    5.6644 C.3       5 GLY6        0.0000 
     58 CA         12.9805   37.4616    6.6442 C.3       5 GLY6        0.0000 
     59 CA         15.8774   34.3510    4.5390 C.3       5 GLY6        0.0000 
     60 CA         14.9268   34.9726    5.5188 C.3       5 GLY6        0.0000 
     61 CA         13.9763   35.5942    6.4987 C.3       5 GLY6        0.0000 
     62 CA         13.0258   36.2159    7.4785 C.3       5 GLY6        0.0000 
     63 OG         15.9226   33.1052    5.3733 O.2       1 SER1        0.0000 
     64 OG         14.9721   33.7268    6.3531 O.2       1 SER1        0.0000 
     65 NZ          8.3705   41.3918    1.9750 N.2       3 LYS4        0.0000 
     66 NZ          7.4200   42.0134    2.9548 N.2       3 LYS4        0.0000 
     67 CA          6.4694   42.6350    3.9346 C.3       5 GLY6        0.0000 
     68 NZ          8.4158   40.1460    2.8092 N.2       3 LYS4        0.0000 
     69 NZ          7.4652   40.7676    3.7890 N.2       3 LYS4        0.0000 
     70 CA         13.3494   32.0547    1.2471 C.3       5 GLY6        0.0000 
     71 CZ         12.3989   32.6763    2.2269 C.ar      4 PHE5        0.0000 
     72 CZ         11.4483   33.2980    3.2068 C.ar      4 PHE5        0.0000 
     73 DU         12.4441   31.4305    3.0612 H         6 CUB7        0.0000 
     74 CZ         11.4936   32.0522    4.0410 C.ar      4 PHE5        0.0000 
@<TRIPOS>BOND
@<TRIPOS>SUBSTRUCTURE
     1 SER1        1 GROUP   
     2 ALA2        3 GROUP   
     3 LYS4       45 GROUP   
     4 PHE5        5 GROUP   
     5 GLY6        2 GROUP   
     6 CUB7       16 GROUP   
@<TRIPOS>SET

