#    Name: 1zos_MTM_4_INTS_M
#    Modification time : Tue Mar 25 11:58:52 2014

@<TRIPOS>MOLECULE
1zos_MTM_4_INTS_M
   72     0    12     0     0
SMALL
NO_CHARGES


@<TRIPOS>ATOM
      1 CA         11.8170   36.2045    3.1980 C.3       4 GLC5        0.0000 
      2 CA         12.6450   36.6010    4.9620 C.3      12 GLL5        0.0000 
      3 CA         10.9890   35.8080    1.4340 C.3       8 GLP5        0.0000 
      4 CA         14.1660   36.9930    7.1515 C.3       4 GLC5        0.0000 
      5 CA         12.6770   38.1150    5.9660 C.3      12 GLL5        0.0000 
      6 CA         15.6550   35.8710    8.3370 C.3       8 GLP5        0.0000 
      7 CA         13.4695   42.9310    5.6890 C.3       4 GLC5        0.0000 
      8 CA         12.7650   42.2880    4.0010 C.3      12 GLL5        0.0000 
      9 CA         14.1740   43.5740    7.3770 C.3       8 GLP5        0.0000 
     10 N          13.2640   44.3640    4.8100 N.am      2 SEC2        0.0000 
     11 N          13.4780   43.5180    3.6280 N.am     10 SEL2        0.0000 
     12 N          13.0500   45.2100    5.9920 N.am      6 SEP2        0.0000 
     13 N          13.3550   44.6075    2.6210 N.am      2 SEC2        0.0000 
     14 N          13.2320   45.6970    1.6140 N.am      6 SEP2        0.0000 
     15 O          14.7145   43.8600    3.5800 O.2       1 ALC1        0.0000 
     16 O          13.4780   43.5180    3.6280 O.2       9 ALL1        0.0000 
     17 O          15.9510   44.2020    3.5320 O.2       5 ALP1        0.0000 
     18 CA         15.1010   40.3000    5.5110 C.3       4 GLC5        0.0000 
     19 CA         13.7580   41.0700    4.2910 C.3      12 GLL5        0.0000 
     20 CA         16.4440   39.5300    6.7310 C.3       8 GLP5        0.0000 
     21 N          15.8325   41.9095    4.1785 N.am      2 SEC2        0.0000 
     22 N          14.9970   41.1980    3.4780 N.am     10 SEL2        0.0000 
     23 N          16.6680   42.6210    4.8790 N.am      6 SEP2        0.0000 
     24 O          14.6635   40.5220    2.2160 O.2       1 ALC1        0.0000 
     25 O          14.9970   41.1980    3.4780 O.2       9 ALL1        0.0000 
     26 O          14.3300   39.8460    0.9540 O.2       5 ALP1        0.0000 
     27 CA         11.1550   39.9775    1.8475 C.3       4 GLC5        0.0000 
     28 CA         11.7530   41.8520    2.8730 C.3      12 GLL5        0.0000 
     29 CA         10.5570   38.1030    0.8220 C.3       8 GLP5        0.0000 
     30 CA         10.8440   43.9645    3.5085 C.3       4 GLC5        0.0000 
     31 CA         10.1950   41.8270    3.2610 C.3      12 GLL5        0.0000 
     32 CA         11.4930   46.1020    3.7560 C.3       8 GLP5        0.0000 
     33 CA          9.9275   41.5225    0.4180 C.3       4 GLC5        0.0000 
     34 CA          9.1770   41.4470    2.3970 C.3      12 GLL5        0.0000 
     35 CA         10.6780   41.5980   -1.5610 C.3       8 GLP5        0.0000 
     36 O           6.9630   40.8520    2.3695 O.2       1 ALC1        0.0000 
     37 O           7.9700   41.4840    2.9140 O.2       9 ALL1        0.0000 
     38 O           5.9560   40.2200    1.8250 O.2       5 ALP1        0.0000 
     39 CA          6.6755   44.1520    5.7900 C.3       4 GLC5        0.0000 
     40 CA          7.2970   42.1650    5.3290 C.3      12 GLL5        0.0000 
     41 CA          6.0540   46.1390    6.2510 C.3       8 GLP5        0.0000 
     42 OD1         5.1825   41.5295    4.1780 O.co2     3 ASC3        0.0000 
     43 OD1         5.9700   41.9870    5.2470 O.co2    11 ASL3        0.0000 
     44 OD1         4.3950   41.0720    3.1090 O.co2     7 ASP3        0.0000 
     45 OD1         5.9630   41.1035    3.5360 O.co2     3 ASC3        0.0000 
     46 OD1         5.9560   40.2200    1.8250 O.co2     7 ASP3        0.0000 
     47 O           5.2355   41.5520    6.4565 O.2       1 ALC1        0.0000 
     48 O           5.9700   41.9870    5.2470 O.2       9 ALL1        0.0000 
     49 O           4.5010   41.1170    7.6660 O.2       5 ALP1        0.0000 
     50 O           5.1825   41.5295    4.1780 O.2       1 ALC1        0.0000 
     51 O           4.3950   41.0720    3.1090 O.2       5 ALP1        0.0000 
     52 CA         10.2010   44.0060    4.7950 C.3       4 GLC5        0.0000 
     53 CA          9.5390   42.1380    4.4570 C.3      12 GLL5        0.0000 
     54 CA         10.8630   45.8740    5.1330 C.3       8 GLP5        0.0000 
     55 CA         10.9730   36.4450    5.8855 C.3       4 GLC5        0.0000 
     56 CA          9.2850   35.5320    6.3070 C.3       8 GLP5        0.0000 
     57 CA         14.5150   37.2155    5.0950 C.3       4 GLC5        0.0000 
     58 CA         16.3690   37.0730    4.7260 C.3       8 GLP5        0.0000 
     59 CA         10.5222   38.8672    5.8742 C.3       4 GLC5        0.0000 
     60 CA          8.7280   39.0270    6.3680 C.3       8 GLP5        0.0000 
     61 CA         12.6103   39.9412    6.6683 C.3       4 GLC5        0.0000 
     62 CA         11.9560   39.3000    4.7950 C.3      12 GLL5        0.0000 
     63 CA         12.9040   41.1750    7.9560 C.3       8 GLP5        0.0000 
     64 CA         11.4992   38.8520    2.5505 C.3       4 GLC5        0.0000 
     65 CA         13.1232   40.8305    5.9915 C.3       4 GLC5        0.0000 
     66 CA         12.9270   39.9020    3.7630 C.3      12 GLL5        0.0000 
     67 CA         11.8760   44.0860    3.5965 C.3       4 GLC5        0.0000 
     68 CA          6.4998   43.1545    3.5805 C.3       4 GLC5        0.0000 
     69 CA          8.1720   41.9170    4.2070 C.3      12 GLL5        0.0000 
     70 CA          5.2650   44.2680    2.3930 C.3       8 GLP5        0.0000 
     71 CA          8.9964   43.2266    2.2392 C.3       4 GLC5        0.0000 
     72 CA          8.7220   44.6210    0.8980 C.3       8 GLP5        0.0000 
@<TRIPOS>BOND
@<TRIPOS>SUBSTRUCTURE
     1 ALC1       15 GROUP        1 X    ALC  0     ROOT ALC X 1
     2 SEC2       10 GROUP        1 X    SEC  0     **** SEC X 2
     3 ASC3       42 GROUP        1 X    ASC  0     **** ASC X 3
     4 GLC5        1 GROUP        1 X    GLC  0     **** GLC X 6
     5 ALP1       17 GROUP        1 Y    ALP  0     ROOT ALP Y 8
     6 SEP2       12 GROUP        1 Y    SEP  0     **** SEP Y 9
     7 ASP3       44 GROUP        1 Y    ASP  0     **** ASP Y 10
     8 GLP5        3 GROUP        1 Y    GLP  0     **** GLP Y 13
     9 ALL1       16 GROUP        1 Z    ALL  0     ROOT ALL Z 15
    10 SEL2       11 GROUP        1 Z    SEL  0     **** SEL Z 16
    11 ASL3       43 GROUP        1 Z    ASL  0     **** ASL Z 17
    12 GLL5        2 GROUP        1 Z    GLL  0     **** GLL Z 20
@<TRIPOS>SET

