#    Name: 1zos_MTM_4_ligand
#    Modification time : Tue Mar 25 11:58:52 2014

@<TRIPOS>MOLECULE
1zos_MTM_4_ligand
   39    41     1     0     0
SMALL
NO_CHARGES


@<TRIPOS>ATOM
      1 CS         12.6450   36.6010    4.9620 C.3       1 MTM304      0.0000 
      2 S5'        12.6770   38.1150    5.9660 S.3       1 MTM304      0.0000 
      3 C5'        11.9560   39.3000    4.7950 C.3       1 MTM304      0.0000 
      4 C4'        12.9270   39.9020    3.7630 C.3       1 MTM304      0.0000 
      5 N4'        12.1580   40.4500    2.6270 N.4       1 MTM304      0.0000 
      6 C2'        12.7650   42.2880    4.0010 C.3       1 MTM304      0.0000 
      7 O2'        13.4780   43.5180    3.6280 O.3       1 MTM304      0.0000 
      8 C3'        13.7580   41.0700    4.2910 C.3       1 MTM304      0.0000 
      9 O3'        14.9970   41.1980    3.4780 O.3       1 MTM304      0.0000 
     10 C1'        11.7530   41.8520    2.8730 C.3       1 MTM304      0.0000 
     11 C9         10.1950   41.8270    3.2610 C.2       1 MTM304      0.0000 
     12 C8          9.1770   41.4470    2.3970 C.2       1 MTM304      0.0000 
     13 N7          7.9700   41.4840    2.9140 N.pl3     1 MTM304      0.0000 
     14 C5          8.1720   41.9170    4.2070 C.2       1 MTM304      0.0000 
     15 C6          7.2970   42.1650    5.3290 C.3       1 MTM304      0.0000 
     16 N6          5.9700   41.9870    5.2470 N.4       1 MTM304      0.0000 
     17 N1          7.8830   42.6140    6.5390 N.pl3     1 MTM304      0.0000 
     18 C2          9.2400   42.7930    6.6320 C.2       1 MTM304      0.0000 
     19 N3         10.1380   42.5820    5.6450 N.2       1 MTM304      0.0000 
     20 C4          9.5390   42.1380    4.4570 C.2       1 MTM304      0.0000 
     21 H          11.5251   40.0456    5.4561 H         1 MTM304      0.0000 
     22 H          11.1599   38.7195    4.3390 H         1 MTM304      0.0000 
     23 H          13.5892   39.1392    3.4037 H         1 MTM304      0.0000 
     24 H          12.1818   42.4311    4.9055 H         1 MTM304      0.0000 
     25 H          13.8963   40.9903    5.2959 H         1 MTM304      0.0000 
     26 H          11.9069   42.4255    2.0150 H         1 MTM304      0.0000 
     27 H           9.3873   41.1698    1.4511 H         1 MTM304      0.0000 
     28 H           7.1387   41.2733    2.5280 H         1 MTM304      0.0000 
     29 H           7.4825   40.7979    5.7598 H         1 MTM304      0.0000 
     30 H           7.2674   42.8021    7.3443 H         1 MTM304      0.0000 
     31 H           9.6168   43.1339    7.5846 H         1 MTM304      0.0000 
     32 H          13.3172   36.6316    4.2223 H         1 MTM304      0.0000 
     33 H          12.8476   35.7885    5.5087 H         1 MTM304      0.0000 
     34 H          11.7506   36.4544    4.5394 H         1 MTM304      0.0000 
     35 H           5.6459   41.3036    5.9011 H         1 MTM304      0.0000 
     36 H           5.4697   42.8324    5.4342 H         1 MTM304      0.0000 
     37 H           5.6924   41.6772    4.3377 H         1 MTM304      0.0000 
     38 H          14.3631   43.2086    3.2802 H         1 MTM304      0.0000 
     39 H          15.0160   40.3788    2.9048 H         1 MTM304      0.0000 
@<TRIPOS>BOND
     1    2    1 1    
     2   32    1 1    
     3   33    1 1    
     4   34    1 1    
     5    3    2 1    
     6    4    3 1    
     7   21    3 1    
     8   22    3 1    
     9    5    4 1    
    10    8    4 1    
    11   23    4 1    
    12   10    5 1    
    13    7    6 1    
    14    8    6 1    
    15   10    6 1    
    16   24    6 1    
    17   38    7 1    
    18    9    8 1    
    19   25    8 1    
    20   39    9 1    
    21   11   10 1    
    22   26   10 1    
    23   12   11 2    
    24   20   11 1    
    25   13   12 1    
    26   27   12 1    
    27   14   13 1    
    28   28   13 1    
    29   15   14 1    
    30   20   14 2    
    31   16   15 1    
    32   17   15 1    
    33   29   15 1    
    34   35   16 1    
    35   36   16 1    
    36   37   16 1    
    37   18   17 1    
    38   30   17 1    
    39   19   18 2    
    40   31   18 1    
    41   20   19 1    
@<TRIPOS>SUBSTRUCTURE
     1 MTM304      1 GROUP   
@<TRIPOS>SET

