#    Name: 3dhe_AND_1_INTS_M
#    Modification time : Mon Mar 24 23:25:44 2014

@<TRIPOS>MOLECULE
3dhe_AND_1_INTS_M
   58     0     9     0     0
SMALL
NO_CHARGES


@<TRIPOS>ATOM
      1 CA          7.9180   10.2060  -11.4875 C.3       3 GLC5        0.0000 
      2 CA          9.8200   10.9330  -12.3150 C.3       9 GLL5        0.0000 
      3 CA          6.0160    9.4790  -10.6600 C.3       6 GLP5        0.0000 
      4 CA         11.1635   12.1595  -11.6355 C.3       3 GLC5        0.0000 
      5 CA         12.5070   13.3860  -10.9560 C.3       6 GLP5        0.0000 
      6 CA         10.3130   13.1050  -12.2600 C.3       3 GLC5        0.0000 
      7 CA          9.1080   11.8650  -13.3570 C.3       9 GLL5        0.0000 
      8 CA         11.5180   14.3450  -11.1630 C.3       6 GLP5        0.0000 
      9 CA          7.0565   12.0810  -12.8720 C.3       3 GLC5        0.0000 
     10 CA          5.0050   12.2970  -12.3870 C.3       6 GLP5        0.0000 
     11 N           9.1710   12.5435  -16.9545 N.am      2 SEC2        0.0000 
     12 N           8.9460   12.3770  -15.7370 N.am      8 SEL2        0.0000 
     13 N           9.3960   12.7100  -18.1720 N.am      5 SEP2        0.0000 
     14 O           8.8280   13.8320  -15.3490 O.2       1 ALC1        0.0000 
     15 O           8.9460   12.3770  -15.7370 O.2       7 ALL1        0.0000 
     16 O           8.7100   15.2870  -14.9610 O.2       4 ALP1        0.0000 
     17 CA          9.5020    6.7920  -15.3915 C.3       3 GLC5        0.0000 
     18 CA         10.8680    8.0840  -14.5910 C.3       9 GLL5        0.0000 
     19 CA          8.1360    5.5000  -16.1920 C.3       6 GLP5        0.0000 
     20 CA         11.5740    6.9725  -15.6750 C.3       3 GLC5        0.0000 
     21 CA         11.5910    7.0840  -13.6600 C.3       9 GLL5        0.0000 
     22 CA         11.5570    6.8610  -17.6900 C.3       6 GLP5        0.0000 
     23 CA          8.8860    8.0335  -10.0585 C.3       3 GLC5        0.0000 
     24 CA         10.6500    8.7580  -10.0950 C.3       9 GLL5        0.0000 
     25 CA          7.1220    7.3090  -10.0220 C.3       6 GLP5        0.0000 
     26 CA         13.1505    9.1060   -7.9960 C.3       3 GLC5        0.0000 
     27 CA         11.6920    7.9710   -9.2270 C.3       9 GLL5        0.0000 
     28 CA         14.6090   10.2410   -6.7650 C.3       6 GLP5        0.0000 
     29 CA         13.4780    9.2410   -9.4560 C.3       3 GLC5        0.0000 
     30 CA         15.2640   10.5110   -9.6850 C.3       6 GLP5        0.0000 
     31 CA         14.7625    7.0170  -11.3010 C.3       3 GLC5        0.0000 
     32 CA         13.2850    5.3630  -11.6070 C.3       9 GLL5        0.0000 
     33 CA         16.2400    8.6710  -10.9950 C.3       6 GLP5        0.0000 
     34 N          11.2535    5.9480   -6.5715 N.am      2 SEC2        0.0000 
     35 N          12.3960    5.4170   -7.6580 N.am      8 SEL2        0.0000 
     36 N          10.1110    6.4790   -5.4850 N.am      5 SEP2        0.0000 
     37 CA          8.8120    6.4795   -9.6140 C.3       3 GLC5        0.0000 
     38 CA         10.5020    5.6500   -9.2060 C.3       9 GLL5        0.0000 
     39 CA          9.7685    4.3145   -8.2270 C.3       3 GLC5        0.0000 
     40 CA          9.0350    2.9790   -7.2480 C.3       6 GLP5        0.0000 
     41 CA          7.1730    9.1405  -11.5175 C.3       3 GLC5        0.0000 
     42 CA          8.3300    8.8020  -12.3750 C.3       9 GLL5        0.0000 
     43 CA          9.3490   11.1290  -16.8525 C.3       3 GLC5        0.0000 
     44 CA          9.3790   10.0430  -15.1760 C.3       9 GLL5        0.0000 
     45 CA          9.2080   11.4650  -18.7190 C.3       6 GLP5        0.0000 
     46 CA         11.1030   11.6870  -15.8210 C.3       3 GLC5        0.0000 
     47 CA         12.7160   12.5810  -16.6560 C.3       6 GLP5        0.0000 
     48 CA          8.5865    8.1043  -15.6185 C.3       3 GLC5        0.0000 
     49 CA          7.4500    6.6390  -16.5740 C.3       6 GLP5        0.0000 
     50 CA         11.0123    7.7255  -16.0303 C.3       3 GLC5        0.0000 
     51 CA         10.0670    9.0960  -14.1500 C.3       9 GLL5        0.0000 
     52 CA         13.2052    6.0395  -12.7925 C.3       3 GLC5        0.0000 
     53 CA         15.0420    4.9790  -12.6790 C.3       6 GLP5        0.0000 
     54 CA          8.7185    8.1410  -11.0740 C.3       3 GLC5        0.0000 
     55 CA         10.8500    8.5950  -11.6470 C.3       9 GLL5        0.0000 
     56 CA         10.5095    9.3778   -8.4775 C.3       3 GLC5        0.0000 
     57 CA          9.8480   10.3910   -7.2940 C.3       6 GLP5        0.0000 
     58 CA         14.5779    5.2701  -11.7707 C.3       3 GLC5        0.0000 
@<TRIPOS>BOND
@<TRIPOS>SUBSTRUCTURE
     1 ALC1       14 GROUP        1 X    ALC  0     ROOT ALC X 1
     2 SEC2       11 GROUP        1 X    SEC  0     **** SEC X 2
     3 GLC5        1 GROUP        1 X    GLC  0     **** GLC X 6
     4 ALP1       16 GROUP        1 Y    ALP  0     ROOT ALP Y 8
     5 SEP2       13 GROUP        1 Y    SEP  0     **** SEP Y 9
     6 GLP5        3 GROUP        1 Y    GLP  0     **** GLP Y 13
     7 ALL1       15 GROUP        1 Z    ALL  0     ROOT ALL Z 15
     8 SEL2       12 GROUP        1 Z    SEL  0     **** SEL Z 16
     9 GLL5        2 GROUP        1 Z    GLL  0     **** GLL Z 20
@<TRIPOS>SET

