#    Name: 3dhe_AND_1_ligand
#    Modification time : Mon Mar 24 23:25:44 2014

@<TRIPOS>MOLECULE
3dhe_AND_1_ligand
   49    52     1     0     0
SMALL
NO_CHARGES


@<TRIPOS>ATOM
      1 C1          9.8200   10.9330  -12.3150 C.3       1 AND400      0.0000 
      2 C2          9.1080   11.8650  -13.3570 C.3       1 AND400      0.0000 
      3 C3          9.6010   11.5430  -14.7960 C.3       1 AND400      0.0000 
      4 O3          8.9460   12.3770  -15.7370 O.3       1 AND400      0.0000 
      5 C4          9.3790   10.0430  -15.1760 C.3       1 AND400      0.0000 
      6 C5         10.0670    9.0960  -14.1500 C.2       1 AND400      0.0000 
      7 C6         10.8680    8.0840  -14.5910 C.2       1 AND400      0.0000 
      8 C7         11.5910    7.0840  -13.6600 C.3       1 AND400      0.0000 
      9 C8         11.1460    7.1160  -12.1520 C.3       1 AND400      0.0000 
     10 C9         10.8500    8.5950  -11.6470 C.3       1 AND400      0.0000 
     11 C10         9.7800    9.3510  -12.6050 C.3       1 AND400      0.0000 
     12 C11        10.6500    8.7580  -10.0950 C.3       1 AND400      0.0000 
     13 C12        11.6920    7.9710   -9.2270 C.3       1 AND400      0.0000 
     14 C13        11.7940    6.4410   -9.6530 C.3       1 AND400      0.0000 
     15 C14        12.1960    6.4130  -11.1860 C.3       1 AND400      0.0000 
     16 C15        13.2850    5.3630  -11.6070 C.3       1 AND400      0.0000 
     17 C16        13.5960    4.7110  -10.2270 C.3       1 AND400      0.0000 
     18 C17        12.7920    5.3870   -9.0540 C.2       1 AND400      0.0000 
     19 O17        12.3960    5.4170   -7.6580 O.2       1 AND400      0.0000 
     20 C18        10.5020    5.6500   -9.2060 C.3       1 AND400      0.0000 
     21 C19         8.3300    8.8020  -12.3750 C.3       1 AND400      0.0000 
     22 H           9.3694   11.0972  -11.3216 H         1 AND400      0.0000 
     23 H          10.8805   11.2270  -12.2380 H         1 AND400      0.0000 
     24 H           9.3421   12.8918  -13.1209 H         1 AND400      0.0000 
     25 H           8.0430   11.7000  -13.2993 H         1 AND400      0.0000 
     26 H          10.6808   11.7159  -14.8128 H         1 AND400      0.0000 
     27 H           9.7980    9.8654  -16.1589 H         1 AND400      0.0000 
     28 H           8.3153    9.8391  -15.1889 H         1 AND400      0.0000 
     29 H          11.0492    7.9143  -15.6008 H         1 AND400      0.0000 
     30 H          12.6764    7.2765  -13.6989 H         1 AND400      0.0000 
     31 H          11.4335    6.0605  -14.0399 H         1 AND400      0.0000 
     32 H          10.2086    6.5591  -12.0628 H         1 AND400      0.0000 
     33 H          11.8439    9.1583  -11.8820 H         1 AND400      0.0000 
     34 H           9.6450    8.4113   -9.8364 H         1 AND400      0.0000 
     35 H          10.7181    9.8213   -9.8462 H         1 AND400      0.0000 
     36 H          11.3940    8.0145   -8.1865 H         1 AND400      0.0000 
     37 H          12.6692    8.4227   -9.3472 H         1 AND400      0.0000 
     38 H          13.0137    7.4571  -11.0884 H         1 AND400      0.0000 
     39 H          14.1262    5.8626  -11.9582 H         1 AND400      0.0000 
     40 H          12.8566    4.6591  -12.2407 H         1 AND400      0.0000 
     41 H          14.6577    4.8082  -10.0178 H         1 AND400      0.0000 
     42 H          13.3327    3.6575  -10.2629 H         1 AND400      0.0000 
     43 H          10.5504    4.6846   -9.4622 H         1 AND400      0.0000 
     44 H          10.3699    5.6841   -8.2154 H         1 AND400      0.0000 
     45 H           9.6744    6.0234   -9.6251 H         1 AND400      0.0000 
     46 H           8.2732    7.8188  -12.5487 H         1 AND400      0.0000 
     47 H           8.0206    8.9521  -11.4360 H         1 AND400      0.0000 
     48 H           7.6654    9.2448  -12.9769 H         1 AND400      0.0000 
     49 H           8.9967   13.2965  -15.3471 H         1 AND400      0.0000 
@<TRIPOS>BOND
     1    2    1 1    
     2   11    1 1    
     3   22    1 1    
     4   23    1 1    
     5    3    2 1    
     6   24    2 1    
     7   25    2 1    
     8    4    3 1    
     9    5    3 1    
    10   26    3 1    
    11   49    4 1    
    12    6    5 1    
    13   27    5 1    
    14   28    5 1    
    15    7    6 2    
    16   11    6 1    
    17    8    7 1    
    18   29    7 1    
    19    9    8 1    
    20   30    8 1    
    21   31    8 1    
    22   10    9 1    
    23   15    9 1    
    24   32    9 1    
    25   11   10 1    
    26   12   10 1    
    27   33   10 1    
    28   21   11 1    
    29   13   12 1    
    30   34   12 1    
    31   35   12 1    
    32   14   13 1    
    33   36   13 1    
    34   37   13 1    
    35   15   14 1    
    36   18   14 1    
    37   20   14 1    
    38   16   15 1    
    39   38   15 1    
    40   17   16 1    
    41   39   16 1    
    42   40   16 1    
    43   18   17 1    
    44   41   17 1    
    45   42   17 1    
    46   19   18 2    
    47   43   20 1    
    48   44   20 1    
    49   45   20 1    
    50   46   21 1    
    51   47   21 1    
    52   48   21 1    
@<TRIPOS>SUBSTRUCTURE
     1 AND400      1 GROUP   
@<TRIPOS>SET

