#    Name: 2c3k_ABO_1_INTS_M
#    Modification time : Mon Mar 24 22:28:44 2014

@<TRIPOS>MOLECULE
2c3k_ABO_1_INTS_M
   76     0     9     0     0
SMALL
NO_CHARGES


@<TRIPOS>ATOM
      1 CA          9.8520    0.7635   15.7155 C.3       3 GLC5        0.0000 
      2 CA         11.2310   -0.1250   15.1820 C.3       9 GLL5        0.0000 
      3 CA          8.4730    1.6520   16.2490 C.3       6 GLP5        0.0000 
      4 CA         11.9700   -0.6065   16.8325 C.3       3 GLC5        0.0000 
      5 CA         12.7090   -1.0880   18.4830 C.3       6 GLP5        0.0000 
      6 CA          9.5535   -0.5580   14.0260 C.3       3 GLC5        0.0000 
      7 CA          7.8760   -0.9910   12.8700 C.3       6 GLP5        0.0000 
      8 CA         11.8805   -0.3245   13.5015 C.3       3 GLC5        0.0000 
      9 CA         12.5300   -0.5240   11.8210 C.3       6 GLP5        0.0000 
     10 N          13.5870   -1.7225   15.1195 N.am      2 SEC2        0.0000 
     11 N          11.8930   -1.4760   15.0520 N.am      8 SEL2        0.0000 
     12 N          15.2810   -1.9690   15.1870 N.am      5 SEP2        0.0000 
     13 CA         11.9480   -1.8490   16.9715 C.3       3 GLC5        0.0000 
     14 CA         11.1870   -2.6100   15.4600 C.3       9 GLL5        0.0000 
     15 CA          9.2960   -0.7490   16.8955 C.3       3 GLC5        0.0000 
     16 CA          9.9570   -2.5380   16.1460 C.3       9 GLL5        0.0000 
     17 CA          8.6350    1.0400   17.6450 C.3       6 GLP5        0.0000 
     18 N          14.0990   -2.9610   14.8555 N.am      2 SEC2        0.0000 
     19 N          12.9170   -3.9530   14.5240 N.am      8 SEL2        0.0000 
     20 N          12.5120   -3.8525   13.0300 N.am      2 SEC2        0.0000 
     21 N          12.1070   -3.7520   11.5360 N.am      5 SEP2        0.0000 
     22 O          13.2410   -5.2200   14.1425 O.2       1 ALC1        0.0000 
     23 O          12.9170   -3.9530   14.5240 O.2       7 ALL1        0.0000 
     24 O          13.5650   -6.4870   13.7610 O.2       4 ALP1        0.0000 
     25 CA         11.5550   -6.9295   15.9060 C.3       3 GLC5        0.0000 
     26 CA         11.0670   -5.0410   15.5660 C.3       9 GLL5        0.0000 
     27 CA         12.0430   -8.8180   16.2460 C.3       6 GLP5        0.0000 
     28 CA         10.3275   -6.7590   17.3565 C.3       3 GLC5        0.0000 
     29 CA          9.8320   -4.9620   16.2470 C.3       9 GLL5        0.0000 
     30 CA         10.8230   -8.5560   18.4660 C.3       6 GLP5        0.0000 
     31 CA          9.4735   -1.9730   19.2350 C.3       3 GLC5        0.0000 
     32 CA          7.8340   -2.5150   18.0840 C.3       9 GLL5        0.0000 
     33 CA         11.1130   -1.4310   20.3860 C.3       6 GLP5        0.0000 
     34 CA          7.1020   -6.3970   17.8050 C.3       3 GLC5        0.0000 
     35 CA          7.0320   -4.5550   16.9740 C.3       9 GLL5        0.0000 
     36 CA          7.1720   -8.2390   18.6360 C.3       6 GLP5        0.0000 
     37 O           6.7655   -0.5560   20.2395 O.2       1 ALC1        0.0000 
     38 O           6.1230   -1.5090   19.6460 O.2       7 ALL1        0.0000 
     39 O           7.4080    0.3970   20.8330 O.2       4 ALP1        0.0000 
     40 N           4.1785   -0.5085   20.6485 N.am      2 SEC2        0.0000 
     41 N           4.9440   -1.7580   19.9970 N.am      8 SEL2        0.0000 
     42 N           3.4130    0.7410   21.3000 N.am      5 SEP2        0.0000 
     43 CA          0.9710   -4.9190   21.4890 C.3       3 GLC5        0.0000 
     44 CA         -0.1840   -3.3420   20.4740 C.3       9 GLL5        0.0000 
     45 CA          2.1260   -6.4960   22.5040 C.3       6 GLP5        0.0000 
     46 CA          2.1445   -4.4680   21.3530 C.3       3 GLC5        0.0000 
     47 CA          1.1250   -3.5390   20.0150 C.3       9 GLL5        0.0000 
     48 CA          3.1640   -5.3970   22.6910 C.3       6 GLP5        0.0000 
     49 CA         10.2030   -3.3885   14.0125 C.3       3 GLC5        0.0000 
     50 CA          9.8340   -4.2030   12.2220 C.3       6 GLP5        0.0000 
     51 CA          8.2445   -2.3098   15.1375 C.3       3 GLC5        0.0000 
     52 CA          6.8770   -1.4960   13.9340 C.3       6 GLP5        0.0000 
     53 CA         11.6158   -3.9312   17.2358 C.3       3 GLC5        0.0000 
     54 CA         11.7240   -3.8680   15.1770 C.3       9 GLL5        0.0000 
     55 CA         11.8360   -3.4080   19.1000 C.3       6 GLP5        0.0000 
     56 CA         10.6148   -4.3287   13.7967 C.3       3 GLC5        0.0000 
     57 CA          9.6917   -4.2692   14.3068 C.3       3 GLC5        0.0000 
     58 CA          9.2670   -3.7090   16.5360 C.3       9 GLL5        0.0000 
     59 CA         10.3590   -3.6164   17.9230 C.3       3 GLC5        0.0000 
     60 CA          7.9283   -0.7115   18.0315 C.3       3 GLC5        0.0000 
     61 CA          6.6090   -2.4110   18.7520 C.3       9 GLL5        0.0000 
     62 CA          7.1810   -2.6520   15.6208 C.3       3 GLC5        0.0000 
     63 CA          6.2583   -5.2875   19.3360 C.3       3 GLC5        0.0000 
     64 CA          5.8090   -4.4260   17.6510 C.3       9 GLL5        0.0000 
     65 CA          6.8150   -6.6830   20.5790 C.3       6 GLP5        0.0000 
     66 CA          6.8089   -3.0148   20.4868 C.3       3 GLC5        0.0000 
     67 CA          5.5940   -3.3580   18.5350 C.3       9 GLL5        0.0000 
     68 CA          7.2100   -3.1190   22.4970 C.3       6 GLP5        0.0000 
     69 CA          1.1078   -5.9260   20.9355 C.3       3 GLC5        0.0000 
     70 CA          1.4830   -4.7110   19.3330 C.3       9 GLL5        0.0000 
     71 CA         -1.4998   -3.3273   18.7840 C.3       3 GLC5        0.0000 
     72 CA         -0.8230   -5.5190   19.5170 C.3       9 GLL5        0.0000 
     73 CA         -1.9940   -1.7260   17.6990 C.3       6 GLP5        0.0000 
     74 CA         -0.7617   -2.5833   18.9718 C.3       3 GLC5        0.0000 
     75 CA          5.2926   -2.5652   17.0297 C.3       3 GLC5        0.0000 
     76 CA          4.1710   -1.4300   16.1650 C.3       6 GLP5        0.0000 
@<TRIPOS>BOND
@<TRIPOS>SUBSTRUCTURE
     1 ALC1       22 GROUP        1 X    ALC  0     ROOT ALC X 1
     2 SEC2       10 GROUP        1 X    SEC  0     **** SEC X 2
     3 GLC5        1 GROUP        1 X    GLC  0     **** GLC X 6
     4 ALP1       24 GROUP        1 Y    ALP  0     ROOT ALP Y 8
     5 SEP2       12 GROUP        1 Y    SEP  0     **** SEP Y 9
     6 GLP5        3 GROUP        1 Y    GLP  0     **** GLP Y 13
     7 ALL1       23 GROUP        1 Z    ALL  0     ROOT ALL Z 15
     8 SEL2       11 GROUP        1 Z    SEL  0     **** SEL Z 16
     9 GLL5        2 GROUP        1 Z    GLL  0     **** GLL Z 20
@<TRIPOS>SET

