#    Name: 2c3k_ABO_1_ligand
#    Modification time : Mon Mar 24 22:28:44 2014

@<TRIPOS>MOLECULE
2c3k_ABO_1_ligand
   43    47     1     0     0
SMALL
NO_CHARGES


@<TRIPOS>ATOM
      1 C18        11.2310   -0.1250   15.1820 C.3       1 ABO1271     0.0000 
      2 O17        11.8930   -1.4760   15.0520 O.3       1 ABO1271     0.0000 
      3 C12        11.1870   -2.6100   15.4600 C.ar      1 ABO1271     0.0000 
      4 C11         9.9570   -2.5380   16.1460 C.ar      1 ABO1271     0.0000 
      5 C13        11.7240   -3.8680   15.1770 C.ar      1 ABO1271     0.0000 
      6 O16        12.9170   -3.9530   14.5240 O.3       1 ABO1271     0.0000 
      7 C14        11.0670   -5.0410   15.5660 C.ar      1 ABO1271     0.0000 
      8 C15         9.8320   -4.9620   16.2470 C.ar      1 ABO1271     0.0000 
      9 C10         9.2670   -3.7090   16.5360 C.ar      1 ABO1271     0.0000 
     10 C8          8.0420   -3.6070   17.1980 C.ar      1 ABO1271     0.0000 
     11 C9          7.8340   -2.5150   18.0840 C.ar      1 ABO1271     0.0000 
     12 C7          7.0320   -4.5550   16.9740 C.ar      1 ABO1271     0.0000 
     13 C6          5.8090   -4.4260   17.6510 C.ar      1 ABO1271     0.0000 
     14 C5          5.5940   -3.3580   18.5350 C.ar      1 ABO1271     0.0000 
     15 C4          6.6090   -2.4110   18.7520 C.ar      1 ABO1271     0.0000 
     16 N3          6.1230   -1.5090   19.6460 N.pl3     1 ABO1271     0.0000 
     17 N1          4.9440   -1.7580   19.9970 N.2       1 ABO1271     0.0000 
     18 C2          4.5470   -2.9170   19.3950 C.2       1 ABO1271     0.0000 
     19 C19         3.2700   -3.4680   19.5110 C.2       1 ABO1271     0.0000 
     20 N21         2.8070   -4.6480   19.0080 N.pl3     1 ABO1271     0.0000 
     21 C22         1.4830   -4.7110   19.3330 C.ar      1 ABO1271     0.0000 
     22 C27         0.5210   -5.6750   19.1010 C.ar      1 ABO1271     0.0000 
     23 C26        -0.8230   -5.5190   19.5170 C.ar      1 ABO1271     0.0000 
     24 C25        -1.1880   -4.3380   20.2210 C.ar      1 ABO1271     0.0000 
     25 C24        -0.1840   -3.3420   20.4740 C.ar      1 ABO1271     0.0000 
     26 C23         1.1250   -3.5390   20.0150 C.ar      1 ABO1271     0.0000 
     27 N20         2.2350   -2.7870   20.1170 N.2       1 ABO1271     0.0000 
     28 H           9.5529   -1.6175   16.3675 H         1 ABO1271     0.0000 
     29 H          11.4750   -5.9552   15.3605 H         1 ABO1271     0.0000 
     30 H           9.3516   -5.8199   16.5284 H         1 ABO1271     0.0000 
     31 H           8.5670   -1.8287   18.2226 H         1 ABO1271     0.0000 
     32 H           7.1841   -5.3275   16.3281 H         1 ABO1271     0.0000 
     33 H           5.0661   -5.1190   17.4977 H         1 ABO1271     0.0000 
     34 H           6.6960   -0.7378   19.9603 H         1 ABO1271     0.0000 
     35 H           3.3045   -5.2952   18.5286 H         1 ABO1271     0.0000 
     36 H           0.7796   -6.5534   18.6031 H         1 ABO1271     0.0000 
     37 H          -1.5117   -6.2304   19.3194 H         1 ABO1271     0.0000 
     38 H          -2.1332   -4.1963   20.5396 H         1 ABO1271     0.0000 
     39 H          -0.4389   -2.5006   20.9870 H         1 ABO1271     0.0000 
     40 H          11.8270    0.6127   14.8648 H         1 ABO1271     0.0000 
     41 H          10.3880   -0.0714   14.6467 H         1 ABO1271     0.0000 
     42 H          10.9895    0.0805   16.1304 H         1 ABO1271     0.0000 
     43 H          13.2658   -4.8649   14.7402 H         1 ABO1271     0.0000 
@<TRIPOS>BOND
     1    2    1 1    
     2   40    1 1    
     3   41    1 1    
     4   42    1 1    
     5    3    2 1    
     6    4    3 ar   
     7    5    3 ar   
     8    9    4 ar   
     9   28    4 1    
    10    6    5 1    
    11    7    5 ar   
    12   43    6 1    
    13    8    7 ar   
    14   29    7 1    
    15    9    8 ar   
    16   30    8 1    
    17   10    9 1    
    18   11   10 ar   
    19   12   10 ar   
    20   15   11 ar   
    21   31   11 1    
    22   13   12 ar   
    23   32   12 1    
    24   14   13 ar   
    25   33   13 1    
    26   15   14 ar   
    27   18   14 1    
    28   16   15 1    
    29   17   16 1    
    30   34   16 1    
    31   18   17 2    
    32   19   18 1    
    33   20   19 1    
    34   27   19 2    
    35   21   20 1    
    36   35   20 1    
    37   22   21 ar   
    38   26   21 ar   
    39   23   22 ar   
    40   36   22 1    
    41   24   23 ar   
    42   37   23 1    
    43   25   24 ar   
    44   38   24 1    
    45   26   25 ar   
    46   39   25 1    
    47   27   26 1    
@<TRIPOS>SUBSTRUCTURE
     1 ABO1271     1 GROUP   
@<TRIPOS>SET

