#    Name: 2aru_ATP_1_INTS_M
#    Modification time : Mon Mar 24 19:37:13 2014

@<TRIPOS>MOLECULE
2aru_ATP_1_INTS_M
   71     0    15     0     0
SMALL
NO_CHARGES


@<TRIPOS>ATOM
      1 NZ         12.9415   32.0070   31.0975 N.4       3 LYC4        0.0000 
      2 NZ         12.5260   30.7410   30.5180 N.4      13 LYL4        0.0000 
      3 NZ         13.3570   33.2730   31.6770 N.4       8 LYP4        0.0000 
      4 NZ         11.8425   27.8695   25.6320 N.4       3 LYC4        0.0000 
      5 NZ         12.6240   28.6190   26.3840 N.4      13 LYL4        0.0000 
      6 NZ         11.0610   27.1200   24.8800 N.4       8 LYP4        0.0000 
      7 N          11.8425   27.8695   25.6320 N.am      2 SEC2        0.0000 
      8 N          12.6240   28.6190   26.3840 N.am     12 SEL2        0.0000 
      9 N          11.0610   27.1200   24.8800 N.am      7 SEP2        0.0000 
     10 Zn         14.4825   29.8580   25.5055 Zn        4 ZIC7        0.0000 
     11 Zn         14.1800   30.5770   26.4580 Zn       14 ZIL7        0.0000 
     12 Zn         14.7850   29.1390   24.5530 Zn        9 ZIP7        0.0000 
     13 NZ         10.7225   30.1675   23.3285 N.4       3 LYC4        0.0000 
     14 NZ          9.9350   30.2980   24.2720 N.4      13 LYL4        0.0000 
     15 NZ         11.5100   30.0370   22.3850 N.4       8 LYP4        0.0000 
     16 NZ         10.4980   28.7090   24.5760 N.4       3 LYC4        0.0000 
     17 N          10.7225   30.1675   23.3285 N.am      2 SEC2        0.0000 
     18 N           9.9350   30.2980   24.2720 N.am     12 SEL2        0.0000 
     19 N          11.5100   30.0370   22.3850 N.am      7 SEP2        0.0000 
     20 CA          9.9195   27.0485   25.4330 C.3       5 GLC5        0.0000 
     21 CA          8.5000   28.4100   26.2580 C.3      15 GLL5        0.0000 
     22 CA         11.3390   25.6870   24.6080 C.3      10 GLP5        0.0000 
     23 N           9.9805   27.0680   25.6180 N.am      2 SEC2        0.0000 
     24 N           8.9000   27.0160   26.3560 N.am     12 SEL2        0.0000 
     25 CA          8.5090   28.1645   28.3890 C.3       5 GLC5        0.0000 
     26 CA          7.0710   28.4410   26.8410 C.3      15 GLL5        0.0000 
     27 CA          9.9470   27.8880   29.9370 C.3      10 GLP5        0.0000 
     28 CA          5.2740   25.9435   27.7155 C.3       5 GLC5        0.0000 
     29 CA          6.5460   27.0570   26.4830 C.3      15 GLL5        0.0000 
     30 CA          4.0020   24.8300   28.9480 C.3      10 GLP5        0.0000 
     31 CA          8.8650   27.0205   28.2495 C.3       5 GLC5        0.0000 
     32 CA          7.7830   26.1530   26.5620 C.3      15 GLL5        0.0000 
     33 CA          9.5610   25.9200   25.5850 C.3       5 GLC5        0.0000 
     34 CA          6.9475   24.4895   25.4550 C.3       5 GLC5        0.0000 
     35 CA          6.1120   22.8260   24.3480 C.3      10 GLP5        0.0000 
     36 N           7.4985   26.0625   31.3090 N.am      2 SEC2        0.0000 
     37 N           7.8400   25.1110   30.1060 N.am     12 SEL2        0.0000 
     38 N           7.1570   27.0140   32.5120 N.am      7 SEP2        0.0000 
     39 CA         10.4905   24.8885   32.2105 C.3       5 GLC5        0.0000 
     40 CA         10.1670   24.0120   30.2480 C.3      15 GLL5        0.0000 
     41 CA         10.8140   25.7650   34.1730 C.3      10 GLP5        0.0000 
     42 CA         12.0830   24.4395   30.8380 C.3       5 GLC5        0.0000 
     43 CA         13.9990   24.8670   31.4280 C.3      10 GLP5        0.0000 
     44 O           9.0350   24.0495   32.3155 O.2       1 ALC1        0.0000 
     45 O          10.1540   23.6780   31.5480 O.2      11 ALL1        0.0000 
     46 O           7.9160   24.4210   33.0830 O.2       6 ALP1        0.0000 
     47 O          10.9865   22.8610   31.9615 O.2       1 ALC1        0.0000 
     48 O          11.8190   22.0440   32.3750 O.2       6 ALP1        0.0000 
     49 CA         10.6195   25.9720   29.0485 C.3       5 GLC5        0.0000 
     50 CA         11.2920   24.0560   28.1600 C.3      15 GLL5        0.0000 
     51 CA         11.3155   24.8715   26.3840 C.3       5 GLC5        0.0000 
     52 CA         12.7835   23.2625   27.0765 C.3       5 GLC5        0.0000 
     53 CA         14.2750   22.4690   25.9930 C.3      10 GLP5        0.0000 
     54 CA         12.8250   25.1420   27.2625 C.3       5 GLC5        0.0000 
     55 CA         14.3580   26.2280   26.3650 C.3      10 GLP5        0.0000 
     56 CA         12.6455   24.4615   29.7940 C.3       5 GLC5        0.0000 
     57 CA         10.5350   22.2760   28.4855 C.3       5 GLC5        0.0000 
     58 CA          9.7780   20.4960   28.8110 C.3      10 GLP5        0.0000 
     59 CA         10.2840   25.3290   26.4405 C.3       5 GLC5        0.0000 
     60 CA          9.2290   24.9710   28.2730 C.3      15 GLL5        0.0000 
     61 CA          9.0470   22.8740   27.9575 C.3       5 GLC5        0.0000 
     62 CA          8.8650   20.7770   27.6420 C.3      10 GLP5        0.0000 
     63 CA          9.4902   28.3500   28.2897 C.3       5 GLC5        0.0000 
     64 CA          5.8483   28.1835   28.2990 C.3       5 GLC5        0.0000 
     65 CA          4.8880   28.6180   29.9360 C.3      10 GLP5        0.0000 
     66 CA          9.3468   22.5815   30.0350 C.3       5 GLC5        0.0000 
     67 CA          9.0800   24.6720   29.6260 C.3      15 GLL5        0.0000 
     68 CA          9.0700   20.8210   30.1330 C.3      10 GLP5        0.0000 
     69 CA          7.2758   23.8038   28.9853 C.3       5 GLC5        0.0000 
     70 CA          5.3970   22.7860   29.0210 C.3      10 GLP5        0.0000 
     71 CA          9.6866   26.2722   29.5210 C.3       5 GLC5        0.0000 
@<TRIPOS>BOND
@<TRIPOS>SUBSTRUCTURE
     1 ALC1       44 GROUP        1 X    ALC  0     ROOT ALC X 1
     2 SEC2        7 GROUP        1 X    SEC  0     **** SEC X 2
     3 LYC4        1 GROUP        1 X    LYC  0     **** LYC X 4
     4 ZIC7       10 GROUP        1 X    ZIC  0     **** ZIC X 5
     5 GLC5       20 GROUP        1 X    GLC  0     **** GLC X 6
     6 ALP1       46 GROUP        1 Y    ALP  0     ROOT ALP Y 8
     7 SEP2        9 GROUP        1 Y    SEP  0     **** SEP Y 9
     8 LYP4        3 GROUP        1 Y    LYP  0     **** LYP Y 11
     9 ZIP7       12 GROUP        1 Y    ZIP  0     **** ZIP Y 12
    10 GLP5       22 GROUP        1 Y    GLP  0     **** GLP Y 13
    11 ALL1       45 GROUP        1 Z    ALL  0     ROOT ALL Z 15
    12 SEL2        8 GROUP        1 Z    SEL  0     **** SEL Z 16
    13 LYL4        2 GROUP        1 Z    LYL  0     **** LYL Z 18
    14 ZIL7       11 GROUP        1 Z    ZIL  0     **** ZIL Z 19
    15 GLL5       21 GROUP        1 Z    GLL  0     **** GLL Z 20
@<TRIPOS>SET

