#    Name: 2aru_ATP_1_ligand
#    Modification time : Mon Mar 24 19:37:13 2014

@<TRIPOS>MOLECULE
2aru_ATP_1_ligand
   43    45     1     0     0
SMALL
NO_CHARGES


@<TRIPOS>ATOM
      1 PG         13.3180   29.7740   29.6010 P.3       1 ATP1065     0.0000 
      2 O1G        14.5660   30.3430   28.9290 O.co2     1 ATP1065     0.0000 
      3 O2G        12.5580   28.5240   29.0940 O.co2     1 ATP1065     0.0000 
      4 O3G        12.5260   30.7410   30.5180 O.co2     1 ATP1065     0.0000 
      5 PB         12.7680   30.0870   26.7110 P.3       1 ATP1065     0.0000 
      6 O1B        12.6240   28.6190   26.3840 O.co2     1 ATP1065     0.0000 
      7 O2B        14.1800   30.5770   26.4580 O.co2     1 ATP1065     0.0000 
      8 O3B        12.4190   30.4230   28.3030 O.3       1 ATP1065     0.0000 
      9 PA         10.2850   31.1380   25.4650 P.3       1 ATP1065     0.0000 
     10 O1A         9.9000   32.5820   25.3010 O.co2     1 ATP1065     0.0000 
     11 O2A         9.9350   30.2980   24.2720 O.co2     1 ATP1065     0.0000 
     12 O3A        11.8730   31.0380   25.7850 O.3       1 ATP1065     0.0000 
     13 O5'         9.4680   30.6080   26.7140 O.3       1 ATP1065     0.0000 
     14 C5'         9.5670   29.2140   27.0270 C.3       1 ATP1065     0.0000 
     15 C4'         8.5000   28.4100   26.2580 C.3       1 ATP1065     0.0000 
     16 O4'         8.9000   27.0160   26.3560 O.3       1 ATP1065     0.0000 
     17 C3'         7.0710   28.4410   26.8410 C.3       1 ATP1065     0.0000 
     18 O3'         6.2810   29.5290   26.3220 O.3       1 ATP1065     0.0000 
     19 C2'         6.5460   27.0570   26.4830 C.3       1 ATP1065     0.0000 
     20 O2'         5.9950   26.9920   25.1600 O.3       1 ATP1065     0.0000 
     21 C1'         7.7830   26.1530   26.5620 C.3       1 ATP1065     0.0000 
     22 N9          8.0610   25.6210   27.9060 N.pl3     1 ATP1065     0.0000 
     23 C8          7.2760   25.6640   29.0620 C.2       1 ATP1065     0.0000 
     24 N7          7.8400   25.1110   30.1060 N.2       1 ATP1065     0.0000 
     25 C5          9.0800   24.6720   29.6260 C.ar      1 ATP1065     0.0000 
     26 C6         10.1670   24.0120   30.2480 C.ar      1 ATP1065     0.0000 
     27 N6         10.1540   23.6780   31.5480 N.pl3     1 ATP1065     0.0000 
     28 N1         11.2830   23.7100   29.4720 N.ar      1 ATP1065     0.0000 
     29 C2         11.2920   24.0560   28.1600 C.ar      1 ATP1065     0.0000 
     30 N3         10.3180   24.6870   27.4760 N.ar      1 ATP1065     0.0000 
     31 C4          9.2290   24.9710   28.2730 C.ar      1 ATP1065     0.0000 
     32 H           9.4131   29.0245   28.0971 H         1 ATP1065     0.0000 
     33 H          10.5476   28.8035   26.7540 H         1 ATP1065     0.0000 
     34 H           8.4785   28.7061   25.2417 H         1 ATP1065     0.0000 
     35 H           7.1829   28.4740   27.9154 H         1 ATP1065     0.0000 
     36 H           5.8687   26.7404   27.2387 H         1 ATP1065     0.0000 
     37 H           7.7466   25.4049   25.8422 H         1 ATP1065     0.0000 
     38 H           6.3708   26.0894   29.0456 H         1 ATP1065     0.0000 
     39 H           9.2535   23.5174   31.9521 H         1 ATP1065     0.0000 
     40 H          11.0460   23.6196   31.9962 H         1 ATP1065     0.0000 
     41 H          12.1905   23.7919   27.5993 H         1 ATP1065     0.0000 
     42 H           6.9177   30.2960   26.2424 H         1 ATP1065     0.0000 
     43 H           5.6571   27.9148   24.9749 H         1 ATP1065     0.0000 
@<TRIPOS>BOND
     1    2    1 ar   
     2    3    1 ar   
     3    4    1 ar   
     4    8    1 1    
     5    6    5 ar   
     6    7    5 ar   
     7    8    5 1    
     8   12    5 1    
     9   10    9 ar   
    10   11    9 ar   
    11   12    9 1    
    12   13    9 1    
    13   14   13 1    
    14   15   14 1    
    15   32   14 1    
    16   33   14 1    
    17   16   15 1    
    18   17   15 1    
    19   34   15 1    
    20   21   16 1    
    21   18   17 1    
    22   19   17 1    
    23   35   17 1    
    24   42   18 1    
    25   20   19 1    
    26   21   19 1    
    27   36   19 1    
    28   43   20 1    
    29   22   21 1    
    30   37   21 1    
    31   23   22 1    
    32   31   22 1    
    33   24   23 2    
    34   38   23 1    
    35   25   24 1    
    36   26   25 ar   
    37   31   25 ar   
    38   27   26 1    
    39   28   26 ar   
    40   39   27 1    
    41   40   27 1    
    42   29   28 ar   
    43   30   29 ar   
    44   41   29 1    
    45   31   30 ar   
@<TRIPOS>SUBSTRUCTURE
     1 ATP1065     1 GROUP   
@<TRIPOS>SET

