#    Name: 3r4o_FU3_2_INTS_M
#    Modification time : Tue Mar 25 10:31:43 2014

@<TRIPOS>MOLECULE
3r4o_FU3_2_INTS_M
   72     0     9     0     0
SMALL
NO_CHARGES


@<TRIPOS>ATOM
      1 CA         -0.5020  -21.2710   13.5685 C.3       3 GLC5        0.0000 
      2 CA         -0.3400  -22.3350   11.7420 C.3       9 GLL5        0.0000 
      3 CA         -0.6640  -20.2070   15.3950 C.3       6 GLP5        0.0000 
      4 CA          1.3525  -20.0720   11.5580 C.3       3 GLC5        0.0000 
      5 CA          1.1290  -21.9840   11.4160 C.3       9 GLL5        0.0000 
      6 CA          1.5760  -18.1600   11.7000 C.3       6 GLP5        0.0000 
      7 CA         -0.7480  -24.1470   14.1710 C.3       3 GLC5        0.0000 
      8 CA          0.2210  -23.2720   12.8310 C.3       9 GLL5        0.0000 
      9 CA         -1.7170  -25.0220   15.5110 C.3       6 GLP5        0.0000 
     10 CA          5.7000  -25.8980   12.0285 C.3       3 GLC5        0.0000 
     11 CA          6.3590  -24.1600   12.0080 C.3       9 GLL5        0.0000 
     12 CA          5.0410  -27.6360   12.0490 C.3       6 GLP5        0.0000 
     13 CA          3.8380  -22.3685   14.8635 C.3       3 GLC5        0.0000 
     14 CA          5.3610  -23.5040   14.1310 C.3       9 GLL5        0.0000 
     15 CA          2.3150  -21.2330   15.5960 C.3       6 GLP5        0.0000 
     16 CA          4.0560  -24.3810   15.6560 C.3       3 GLC5        0.0000 
     17 CA          2.7510  -25.2580   17.1810 C.3       6 GLP5        0.0000 
     18 CA          4.4655  -25.2270   13.4775 C.3       3 GLC5        0.0000 
     19 CA          3.5700  -26.9500   12.8240 C.3       6 GLP5        0.0000 
     20 CA         10.4005  -22.5780   14.4400 C.3       3 GLC5        0.0000 
     21 CA          8.9690  -23.6480   15.2540 C.3       9 GLL5        0.0000 
     22 CA         11.8320  -21.5080   13.6260 C.3       6 GLP5        0.0000 
     23 CA          7.6720  -22.0445   15.8115 C.3       3 GLC5        0.0000 
     24 CA          6.3750  -20.4410   16.3690 C.3       6 GLP5        0.0000 
     25 CA          8.2475  -25.0100   16.5660 C.3       3 GLC5        0.0000 
     26 CA          7.5260  -26.3720   17.8780 C.3       6 GLP5        0.0000 
     27 CA          2.5155  -25.1740   12.3760 C.3       3 GLC5        0.0000 
     28 CA          1.4610  -23.3980   11.9280 C.3       9 GLL5        0.0000 
     29 CA          0.9565  -25.3490   11.1950 C.3       3 GLC5        0.0000 
     30 CA          0.4520  -27.3000   10.4620 C.3       6 GLP5        0.0000 
     31 O           9.6615  -23.1835   17.7905 O.2       1 ALC1        0.0000 
     32 O           9.7800  -23.4640   16.3690 O.2       7 ALL1        0.0000 
     33 O           9.5430  -22.9030   19.2120 O.2       4 ALP1        0.0000 
     34 N           3.5995  -24.6185    9.6345 N.am      2 SEC2        0.0000 
     35 N           3.8920  -24.0120   10.7470 N.am      8 SEL2        0.0000 
     36 N           3.3070  -25.2250    8.5220 N.am      5 SEP2        0.0000 
     37 CA          3.6500  -20.7490   14.0225 C.3       3 GLC5        0.0000 
     38 CA          4.9850  -20.2650   12.4490 C.3       9 GLL5        0.0000 
     39 CA         12.6730  -25.6985    8.6630 C.3       3 GLC5        0.0000 
     40 CA         11.2710  -25.6930    7.6830 C.3       9 GLL5        0.0000 
     41 CA         14.0750  -25.7040    9.6430 C.3       6 GLP5        0.0000 
     42 CA         12.3540  -26.7590    6.4600 C.3       3 GLC5        0.0000 
     43 CA         13.4370  -27.8250    5.2370 C.3       6 GLP5        0.0000 
     44 CA          8.1235  -27.3700   13.1350 C.3       3 GLC5        0.0000 
     45 CA         10.0720  -27.0480   12.8090 C.3       9 GLL5        0.0000 
     46 CA          6.1750  -27.6920   13.4610 C.3       6 GLP5        0.0000 
     47 CA          9.0385  -27.7585   11.4760 C.3       3 GLC5        0.0000 
     48 CA          8.0050  -28.4690   10.1430 C.3       6 GLP5        0.0000 
     49 CA         11.8640  -27.7565   12.5080 C.3       3 GLC5        0.0000 
     50 CA         13.6560  -28.4650   12.2070 C.3       6 GLP5        0.0000 
     51 CA          9.7275  -28.6400   14.0155 C.3       3 GLC5        0.0000 
     52 CA          9.3830  -30.2320   15.2220 C.3       6 GLP5        0.0000 
     53 CA         12.2048  -25.1782    9.4610 C.3       3 GLC5        0.0000 
     54 CA         10.6070  -25.2920    9.2040 C.3       9 GLL5        0.0000 
     55 CA          9.3065  -27.1155    9.9405 C.3       3 GLC5        0.0000 
     56 CA         12.1987  -25.8788   10.2710 C.3       3 GLC5        0.0000 
     57 CA         10.6090  -26.2320   10.2720 C.3       9 GLL5        0.0000 
     58 CA          1.5365  -22.1073   13.9238 C.3       3 GLC5        0.0000 
     59 CA          6.2443  -22.0095   15.2820 C.3       3 GLC5        0.0000 
     60 CA          8.8753  -26.8485   10.8792 C.3       3 GLC5        0.0000 
     61 CA          9.4550  -24.5810   11.7050 C.3       9 GLL5        0.0000 
     62 CA         10.4839  -22.8287   12.8440 C.3       3 GLC5        0.0000 
     63 CA          8.8010  -24.1890   12.9830 C.3       9 GLL5        0.0000 
     64 CA          7.0717  -25.8520   13.3889 C.3       3 GLC5        0.0000 
     65 CA          7.4413  -17.9529   12.7050 C.3       3 GLC5        0.0000 
     66 CA          6.0560  -19.7270   11.8580 C.3       9 GLL5        0.0000 
     67 CA          8.5600  -16.7060   13.2890 C.3       6 GLP5        0.0000 
     68 CA          6.0466  -19.2920   14.2884 C.3       3 GLC5        0.0000 
     69 CA          6.8060  -19.1500   12.8000 C.3       9 GLL5        0.0000 
     70 CA          5.9300  -19.0110   16.1000 C.3       6 GLP5        0.0000 
     71 CA          4.3765  -18.9028   12.5739 C.3       3 GLC5        0.0000 
     72 CA          2.6440  -18.3520   12.7750 C.3       6 GLP5        0.0000 
@<TRIPOS>BOND
@<TRIPOS>SUBSTRUCTURE
     1 ALC1       31 GROUP        1 X    ALC  0     ROOT ALC X 1
     2 SEC2       34 GROUP        1 X    SEC  0     **** SEC X 2
     3 GLC5        1 GROUP        1 X    GLC  0     **** GLC X 6
     4 ALP1       33 GROUP        1 Y    ALP  0     ROOT ALP Y 8
     5 SEP2       36 GROUP        1 Y    SEP  0     **** SEP Y 9
     6 GLP5        3 GROUP        1 Y    GLP  0     **** GLP Y 13
     7 ALL1       32 GROUP        1 Z    ALL  0     ROOT ALL Z 15
     8 SEL2       35 GROUP        1 Z    SEL  0     **** SEL Z 16
     9 GLL5        2 GROUP        1 Z    GLL  0     **** GLL Z 20
@<TRIPOS>SET

