#    Name: 3r4o_FU3_2_ligand
#    Modification time : Tue Mar 25 10:31:43 2014

@<TRIPOS>MOLECULE
3r4o_FU3_2_ligand
   55    58     1     0     0
SMALL
NO_CHARGES


@<TRIPOS>ATOM
      1 C1         10.0620  -24.0130    9.3540 C.ar      1 FU3901      0.0000 
      2 C2         10.6090  -26.2320   10.2720 C.ar      1 FU3901      0.0000 
      3 C3         -0.3400  -22.3350   11.7420 C.3       1 FU3901      0.0000 
      4 C4          1.1290  -21.9840   11.4160 C.3       1 FU3901      0.0000 
      5 C5          0.2210  -23.2720   12.8310 C.3       1 FU3901      0.0000 
      6 C6          6.3590  -24.1600   12.0080 C.3       1 FU3901      0.0000 
      7 C7          5.3610  -23.5040   14.1310 C.3       1 FU3901      0.0000 
      8 C8          8.0740  -20.2430   10.4450 C.3       1 FU3901      0.0000 
      9 C9          6.8180  -20.7800   11.1320 C.3       1 FU3901      0.0000 
     10 C10         8.8650  -21.3830    9.8220 C.3       1 FU3901      0.0000 
     11 C11        10.6070  -25.2920    9.2040 C.ar      1 FU3901      0.0000 
     12 C12         9.4860  -23.6390   10.5770 C.ar      1 FU3901      0.0000 
     13 C13        10.0360  -25.8750   11.5260 C.ar      1 FU3901      0.0000 
     14 C14         7.4060  -24.0180   13.0420 C.ar      1 FU3901      0.0000 
     15 C15         6.8660  -23.6520   14.2590 C.ar      1 FU3901      0.0000 
     16 C16         9.4550  -24.5810   11.7050 C.ar      1 FU3901      0.0000 
     17 C17         8.8010  -24.1890   12.9830 C.ar      1 FU3901      0.0000 
     18 C18         8.9690  -23.6480   15.2540 C.ar      1 FU3901      0.0000 
     19 C19         1.4610  -23.3980   11.9280 C.3       1 FU3901      0.0000 
     20 C20         3.9190  -23.7800   11.9620 C.2       1 FU3901      0.0000 
     21 C21         6.0560  -19.7270   11.8580 C.3       1 FU3901      0.0000 
     22 N22         9.7800  -23.4640   16.3690 N.pl3     1 FU3901      0.0000 
     23 N23         7.6070  -23.4580   15.3850 N.ar      1 FU3901      0.0000 
     24 N24         9.5880  -24.0050   14.0850 N.ar      1 FU3901      0.0000 
     25 N25         2.7560  -23.4590   12.6520 N.am      1 FU3901      0.0000 
     26 N26         5.1190  -23.8280   12.7020 N.am      1 FU3901      0.0000 
     27 O27         3.8920  -24.0120   10.7470 O.2       1 FU3901      0.0000 
     28 O28         8.9180  -22.4130   10.8170 O.3       1 FU3901      0.0000 
     29 F29         5.6220  -18.7720   11.0260 F         1 FU3901      0.0000 
     30 F30         4.9850  -20.2650   12.4490 F         1 FU3901      0.0000 
     31 F31         6.8060  -19.1500   12.8000 F         1 FU3901      0.0000 
     32 CL32       11.2710  -25.6930    7.6830 Cl        1 FU3901      0.0000 
     33 CL33       10.0720  -27.0480   12.8090 Cl        1 FU3901      0.0000 
     34 H          10.0824  -23.3498    8.5743 H         1 FU3901      0.0000 
     35 H          11.0164  -27.1523   10.1416 H         1 FU3901      0.0000 
     36 H          -0.7282  -22.8773   10.9979 H         1 FU3901      0.0000 
     37 H          -0.7854  -21.5494   12.1698 H         1 FU3901      0.0000 
     38 H           1.4613  -21.3040   12.0652 H         1 FU3901      0.0000 
     39 H           1.2513  -21.9465   10.4271 H         1 FU3901      0.0000 
     40 H          -0.2869  -24.1310   12.8280 H         1 FU3901      0.0000 
     41 H           0.4490  -22.7412   13.6447 H         1 FU3901      0.0000 
     42 H           6.3343  -25.1731   11.6468 H         1 FU3901      0.0000 
     43 H           6.5417  -23.4702   11.2029 H         1 FU3901      0.0000 
     44 H           5.0845  -22.5001   14.3425 H         1 FU3901      0.0000 
     45 H           4.8806  -24.2089   14.7645 H         1 FU3901      0.0000 
     46 H           8.6918  -19.7316   11.1794 H         1 FU3901      0.0000 
     47 H           7.7833  -19.5373    9.6704 H         1 FU3901      0.0000 
     48 H           7.1187  -21.5771   11.8318 H         1 FU3901      0.0000 
     49 H           6.1770  -21.2486   10.3671 H         1 FU3901      0.0000 
     50 H           9.8490  -21.0155    9.5683 H         1 FU3901      0.0000 
     51 H           8.3480  -21.7087    8.9307 H         1 FU3901      0.0000 
     52 H           1.2661  -24.0546   11.1954 H         1 FU3901      0.0000 
     53 H          10.7643  -23.5535   16.2168 H         1 FU3901      0.0000 
     54 H           9.3088  -23.2581   17.2267 H         1 FU3901      0.0000 
     55 H           2.7476  -23.2605   13.6445 H         1 FU3901      0.0000 
@<TRIPOS>BOND
     1   11    1 ar   
     2   12    1 ar   
     3   34    1 1    
     4   11    2 ar   
     5   13    2 ar   
     6   35    2 1    
     7    4    3 1    
     8    5    3 1    
     9   36    3 1    
    10   37    3 1    
    11   19    4 1    
    12   38    4 1    
    13   39    4 1    
    14   19    5 1    
    15   40    5 1    
    16   41    5 1    
    17   14    6 1    
    18   26    6 1    
    19   42    6 1    
    20   43    6 1    
    21   15    7 1    
    22   26    7 1    
    23   44    7 1    
    24   45    7 1    
    25    9    8 1    
    26   10    8 1    
    27   46    8 1    
    28   47    8 1    
    29   21    9 1    
    30   48    9 1    
    31   49    9 1    
    32   28   10 1    
    33   50   10 1    
    34   51   10 1    
    35   32   11 1    
    36   16   12 ar   
    37   28   12 1    
    38   16   13 ar   
    39   33   13 1    
    40   15   14 ar   
    41   17   14 ar   
    42   23   15 ar   
    43   17   16 1    
    44   24   17 ar   
    45   22   18 1    
    46   23   18 ar   
    47   24   18 ar   
    48   25   19 1    
    49   52   19 1    
    50   25   20 am   
    51   26   20 am   
    52   27   20 2    
    53   29   21 1    
    54   30   21 1    
    55   31   21 1    
    56   53   22 1    
    57   54   22 1    
    58   55   25 1    
@<TRIPOS>SUBSTRUCTURE
     1 FU3901      1 GROUP   
@<TRIPOS>SET

