#    Name: 4fa2_SB0_2_INTS_M
#    Modification time : Mon Mar 24 19:10:30 2014

@<TRIPOS>MOLECULE
4fa2_SB0_2_INTS_M
   78     0     9     0     0
SMALL
NO_CHARGES


@<TRIPOS>ATOM
      1 CA         -6.4700   -0.5110   13.8290 C.3       3 GLC5        0.0000 
      2 CA         -6.1000   -0.2290   15.6350 C.3       9 GLL5        0.0000 
      3 CA         -6.8400   -0.7930   12.0230 C.3       6 GLP5        0.0000 
      4 CA         -7.6875   -1.2385   15.8000 C.3       3 GLC5        0.0000 
      5 CA         -9.2750   -2.2480   15.9650 C.3       6 GLP5        0.0000 
      6 CA         -5.4720   -1.9635   16.0245 C.3       3 GLC5        0.0000 
      7 CA         -4.8440   -3.6980   16.4140 C.3       6 GLP5        0.0000 
      8 CA         -4.1400    1.5580   14.4735 C.3       3 GLC5        0.0000 
      9 CA         -4.2120    0.8920   16.4950 C.3       9 GLL5        0.0000 
     10 CA         -4.0680    2.2240   12.4520 C.3       6 GLP5        0.0000 
     11 CA         -3.8980    2.7680   23.2400 C.3       3 GLC5        0.0000 
     12 CA         -2.0650    2.1290   24.3330 C.3       9 GLL5        0.0000 
     13 CA         -5.7310    3.4070   22.1470 C.3       6 GLP5        0.0000 
     14 CA         -2.7035    4.2115   23.9120 C.3       3 GLC5        0.0000 
     15 CA         -3.3420    6.2940   23.4910 C.3       6 GLP5        0.0000 
     16 O           2.2930    1.8590   26.9715 O.2       1 ALC1        0.0000 
     17 O           0.7920    1.9630   26.8200 O.2       7 ALL1        0.0000 
     18 O           3.7940    1.7550   27.1230 O.2       4 ALP1        0.0000 
     19 CA          2.5915    0.7270   25.1765 C.3       3 GLC5        0.0000 
     20 CA          0.8290    1.6360   24.4780 C.3       9 GLL5        0.0000 
     21 CA          4.3540   -0.1820   25.8750 C.3       6 GLP5        0.0000 
     22 CA         -4.5790    0.2815   22.3305 C.3       3 GLC5        0.0000 
     23 CA         -2.7620   -0.6300   21.4190 C.3       9 GLL5        0.0000 
     24 CA         -6.3960    1.1930   23.2420 C.3       6 GLP5        0.0000 
     25 CA         -4.6090   -2.4715   22.2455 C.3       3 GLC5        0.0000 
     26 CA         -2.9930   -2.4160   22.9510 C.3       9 GLL5        0.0000 
     27 CA         -6.2250   -2.5270   21.5400 C.3       6 GLP5        0.0000 
     28 CA         -4.3325   -3.6420   23.8265 C.3       3 GLC5        0.0000 
     29 CA         -5.6720   -4.8680   24.7020 C.3       6 GLP5        0.0000 
     30 CA         -1.5870   -4.1045   22.7330 C.3       3 GLC5        0.0000 
     31 CA         -0.1810   -5.7930   22.5150 C.3       6 GLP5        0.0000 
     32 N          -2.3920   -4.0225   24.7800 N.am      2 SEC2        0.0000 
     33 N          -3.2210   -2.7970   24.2460 N.am      8 SEL2        0.0000 
     34 N          -1.5630   -5.2480   25.3140 N.am      5 SEP2        0.0000 
     35 CA         -3.9590   -0.5110   26.3205 C.3       3 GLC5        0.0000 
     36 CA         -3.5100   -1.7910   25.2270 C.3       9 GLL5        0.0000 
     37 CA         -4.4080    0.7690   27.4140 C.3       6 GLP5        0.0000 
     38 CA         -4.5910   -3.3295   24.9645 C.3       3 GLC5        0.0000 
     39 CA         -2.6015   -3.4215   25.9910 C.3       3 GLC5        0.0000 
     40 CA         -1.6930   -5.0520   26.7550 C.3       6 GLP5        0.0000 
     41 N          -2.6845   -4.7740   22.4370 N.am      2 SEC2        0.0000 
     42 N          -2.7900   -3.3450   21.9960 N.am      8 SEL2        0.0000 
     43 N          -2.5790   -6.2030   22.8780 N.am      5 SEP2        0.0000 
     44 CA         -1.3930   -4.5135   20.8595 C.3       3 GLC5        0.0000 
     45 CA         -2.5620   -2.9450   20.7280 C.3       9 GLL5        0.0000 
     46 CA         -0.2240   -6.0820   20.9910 C.3       6 GLP5        0.0000 
     47 CA         -6.9452    0.9858   15.3212 C.3       3 GLC5        0.0000 
     48 CA         -5.4070    0.1980   16.7160 C.3       9 GLL5        0.0000 
     49 CA         -8.1370    1.9870   14.4670 C.3       6 GLP5        0.0000 
     50 CA         -6.4680    1.7432   17.9408 C.3       3 GLC5        0.0000 
     51 CA         -7.3190    3.4070   18.5150 C.3       6 GLP5        0.0000 
     52 CA         -4.6720    3.0240   17.3302 C.3       3 GLC5        0.0000 
     53 CA         -5.5130    4.9250   17.6360 C.3       6 GLP5        0.0000 
     54 CA         -2.6080   -0.3210   16.2523 C.3       3 GLC5        0.0000 
     55 CA         -3.4500    1.3540   17.5540 C.3       9 GLL5        0.0000 
     56 CA         -1.3850   -1.7650   15.4800 C.3       6 GLP5        0.0000 
     57 CA         -1.6490    0.8590   18.6130 C.3       3 GLC5        0.0000 
     58 CA          0.3480    0.5010   19.0220 C.3       6 GLP5        0.0000 
     59 CA         -5.0873    2.0745   20.5598 C.3       3 GLC5        0.0000 
     60 CA         -3.8420    1.0800   18.8540 C.3       9 GLL5        0.0000 
     61 CA         -5.8812    2.0745   18.7437 C.3       3 GLC5        0.0000 
     62 CA         -5.0450    0.4040   19.0910 C.3       9 GLL5        0.0000 
     63 CA         -5.8305   -1.1723   20.0470 C.3       3 GLC5        0.0000 
     64 CA         -5.8270   -0.0390   18.0170 C.3       9 GLL5        0.0000 
     65 CA         -4.2867    2.3060   21.3492 C.3       3 GLC5        0.0000 
     66 CA         -3.0450    1.5660   19.9840 C.3       9 GLL5        0.0000 
     67 CA         -1.2473    0.8530   19.7867 C.3       3 GLC5        0.0000 
     68 CA         -3.0585    1.3998   26.2110 C.3       3 GLC5        0.0000 
     69 CA          1.1920    1.2766   22.2156 C.3       3 GLC5        0.0000 
     70 CA         -1.2950    1.4550   23.1980 C.3       9 GLL5        0.0000 
     71 CA          2.2590    0.8800   20.6000 C.3       6 GLP5        0.0000 
     72 CA         -1.1482   -0.3017   19.9720 C.3       3 GLC5        0.0000 
     73 CA         -4.4141   -2.2759   21.1825 C.3       3 GLC5        0.0000 
     74 CA         -1.3638   -2.8115   19.0877 C.3       3 GLC5        0.0000 
     75 CA         -0.1830   -3.3610   17.5990 C.3       6 GLP5        0.0000 
     76 CA         -3.4917   -2.7105   19.1868 C.3       3 GLC5        0.0000 
     77 CA         -4.4390   -3.1590   17.7970 C.3       6 GLP5        0.0000 
     78 CA         -4.6599   -1.3307   17.9694 C.3       3 GLC5        0.0000 
@<TRIPOS>BOND
@<TRIPOS>SUBSTRUCTURE
     1 ALC1       16 GROUP        1 X    ALC  0     ROOT ALC X 1
     2 SEC2       32 GROUP        1 X    SEC  0     **** SEC X 2
     3 GLC5        1 GROUP        1 X    GLC  0     **** GLC X 6
     4 ALP1       18 GROUP        1 Y    ALP  0     ROOT ALP Y 8
     5 SEP2       34 GROUP        1 Y    SEP  0     **** SEP Y 9
     6 GLP5        3 GROUP        1 Y    GLP  0     **** GLP Y 13
     7 ALL1       17 GROUP        1 Z    ALL  0     ROOT ALL Z 15
     8 SEL2       33 GROUP        1 Z    SEL  0     **** SEL Z 16
     9 GLL5        2 GROUP        1 Z    GLL  0     **** GLL Z 20
@<TRIPOS>SET

