#    Name: 4fa2_SB0_2_ligand
#    Modification time : Mon Mar 24 19:10:30 2014

@<TRIPOS>MOLECULE
4fa2_SB0_2_ligand
   48    51     1     0     0
SMALL
NO_CHARGES


@<TRIPOS>ATOM
      1 F8         -6.1000   -0.2290   15.6350 F         1 SB0402      0.0000 
      2 C2         -5.4070    0.1980   16.7160 C.ar      1 SB0402      0.0000 
      3 C1         -4.2120    0.8920   16.4950 C.ar      1 SB0402      0.0000 
      4 C6         -3.4500    1.3540   17.5540 C.ar      1 SB0402      0.0000 
      5 C5         -3.8420    1.0800   18.8540 C.ar      1 SB0402      0.0000 
      6 C4         -5.0450    0.4040   19.0910 C.ar      1 SB0402      0.0000 
      7 C3         -5.8270   -0.0390   18.0170 C.ar      1 SB0402      0.0000 
      8 C7         -3.0450    1.5660   19.9840 C.2       1 SB0402      0.0000 
      9 N9         -2.6320    2.8480   20.1330 N.2       1 SB0402      0.0000 
     10 C10        -1.9670    2.9390   21.2950 C.2       1 SB0402      0.0000 
     11 N11        -1.9660    1.7240   21.8950 N.pl3     1 SB0402      0.0000 
     12 C19        -1.2950    1.4550   23.1980 C.3       1 SB0402      0.0000 
     13 C20        -2.0650    2.1290   24.3330 C.3       1 SB0402      0.0000 
     14 C21        -1.3530    1.9320   25.6830 C.3       1 SB0402      0.0000 
     15 C22         0.1170    2.3390   25.6210 C.3       1 SB0402      0.0000 
     16 O25         0.7920    1.9630   26.8200 O.3       1 SB0402      0.0000 
     17 C23         0.8290    1.6360   24.4780 C.3       1 SB0402      0.0000 
     18 C24         0.1370    1.9660   23.1710 C.3       1 SB0402      0.0000 
     19 C12        -2.6400    0.8440   21.1190 C.2       1 SB0402      0.0000 
     20 C13        -2.7620   -0.6300   21.4190 C.ar      1 SB0402      0.0000 
     21 N14        -2.9670   -1.0810   22.6770 N.ar      1 SB0402      0.0000 
     22 C15        -2.9930   -2.4160   22.9510 C.ar      1 SB0402      0.0000 
     23 O26        -3.2210   -2.7970   24.2460 O.3       1 SB0402      0.0000 
     24 C27        -3.5100   -1.7910   25.2270 C.3       1 SB0402      0.0000 
     25 N16        -2.7900   -3.3450   21.9960 N.ar      1 SB0402      0.0000 
     26 C17        -2.5620   -2.9450   20.7280 C.ar      1 SB0402      0.0000 
     27 C18        -2.5270   -1.5790   20.4250 C.ar      1 SB0402      0.0000 
     28 H          -3.8992    1.0588   15.5228 H         1 SB0402      0.0000 
     29 H          -2.5958    1.8988   17.3769 H         1 SB0402      0.0000 
     30 H          -5.3547    0.2326   20.0543 H         1 SB0402      0.0000 
     31 H          -6.7055   -0.5360   18.1975 H         1 SB0402      0.0000 
     32 H          -1.5529    3.7384   21.6528 H         1 SB0402      0.0000 
     33 H          -1.2780    0.3915   23.3847 H         1 SB0402      0.0000 
     34 H          -3.0652    1.7023   24.3948 H         1 SB0402      0.0000 
     35 H          -2.1490    3.1957   24.1295 H         1 SB0402      0.0000 
     36 H          -1.4255    0.8799   25.9703 H         1 SB0402      0.0000 
     37 H          -1.8628    2.5311   26.4419 H         1 SB0402      0.0000 
     38 H           0.1806    3.3984   25.4567 H         1 SB0402      0.0000 
     39 H           0.8028    0.5632   24.6422 H         1 SB0402      0.0000 
     40 H           1.8613    1.9693   24.4368 H         1 SB0402      0.0000 
     41 H           0.1318    3.0433   23.0243 H         1 SB0402      0.0000 
     42 H           0.6709    1.4966   22.3483 H         1 SB0402      0.0000 
     43 H          -2.4111   -3.6266   19.9671 H         1 SB0402      0.0000 
     44 H          -2.3265   -1.2759   19.4625 H         1 SB0402      0.0000 
     45 H          -2.7617   -1.1337   25.3165 H         1 SB0402      0.0000 
     46 H          -4.3313   -1.2702   24.9941 H         1 SB0402      0.0000 
     47 H          -3.6615   -2.1878   26.1323 H         1 SB0402      0.0000 
     48 H           1.7646    2.0688   26.6133 H         1 SB0402      0.0000 
@<TRIPOS>BOND
     1    2    1 1    
     2    3    2 ar   
     3    7    2 ar   
     4    4    3 ar   
     5   28    3 1    
     6    5    4 ar   
     7   29    4 1    
     8    6    5 ar   
     9    8    5 1    
    10    7    6 ar   
    11   30    6 1    
    12   31    7 1    
    13    9    8 1    
    14   19    8 2    
    15   10    9 2    
    16   11   10 1    
    17   32   10 1    
    18   12   11 1    
    19   19   11 1    
    20   13   12 1    
    21   18   12 1    
    22   33   12 1    
    23   14   13 1    
    24   34   13 1    
    25   35   13 1    
    26   15   14 1    
    27   36   14 1    
    28   37   14 1    
    29   16   15 1    
    30   17   15 1    
    31   38   15 1    
    32   48   16 1    
    33   18   17 1    
    34   39   17 1    
    35   40   17 1    
    36   41   18 1    
    37   42   18 1    
    38   20   19 1    
    39   21   20 ar   
    40   27   20 ar   
    41   22   21 ar   
    42   23   22 1    
    43   25   22 ar   
    44   24   23 1    
    45   45   24 1    
    46   46   24 1    
    47   47   24 1    
    48   26   25 ar   
    49   27   26 ar   
    50   43   26 1    
    51   44   27 1    
@<TRIPOS>SUBSTRUCTURE
     1 SB0402      1 GROUP   
@<TRIPOS>SET

