#    Name: 3d7z_GK5_1_INTS_M
#    Modification time : Mon Mar 24 22:51:13 2014

@<TRIPOS>MOLECULE
3d7z_GK5_1_INTS_M
   87     0     9     0     0
SMALL
NO_CHARGES


@<TRIPOS>ATOM
      1 CA         41.1775   32.1975   28.7195 C.3       3 GLC5        0.0000 
      2 CA         39.6300   32.3090   30.1810 C.3       9 GLL5        0.0000 
      3 CA         42.7250   32.0860   27.2580 C.3       6 GLP5        0.0000 
      4 CA         40.7245   33.7480   29.8010 C.3       3 GLC5        0.0000 
      5 CA         41.8190   35.1870   29.4210 C.3       6 GLP5        0.0000 
      6 CA         35.8760   25.4085   37.7150 C.3       3 GLC5        0.0000 
      7 CA         36.9710   26.7190   36.5160 C.3       9 GLL5        0.0000 
      8 CA         34.7810   24.0980   38.9140 C.3       6 GLP5        0.0000 
      9 CA         35.8905   28.2430   36.0325 C.3       3 GLC5        0.0000 
     10 CA         34.8100   29.7670   35.5490 C.3       6 GLP5        0.0000 
     11 CA         37.4170   24.7605   36.1910 C.3       3 GLC5        0.0000 
     12 CA         37.8630   22.8020   35.8660 C.3       6 GLP5        0.0000 
     13 CA         38.3645   25.0080   35.2620 C.3       3 GLC5        0.0000 
     14 CA         38.3730   26.6660   35.9900 C.3       9 GLL5        0.0000 
     15 CA         38.3560   23.3500   34.5340 C.3       6 GLP5        0.0000 
     16 CA         48.7230   31.8315   30.6770 C.3       3 GLC5        0.0000 
     17 CA         49.0270   33.9270   30.3930 C.3       9 GLL5        0.0000 
     18 CA         48.4190   29.7360   30.9610 C.3       6 GLP5        0.0000 
     19 CA         36.5420   30.6980   30.6850 C.3       3 GLC5        0.0000 
     20 CA         38.4080   30.5250   31.5890 C.3       9 GLL5        0.0000 
     21 CA         34.6760   30.8710   29.7810 C.3       6 GLP5        0.0000 
     22 CA         37.7035   29.9985   34.8635 C.3       3 GLC5        0.0000 
     23 CA         39.3810   29.5090   33.5710 C.3       9 GLL5        0.0000 
     24 CA         36.0260   30.4880   36.1560 C.3       6 GLP5        0.0000 
     25 N          41.0710   28.1315   36.6110 N.am      2 SEC2        0.0000 
     26 N          40.2860   28.7210   35.6310 N.am      8 SEL2        0.0000 
     27 N          41.8560   27.5420   37.5910 N.am      5 SEP2        0.0000 
     28 O          37.7785   27.1195   33.6725 O.2       1 ALC1        0.0000 
     29 O          38.4170   27.6230   34.9050 O.2       7 ALL1        0.0000 
     30 O          37.1400   26.6160   32.4400 O.2       4 ALP1        0.0000 
     31 CA         42.0875   34.4725   34.6435 C.3       3 GLC5        0.0000 
     32 CA         43.3170   33.7730   33.0100 C.3       9 GLL5        0.0000 
     33 CA         40.8580   35.1720   36.2770 C.3       6 GLP5        0.0000 
     34 CA         41.0635   33.4895   34.6185 C.3       3 GLC5        0.0000 
     35 CA         42.0990   33.0920   32.9560 C.3       9 GLL5        0.0000 
     36 CA         40.0280   33.8870   36.2810 C.3       6 GLP5        0.0000 
     37 CA         40.3240   34.1170   33.0750 C.3       3 GLC5        0.0000 
     38 CA         38.5490   35.1420   33.1940 C.3       6 GLP5        0.0000 
     39 N          45.6825   36.7635   32.9530 N.am      2 SEC2        0.0000 
     40 N          45.7880   35.2700   32.7450 N.am      8 SEL2        0.0000 
     41 N          45.5770   38.2570   33.1610 N.am      5 SEP2        0.0000 
     42 CA         48.2815   31.6825   31.8515 C.3       3 GLC5        0.0000 
     43 CA         48.1440   33.6290   32.7420 C.3       9 GLL5        0.0000 
     44 CA         49.7540   32.7380   33.9465 C.3       3 GLC5        0.0000 
     45 CA         51.3640   31.8470   35.1510 C.3       6 GLP5        0.0000 
     46 CA         47.4030   34.0885   34.6640 C.3       3 GLC5        0.0000 
     47 CA         46.6620   34.5480   36.5860 C.3       6 GLP5        0.0000 
     48 CA         38.6587   32.8320   31.9740 C.3       3 GLC5        0.0000 
     49 CA         37.7290   33.8420   33.1810 C.3       6 GLP5        0.0000 
     50 CA         36.3905   26.3047   34.8165 C.3       3 GLC5        0.0000 
     51 CA         35.1090   25.9170   33.3800 C.3       6 GLP5        0.0000 
     52 CA         37.2777   27.5590   38.7658 C.3       3 GLC5        0.0000 
     53 CA         37.0410   28.0560   40.6460 C.3       6 GLP5        0.0000 
     54 CA         37.1208   28.7617   36.3893 C.3       3 GLC5        0.0000 
     55 CA         38.0580   27.4050   37.2550 C.3       9 GLL5        0.0000 
     56 CA         40.0053   26.5637   36.9698 C.3       3 GLC5        0.0000 
     57 CA         41.7950   26.0920   37.3170 C.3       6 GLP5        0.0000 
     58 CA         50.6645   35.4035   32.5440 C.3       3 GLC5        0.0000 
     59 CA         48.8110   34.5300   31.7230 C.3       9 GLL5        0.0000 
     60 CA         51.8310   36.4350   33.5850 C.3       6 GLP5        0.0000 
     61 CA         38.6611   30.4738   29.5100 C.3       3 GLC5        0.0000 
     62 CA         39.5470   31.3350   31.3530 C.3       9 GLL5        0.0000 
     63 CA         38.3240   29.7740   27.8420 C.3       6 GLP5        0.0000 
     64 CA         36.6470   29.8510   33.0800 C.3       3 GLC5        0.0000 
     65 CA         34.9340   29.6200   34.0330 C.3       6 GLP5        0.0000 
     66 CA         38.0445   31.9620   32.6540 C.3       3 GLC5        0.0000 
     67 CA         38.3120   29.6390   32.6650 C.3       9 GLL5        0.0000 
     68 CA         39.2182   28.3670   31.4715 C.3       3 GLC5        0.0000 
     69 CA         39.5900   27.1600   29.8250 C.3       6 GLP5        0.0000 
     70 CA         39.7073   30.8125   35.4375 C.3       3 GLC5        0.0000 
     71 CA         39.4710   31.7080   37.4340 C.3       6 GLP5        0.0000 
     72 CA         39.1435   32.3090   32.9748 C.3       3 GLC5        0.0000 
     73 CA         40.5060   30.3250   33.3110 C.3       9 GLL5        0.0000 
     74 CA         42.1340   33.4642   30.6165 C.3       3 GLC5        0.0000 
     75 CA         41.9110   31.9770   32.1760 C.3       9 GLL5        0.0000 
     76 CA         44.3122   30.0345   30.7280 C.3       3 GLC5        0.0000 
     77 CA         42.9870   31.5060   31.4480 C.3       9 GLL5        0.0000 
     78 CA         45.0250   28.2200   29.9990 C.3       6 GLP5        0.0000 
     79 CA         43.1623   31.9675   29.3575 C.3       3 GLC5        0.0000 
     80 CA         43.0625   33.9780   30.6375 C.3       3 GLC5        0.0000 
     81 CA         44.2120   32.1920   31.4660 C.3       9 GLL5        0.0000 
     82 CA         44.8165   31.8475   33.5840 C.3       3 GLC5        0.0000 
     83 CA         44.4000   33.3460   32.2420 C.3       9 GLL5        0.0000 
     84 CA         45.3270   30.9260   35.3140 C.3       6 GLP5        0.0000 
     85 CA         42.2635   34.3098   31.2020 C.3       3 GLC5        0.0000 
     86 CA         43.0750   32.7214   34.5770 C.3       3 GLC5        0.0000 
     87 CA         43.4890   32.2890   36.3660 C.3       6 GLP5        0.0000 
@<TRIPOS>BOND
@<TRIPOS>SUBSTRUCTURE
     1 ALC1       28 GROUP        1 X    ALC  0     ROOT ALC X 1
     2 SEC2       25 GROUP        1 X    SEC  0     **** SEC X 2
     3 GLC5        1 GROUP        1 X    GLC  0     **** GLC X 6
     4 ALP1       30 GROUP        1 Y    ALP  0     ROOT ALP Y 8
     5 SEP2       27 GROUP        1 Y    SEP  0     **** SEP Y 9
     6 GLP5        3 GROUP        1 Y    GLP  0     **** GLP Y 13
     7 ALL1       29 GROUP        1 Z    ALL  0     ROOT ALL Z 15
     8 SEL2       26 GROUP        1 Z    SEL  0     **** SEL Z 16
     9 GLL5        2 GROUP        1 Z    GLL  0     **** GLL Z 20
@<TRIPOS>SET

