#    Name: 3d7z_GK5_1_ligand
#    Modification time : Mon Mar 24 22:51:13 2014

@<TRIPOS>MOLECULE
3d7z_GK5_1_ligand
   50    53     1     0     0
SMALL
NO_CHARGES


@<TRIPOS>ATOM
      1 C9         39.6300   32.3090   30.1810 C.3       1 GK5401      0.0000 
      2 C22        36.9710   26.7190   36.5160 C.3       1 GK5401      0.0000 
      3 C21        38.0580   27.4050   37.2550 C.3       1 GK5401      0.0000 
      4 C18        38.3730   26.6660   35.9900 C.3       1 GK5401      0.0000 
      5 C26        49.0270   33.9270   30.3930 C.3       1 GK5401      0.0000 
      6 C25        50.1850   34.2140   31.2830 C.3       1 GK5401      0.0000 
      7 C24        48.8110   34.5300   31.7230 C.3       1 GK5401      0.0000 
      8 C4         39.5470   31.3350   31.3530 C.ar      1 GK5401      0.0000 
      9 C8         38.4080   30.5250   31.5890 C.ar      1 GK5401      0.0000 
     10 C13        38.3120   29.6390   32.6650 C.ar      1 GK5401      0.0000 
     11 C7         39.3810   29.5090   33.5710 C.ar      1 GK5401      0.0000 
     12 C12        39.4050   28.5850   34.7640 C.2       1 GK5401      0.0000 
     13 O16        40.2860   28.7210   35.6310 O.2       1 GK5401      0.0000 
     14 N15        38.4170   27.6230   34.9050 N.am      1 GK5401      0.0000 
     15 C3         40.5060   30.3250   33.3110 C.ar      1 GK5401      0.0000 
     16 C1         40.6100   31.2270   32.2260 C.ar      1 GK5401      0.0000 
     17 C2         41.9110   31.9770   32.1760 C.ar      1 GK5401      0.0000 
     18 C5         42.9870   31.5060   31.4480 C.ar      1 GK5401      0.0000 
     19 C10        44.2120   32.1920   31.4660 C.ar      1 GK5401      0.0000 
     20 C14        44.4000   33.3460   32.2420 C.ar      1 GK5401      0.0000 
     21 C11        43.3170   33.7730   33.0100 C.ar      1 GK5401      0.0000 
     22 C6         42.0990   33.0920   32.9560 C.ar      1 GK5401      0.0000 
     23 C17        45.6910   34.0920   32.3920 C.2       1 GK5401      0.0000 
     24 O20        45.7880   35.2700   32.7450 O.2       1 GK5401      0.0000 
     25 N19        46.7910   33.2990   32.2650 N.am      1 GK5401      0.0000 
     26 C23        48.1440   33.6290   32.7420 C.3       1 GK5401      0.0000 
     27 H          36.4857   27.3651   36.0101 H         1 GK5401      0.0000 
     28 H          36.7809   25.8895   36.9457 H         1 GK5401      0.0000 
     29 H          38.3211   26.8614   37.9926 H         1 GK5401      0.0000 
     30 H          38.0259   28.3370   37.0571 H         1 GK5401      0.0000 
     31 H          38.7461   25.8929   36.1385 H         1 GK5401      0.0000 
     32 H          48.8327   32.9940   30.4396 H         1 GK5401      0.0000 
     33 H          48.9773   34.6112   29.7298 H         1 GK5401      0.0000 
     34 H          50.6067   35.0154   30.9830 H         1 GK5401      0.0000 
     35 H          50.4620   33.3982   31.6927 H         1 GK5401      0.0000 
     36 H          48.6532   35.4665   31.6052 H         1 GK5401      0.0000 
     37 H          37.6071   30.6001   30.9223 H         1 GK5401      0.0000 
     38 H          37.4627   29.0802   32.7988 H         1 GK5401      0.0000 
     39 H          37.6463   27.5650   34.1979 H         1 GK5401      0.0000 
     40 H          41.3241   30.2569   33.9710 H         1 GK5401      0.0000 
     41 H          42.8998   30.6472   30.8855 H         1 GK5401      0.0000 
     42 H          44.9974   31.8366   30.8912 H         1 GK5401      0.0000 
     43 H          43.4153   34.5958   33.6212 H         1 GK5401      0.0000 
     44 H          41.3045   33.4527   33.5358 H         1 GK5401      0.0000 
     45 H          46.7101   32.3549   31.7881 H         1 GK5401      0.0000 
     46 H          48.0975   34.1499   33.6955 H         1 GK5401      0.0000 
     47 H          48.7400   32.7267   32.8577 H         1 GK5401      0.0000 
     48 H          40.5038   32.7949   30.1631 H         1 GK5401      0.0000 
     49 H          39.5366   31.8413   29.3021 H         1 GK5401      0.0000 
     50 H          38.9101   33.0019   30.2222 H         1 GK5401      0.0000 
@<TRIPOS>BOND
     1    8    1 1    
     2   48    1 1    
     3   49    1 1    
     4   50    1 1    
     5    3    2 1    
     6    4    2 1    
     7   27    2 1    
     8   28    2 1    
     9    4    3 1    
    10   29    3 1    
    11   30    3 1    
    12   14    4 1    
    13   31    4 1    
    14    6    5 1    
    15    7    5 1    
    16   32    5 1    
    17   33    5 1    
    18    7    6 1    
    19   34    6 1    
    20   35    6 1    
    21   26    7 1    
    22   36    7 1    
    23    9    8 ar   
    24   16    8 ar   
    25   10    9 ar   
    26   37    9 1    
    27   11   10 ar   
    28   38   10 1    
    29   12   11 1    
    30   15   11 ar   
    31   13   12 2    
    32   14   12 am   
    33   39   14 1    
    34   16   15 ar   
    35   40   15 1    
    36   17   16 1    
    37   18   17 ar   
    38   22   17 ar   
    39   19   18 ar   
    40   41   18 1    
    41   20   19 ar   
    42   42   19 1    
    43   21   20 ar   
    44   23   20 1    
    45   22   21 ar   
    46   43   21 1    
    47   44   22 1    
    48   24   23 2    
    49   25   23 am   
    50   26   25 1    
    51   45   25 1    
    52   46   26 1    
    53   47   26 1    
@<TRIPOS>SUBSTRUCTURE
     1 GK5401      1 GROUP   
@<TRIPOS>SET

