#    Name: 1llu_NAD_4_INTS_M
#    Modification time : Mon Apr  7 14:09:21 2014

@<TRIPOS>MOLECULE
1llu_NAD_4_INTS_M
  110     0     9     0     0
SMALL
NO_CHARGES


@<TRIPOS>ATOM
      1 N          28.5085   43.9295   71.6245 N.am      2 SEC2        0.0000 
      2 N          28.3680   44.4400   73.0130 N.am      8 SEL2        0.0000 
      3 N          28.6490   43.4190   70.2360 N.am      5 SEP2        0.0000 
      4 CA         30.9500   40.5230   73.4920 C.3       3 GLC5        0.0000 
      5 CA         29.5420   41.2980   74.8840 C.3       9 GLL5        0.0000 
      6 CA         32.3580   39.7480   72.1000 C.3       6 GLP5        0.0000 
      7 CA         31.0135   41.7430   76.3865 C.3       3 GLC5        0.0000 
      8 CA         32.4850   42.1880   77.8890 C.3       6 GLP5        0.0000 
      9 CA         29.0285   38.2725   73.8950 C.3       3 GLC5        0.0000 
     10 CA         28.6490   40.1050   74.6710 C.3       9 GLL5        0.0000 
     11 CA         29.4080   36.4400   73.1190 C.3       6 GLP5        0.0000 
     12 CA         27.2825   40.8675   72.9140 C.3       3 GLC5        0.0000 
     13 CA         27.1050   40.3190   74.9210 C.3       9 GLL5        0.0000 
     14 CA         27.4600   41.4160   70.9070 C.3       6 GLP5        0.0000 
     15 CA         25.1340   40.6975   74.4515 C.3       3 GLC5        0.0000 
     16 CA         23.1630   41.0760   73.9820 C.3       6 GLP5        0.0000 
     17 N          25.2100   41.0305   73.4225 N.am      2 SEC2        0.0000 
     18 N          26.3490   40.1390   73.6900 N.am      8 SEL2        0.0000 
     19 N          24.0710   41.9220   73.1550 N.am      5 SEP2        0.0000 
     20 O          25.9725   38.6055   73.5050 O.2       1 ALC1        0.0000 
     21 O          26.3490   40.1390   73.6900 O.2       7 ALL1        0.0000 
     22 O          25.5960   37.0720   73.3200 O.2       4 ALP1        0.0000 
     23 CA         24.9125   39.4940   74.7590 C.3       3 GLC5        0.0000 
     24 CA         26.7290   39.3460   76.0430 C.3       9 GLL5        0.0000 
     25 CA         23.0960   39.6420   73.4750 C.3       6 GLP5        0.0000 
     26 O          24.9245   37.7775   75.5955 O.2       1 ALC1        0.0000 
     27 O          25.4430   38.8080   76.0690 O.2       7 ALL1        0.0000 
     28 O          24.4060   36.7470   75.1220 O.2       4 ALP1        0.0000 
     29 O          25.5195   37.9400   74.6945 O.2       1 ALC1        0.0000 
     30 CA         28.6410   37.3775   74.5205 C.3       3 GLC5        0.0000 
     31 CA         27.8740   38.3150   75.9220 C.3       9 GLL5        0.0000 
     32 CA         30.6245   34.2115   79.0080 C.3       3 GLC5        0.0000 
     33 CA         28.6950   34.4790   79.0270 C.3       9 GLL5        0.0000 
     34 CA         32.5540   33.9440   78.9890 C.3       6 GLP5        0.0000 
     35 O          29.8690   34.9500   81.3820 O.2       1 ALC1        0.0000 
     36 O          28.8710   34.0910   80.2830 O.2       7 ALL1        0.0000 
     37 O          30.8670   35.8090   82.4810 O.2       4 ALP1        0.0000 
     38 CA         28.9680   35.1815   74.8870 C.3       3 GLC5        0.0000 
     39 CA         28.5280   33.9230   76.6550 C.3       9 GLL5        0.0000 
     40 CA         28.2595   32.1925   75.7450 C.3       3 GLC5        0.0000 
     41 CA         27.9910   30.4620   74.8350 C.3       6 GLP5        0.0000 
     42 CA         26.9935   33.9120   75.6575 C.3       3 GLC5        0.0000 
     43 CA         25.4590   33.9010   74.6600 C.3       6 GLP5        0.0000 
     44 CA         26.7705   34.1220   77.9430 C.3       3 GLC5        0.0000 
     45 CA         25.0130   34.3210   79.2310 C.3       6 GLP5        0.0000 
     46 CA         30.2185   35.2635   76.8155 C.3       3 GLC5        0.0000 
     47 CA         31.9090   36.6040   76.9760 C.3       6 GLP5        0.0000 
     48 CA         28.8500   36.3210   75.1960 C.3       3 GLC5        0.0000 
     49 CA         28.2920   36.2020   77.2730 C.3       9 GLL5        0.0000 
     50 CA         26.8755   35.0515   75.9665 C.3       3 GLC5        0.0000 
     51 N          31.4145   43.1310   70.1095 N.am      2 SEC2        0.0000 
     52 N          31.6780   43.2910   71.3660 N.am      8 SEL2        0.0000 
     53 N          31.1510   42.9710   68.8530 N.am      5 SEP2        0.0000 
     54 CA         34.1870   45.5795   76.6955 C.3       3 GLC5        0.0000 
     55 CA         35.2310   44.1000   75.9550 C.3       9 GLL5        0.0000 
     56 CA         33.1430   47.0590   77.4360 C.3       6 GLP5        0.0000 
     57 N          37.1790   42.6610   76.8520 N.am      2 SEC2        0.0000 
     58 N          35.9120   43.2120   76.8570 N.am      8 SEL2        0.0000 
     59 N          38.4460   42.1100   76.8470 N.am      5 SEP2        0.0000 
     60 CA         34.4965   46.1965   75.0760 C.3       3 GLC5        0.0000 
     61 CA         36.1950   45.0810   75.2770 C.3       9 GLL5        0.0000 
     62 CA         32.7980   47.3120   74.8750 C.3       6 GLP5        0.0000 
     63 CA         36.3425   46.4725   76.7575 C.3       3 GLC5        0.0000 
     64 CA         36.4900   47.8640   78.2380 C.3       6 GLP5        0.0000 
     65 CA         38.0320   44.5620   76.2930 C.3       3 GLC5        0.0000 
     66 CA         39.8690   44.0430   77.3090 C.3       6 GLP5        0.0000 
     67 N          37.6445   46.9590   75.1860 N.am      2 SEC2        0.0000 
     68 N          37.1770   45.5860   76.1340 N.am      8 SEL2        0.0000 
     69 N          38.1120   48.3320   74.2380 N.am      5 SEP2        0.0000 
     70 CA         37.1845   42.3575   74.6425 C.3       3 GLC5        0.0000 
     71 CA         36.7390   44.2130   74.0810 C.3       9 GLL5        0.0000 
     72 CA         37.6300   40.5020   75.2040 C.3       6 GLP5        0.0000 
     73 CA         38.7735   44.7965   74.7535 C.3       3 GLC5        0.0000 
     74 CA         40.8080   45.3800   75.4260 C.3       6 GLP5        0.0000 
     75 N          42.2565   44.5065   69.2750 N.am      2 SEC2        0.0000 
     76 N          41.4030   44.6810   70.3060 N.am      8 SEL2        0.0000 
     77 N          43.1100   44.3320   68.2440 N.am      5 SEP2        0.0000 
     78 O          40.1990   42.1870   72.4700 O.2       1 ALC1        0.0000 
     79 O          40.9550   42.8490   71.5500 O.2       7 ALL1        0.0000 
     80 O          39.4430   41.5250   73.3900 O.2       4 ALP1        0.0000 
     81 O          41.9965   41.8775   71.0240 O.2       1 ALC1        0.0000 
     82 O          43.0380   40.9060   70.4980 O.2       4 ALP1        0.0000 
     83 CA         40.2855   46.3720   69.1865 C.3       3 GLC5        0.0000 
     84 CA         38.5810   45.5360   70.3560 C.3       9 GLL5        0.0000 
     85 CA         41.9900   47.2080   68.0170 C.3       6 GLP5        0.0000 
     86 CA         35.2820   44.9855   70.7245 C.3       3 GLC5        0.0000 
     87 CA         36.6300   45.5780   71.9480 C.3       9 GLL5        0.0000 
     88 CA         33.9340   44.3930   69.5010 C.3       6 GLP5        0.0000 
     89 CA         28.2778   41.0587   72.8423 C.3       3 GLC5        0.0000 
     90 CA         29.8925   35.8907   80.0973 C.3       3 GLC5        0.0000 
     91 CA         28.4730   35.8880   78.6520 C.3       9 GLL5        0.0000 
     92 CA         31.2010   36.5980   81.3550 C.3       6 GLP5        0.0000 
     93 CA         26.7255   35.0069   78.6436 C.3       3 GLC5        0.0000 
     94 CA         30.1735   36.1484   77.5161 C.3       3 GLC5        0.0000 
     95 CA         33.3490   45.4365   74.7445 C.3       3 GLC5        0.0000 
     96 CA         33.2070   43.7930   74.4800 C.3       9 GLL5        0.0000 
     97 CA         36.2710   42.1082   75.2777 C.3       3 GLC5        0.0000 
     98 CA         34.5930   43.3290   74.7480 C.3       9 GLL5        0.0000 
     99 CA         33.5252   43.0093   76.5867 C.3       3 GLC5        0.0000 
    100 CA         39.9027   44.9825   73.7190 C.3       3 GLC5        0.0000 
    101 CA         38.7190   44.4900   72.6180 C.3       9 GLL5        0.0000 
    102 CA         37.9467   46.9445   69.2067 C.3       3 GLC5        0.0000 
    103 CA         38.0590   48.3550   67.9380 C.3       6 GLP5        0.0000 
    104 CA         36.7278   44.0480   70.1447 C.3       3 GLC5        0.0000 
    105 CA         35.6210   42.5620   69.8140 C.3       6 GLP5        0.0000 
    106 CA         36.0395   47.1735   71.1483 C.3       3 GLC5        0.0000 
    107 CA         37.0880   45.5320   70.5950 C.3       9 GLL5        0.0000 
    108 CA         35.2200   48.7920   71.0250 C.3       6 GLP5        0.0000 
    109 CA         38.5396   44.0175   69.5100 C.3       3 GLC5        0.0000 
    110 CA         39.0710   42.7150   68.2820 C.3       6 GLP5        0.0000 
@<TRIPOS>BOND
@<TRIPOS>SUBSTRUCTURE
     1 ALC1       20 GROUP        1 X    ALC  0     ROOT ALC X 1
     2 SEC2        1 GROUP        1 X    SEC  0     **** SEC X 2
     3 GLC5        4 GROUP        1 X    GLC  0     **** GLC X 6
     4 ALP1       22 GROUP        1 Y    ALP  0     ROOT ALP Y 8
     5 SEP2        3 GROUP        1 Y    SEP  0     **** SEP Y 9
     6 GLP5        6 GROUP        1 Y    GLP  0     **** GLP Y 13
     7 ALL1       21 GROUP        1 Z    ALL  0     ROOT ALL Z 15
     8 SEL2        2 GROUP        1 Z    SEL  0     **** SEL Z 16
     9 GLL5        5 GROUP        1 Z    GLL  0     **** GLL Z 20
@<TRIPOS>SET

