#    Name: 1llu_NAD_4_ligand
#    Modification time : Mon Apr  7 14:09:21 2014

@<TRIPOS>MOLECULE
1llu_NAD_4_ligand
   70    74     1     0     0
SMALL
NO_CHARGES


@<TRIPOS>ATOM
      1 PA         29.2380   43.8480   74.0670 P.3       1 NAD1253     0.0000 
      2 O1A        28.3680   44.4400   73.0130 O.co2     1 NAD1253     0.0000 
      3 O2A        29.0210   44.2360   75.5060 O.co2     1 NAD1253     0.0000 
      4 O5B        29.1320   42.2750   73.8750 O.3       1 NAD1253     0.0000 
      5 C5B        29.5420   41.2980   74.8840 C.3       1 NAD1253     0.0000 
      6 C4B        28.6490   40.1050   74.6710 C.3       1 NAD1253     0.0000 
      7 O4B        29.0390   39.0780   75.6650 O.3       1 NAD1253     0.0000 
      8 C3B        27.1050   40.3190   74.9210 C.3       1 NAD1253     0.0000 
      9 O3B        26.3490   40.1390   73.6900 O.3       1 NAD1253     0.0000 
     10 C2B        26.7290   39.3460   76.0430 C.3       1 NAD1253     0.0000 
     11 O2B        25.4430   38.8080   76.0690 O.3       1 NAD1253     0.0000 
     12 C1B        27.8740   38.3150   75.9220 C.3       1 NAD1253     0.0000 
     13 N9A        28.0980   37.5960   77.1750 N.pl3     1 NAD1253     0.0000 
     14 C8A        28.1810   38.0090   78.5090 C.2       1 NAD1253     0.0000 
     15 N7A        28.3970   37.0200   79.3640 N.2       1 NAD1253     0.0000 
     16 C5A        28.4730   35.8880   78.6520 C.ar      1 NAD1253     0.0000 
     17 C6A        28.6950   34.4790   79.0270 C.ar      1 NAD1253     0.0000 
     18 N6A        28.8710   34.0910   80.2830 N.pl3     1 NAD1253     0.0000 
     19 N1A        28.7030   33.5920   77.9540 N.ar      1 NAD1253     0.0000 
     20 C2A        28.5280   33.9230   76.6550 C.ar      1 NAD1253     0.0000 
     21 N3A        28.3130   35.2470   76.2440 N.ar      1 NAD1253     0.0000 
     22 C4A        28.2920   36.2020   77.2730 C.ar      1 NAD1253     0.0000 
     23 O3         30.7610   44.1810   73.7420 O.3       1 NAD1253     0.0000 
     24 PN         31.5890   44.3980   72.3400 P.3       1 NAD1253     0.0000 
     25 O1N        31.6780   43.2910   71.3660 O.co2     1 NAD1253     0.0000 
     26 O2N        32.5730   45.5440   72.4080 O.co2     1 NAD1253     0.0000 
     27 O5D        32.6680   43.4190   73.1630 O.3       1 NAD1253     0.0000 
     28 C5D        33.2070   43.7930   74.4800 C.3       1 NAD1253     0.0000 
     29 C4D        34.5930   43.3290   74.7480 C.3       1 NAD1253     0.0000 
     30 O4D        35.5200   43.5910   73.5770 O.3       1 NAD1253     0.0000 
     31 C3D        35.2310   44.1000   75.9550 C.3       1 NAD1253     0.0000 
     32 O3D        35.9120   43.2120   76.8570 O.3       1 NAD1253     0.0000 
     33 C2D        36.1950   45.0810   75.2770 C.3       1 NAD1253     0.0000 
     34 O2D        37.1770   45.5860   76.1340 O.3       1 NAD1253     0.0000 
     35 C1D        36.7390   44.2130   74.0810 C.3       1 NAD1253     0.0000 
     36 N1N        37.4510   45.0600   73.0410 N.pl3     1 NAD1253     0.0000 
     37 C2N        38.7190   44.4900   72.6180 C.ar      1 NAD1253     0.0000 
     38 C3N        39.2760   44.6800   71.4060 C.ar      1 NAD1253     0.0000 
     39 C7N        40.6270   44.0490   71.0510 C.2       1 NAD1253     0.0000 
     40 O7N        41.4030   44.6810   70.3060 O.2       1 NAD1253     0.0000 
     41 N7N        40.9550   42.8490   71.5500 N.am      1 NAD1253     0.0000 
     42 C4N        38.5810   45.5360   70.3560 C.ar      1 NAD1253     0.0000 
     43 C5N        37.0880   45.5320   70.5950 C.ar      1 NAD1253     0.0000 
     44 C6N        36.6300   45.5780   71.9480 C.ar      1 NAD1253     0.0000 
     45 H          29.3896   41.6828   75.8778 H         1 NAD1253     0.0000 
     46 H          30.5677   41.0038   74.7416 H         1 NAD1253     0.0000 
     47 H          28.7725   39.6949   73.6931 H         1 NAD1253     0.0000 
     48 H          27.0098   41.3276   75.3100 H         1 NAD1253     0.0000 
     49 H          26.9844   39.9005   76.9872 H         1 NAD1253     0.0000 
     50 H          27.6547   37.6598   75.1243 H         1 NAD1253     0.0000 
     51 H          28.0814   38.9700   78.7551 H         1 NAD1253     0.0000 
     52 H          28.8331   34.8114   80.9755 H         1 NAD1253     0.0000 
     53 H          29.0257   33.1131   80.4239 H         1 NAD1253     0.0000 
     54 H          28.5499   33.1820   75.9142 H         1 NAD1253     0.0000 
     55 H          32.5339   43.4005   75.2817 H         1 NAD1253     0.0000 
     56 H          33.1704   44.9045   74.5941 H         1 NAD1253     0.0000 
     57 H          34.6236   42.2879   74.9879 H         1 NAD1253     0.0000 
     58 H          34.4520   44.6640   76.4104 H         1 NAD1253     0.0000 
     59 H          35.5697   45.8425   74.8130 H         1 NAD1253     0.0000 
     60 H          37.3860   43.4831   74.5021 H         1 NAD1253     0.0000 
     61 H          39.2059   43.8907   73.3421 H         1 NAD1253     0.0000 
     62 H          40.2834   42.4273   72.1592 H         1 NAD1253     0.0000 
     63 H          41.8419   42.4829   71.2684 H         1 NAD1253     0.0000 
     64 H          39.0066   45.9821   69.6856 H         1 NAD1253     0.0000 
     65 H          36.4821   45.4981   69.8180 H         1 NAD1253     0.0000 
     66 H          35.7190   45.9753   72.1687 H         1 NAD1253     0.0000 
     67 H          26.1665   39.1571   73.6398 H         1 NAD1253     0.0000 
     68 H          25.4967   37.9821   75.5078 H         1 NAD1253     0.0000 
     69 H          35.4385   43.3183   77.7313 H         1 NAD1253     0.0000 
     70 H          37.1943   44.9538   76.9086 H         1 NAD1253     0.0000 
@<TRIPOS>BOND
     1    2    1 ar   
     2    3    1 ar   
     3    4    1 1    
     4   23    1 1    
     5    5    4 1    
     6    6    5 1    
     7   45    5 1    
     8   46    5 1    
     9    7    6 1    
    10    8    6 1    
    11   47    6 1    
    12   12    7 1    
    13    9    8 1    
    14   10    8 1    
    15   48    8 1    
    16   67    9 1    
    17   11   10 1    
    18   12   10 1    
    19   49   10 1    
    20   68   11 1    
    21   13   12 1    
    22   50   12 1    
    23   14   13 1    
    24   22   13 1    
    25   15   14 2    
    26   51   14 1    
    27   16   15 1    
    28   17   16 ar   
    29   22   16 ar   
    30   18   17 1    
    31   19   17 ar   
    32   52   18 1    
    33   53   18 1    
    34   20   19 ar   
    35   21   20 ar   
    36   54   20 1    
    37   22   21 ar   
    38   24   23 1    
    39   25   24 ar   
    40   26   24 ar   
    41   27   24 1    
    42   28   27 1    
    43   29   28 1    
    44   55   28 1    
    45   56   28 1    
    46   30   29 1    
    47   31   29 1    
    48   57   29 1    
    49   35   30 1    
    50   32   31 1    
    51   33   31 1    
    52   58   31 1    
    53   69   32 1    
    54   34   33 1    
    55   35   33 1    
    56   59   33 1    
    57   70   34 1    
    58   36   35 1    
    59   60   35 1    
    60   37   36 ar   
    61   44   36 ar   
    62   38   37 ar   
    63   61   37 1    
    64   39   38 1    
    65   42   38 ar   
    66   40   39 2    
    67   41   39 am   
    68   62   41 1    
    69   63   41 1    
    70   43   42 ar   
    71   64   42 1    
    72   44   43 ar   
    73   65   43 1    
    74   66   44 1    
@<TRIPOS>SUBSTRUCTURE
     1 NAD1253     1 GROUP   
@<TRIPOS>SET

