#    Name: 3e65_XXZ_1_INTS_M
#    Modification time : Tue Mar 25 00:57:56 2014

@<TRIPOS>MOLECULE
3e65_XXZ_1_INTS_M
   40     0     6     0     0
SMALL
NO_CHARGES


@<TRIPOS>ATOM
      1 CA        127.3670  117.0585   30.1005 C.3       2 GLC5        0.0000 
      2 CA        126.6340  115.2570   30.7660 C.3       6 GLL5        0.0000 
      3 CA        128.1000  118.8600   29.4350 C.3       4 GLP5        0.0000 
      4 CA        128.7800  113.0935   31.5480 C.3       2 GLC5        0.0000 
      5 CA        126.6950  112.9070   30.9980 C.3       6 GLL5        0.0000 
      6 CA        130.8650  113.2800   32.0980 C.3       4 GLP5        0.0000 
      7 O         122.5530  116.3180   33.6630 O.2       1 ALC1        0.0000 
      8 O         123.6540  115.6050   33.7810 O.2       5 ALL1        0.0000 
      9 O         121.4520  117.0310   33.5450 O.2       3 ALP1        0.0000 
     10 O         125.0375  117.3265   30.6455 O.2       1 ALC1        0.0000 
     11 O         124.2680  116.5180   31.7490 O.2       5 ALL1        0.0000 
     12 O         125.8070  118.1350   29.5420 O.2       3 ALP1        0.0000 
     13 O         122.8600  116.7745   32.6470 O.2       1 ALC1        0.0000 
     14 O         123.2040  117.3765   31.7945 O.2       1 ALC1        0.0000 
     15 O         122.1400  118.2350   31.8400 O.2       3 ALP1        0.0000 
     16 CA        124.7285  118.1735   36.1930 C.3       2 GLC5        0.0000 
     17 CA        124.7730  116.2060   36.4460 C.3       6 GLL5        0.0000 
     18 CA        124.6840  120.1410   35.9400 C.3       4 GLP5        0.0000 
     19 CA        125.3725  112.6915   35.7350 C.3       2 GLC5        0.0000 
     20 CA        124.9760  114.8550   35.7220 C.3       6 GLL5        0.0000 
     21 CA        125.7690  110.5280   35.7480 C.3       4 GLP5        0.0000 
     22 CA        117.9885  116.7570   43.0575 C.3       2 GLC5        0.0000 
     23 CA        119.1470  115.2970   42.0110 C.3       6 GLL5        0.0000 
     24 CA        116.8300  118.2170   44.1040 C.3       4 GLP5        0.0000 
     25 CA        127.0403  116.3783   31.9647 C.3       2 GLC5        0.0000 
     26 CA        126.1970  114.1600   31.3770 C.3       6 GLL5        0.0000 
     27 CA        127.6650  118.0480   32.8580 C.3       4 GLP5        0.0000 
     28 CA        128.0091  114.5499   30.1314 C.3       2 GLC5        0.0000 
     29 CA        129.4630  115.2920   29.2280 C.3       4 GLP5        0.0000 
     30 CA        125.5341  111.4959   34.1700 C.3       2 GLC5        0.0000 
     31 CA        124.8190  113.1220   33.0390 C.3       6 GLL5        0.0000 
     32 CA        125.8320  116.2615   33.2848 C.3       2 GLC5        0.0000 
     33 CA        125.2510  114.3060   32.3970 C.3       6 GLL5        0.0000 
     34 CA        126.8640  117.6120   34.0660 C.3       4 GLP5        0.0000 
     35 CA        125.7147  116.5362   34.9609 C.3       2 GLC5        0.0000 
     36 CA        124.0037  114.4795   39.8017 C.3       2 GLC5        0.0000 
     37 CA        122.5580  116.0020   39.5190 C.3       6 GLL5        0.0000 
     38 CA        125.7780  113.5880   40.1130 C.3       4 GLP5        0.0000 
     39 CA        123.2578  116.6626   41.7933 C.3       2 GLC5        0.0000 
     40 CA        124.4560  116.8680   43.4360 C.3       4 GLP5        0.0000 
@<TRIPOS>BOND
@<TRIPOS>SUBSTRUCTURE
     1 ALC1        7 GROUP        1 X    ALC  0     ROOT ALC X 1
     2 GLC5        1 GROUP        1 X    GLC  0     **** GLC X 6
     3 ALP1        9 GROUP        1 Y    ALP  0     ROOT ALP Y 8
     4 GLP5        3 GROUP        1 Y    GLP  0     **** GLP Y 13
     5 ALL1        8 GROUP        1 Z    ALL  0     ROOT ALL Z 15
     6 GLL5        2 GROUP        1 Z    GLL  0     **** GLL Z 20
@<TRIPOS>SET

