#    Name: 3e65_XXZ_1_ligand
#    Modification time : Tue Mar 25 00:57:56 2014

@<TRIPOS>MOLECULE
3e65_XXZ_1_ligand
   51    54     1     0     0
SMALL
NO_CHARGES


@<TRIPOS>ATOM
      1 F1        126.6340  115.2570   30.7660 F         1 XXZ906      0.0000 
      2 C2        126.1970  114.1600   31.3770 C.ar      1 XXZ906      0.0000 
      3 C3        126.6950  112.9070   30.9980 C.ar      1 XXZ906      0.0000 
      4 C4        126.2520  111.7520   31.6320 C.ar      1 XXZ906      0.0000 
      5 C1        125.3070  111.8590   32.6580 C.ar      1 XXZ906      0.0000 
      6 C6        124.8190  113.1220   33.0390 C.ar      1 XXZ906      0.0000 
      7 C7        125.2510  114.3060   32.3970 C.ar      1 XXZ906      0.0000 
      8 CG        124.3490  115.5160   32.6100 C.2       1 XXZ906      0.0000 
      9 N20       123.6540  115.6050   33.7810 N.pl3     1 XXZ906      0.0000 
     10 N21       124.2680  116.5180   31.7490 N.pl3     1 XXZ906      0.0000 
     11 N1        123.7870  113.3060   34.1920 N.pl3     1 XXZ906      0.0000 
     12 C5        123.7400  114.5750   34.8090 C.3       1 XXZ906      0.0000 
     13 C10       122.5480  114.4450   35.7160 C.3       1 XXZ906      0.0000 
     14 C11       122.3550  115.7290   36.5400 C.3       1 XXZ906      0.0000 
     15 N12       123.6030  116.0510   37.2970 N.am      1 XXZ906      0.0000 
     16 C13       124.7730  116.2060   36.4460 C.3       1 XXZ906      0.0000 
     17 C14       124.9760  114.8550   35.7220 C.3       1 XXZ906      0.0000 
     18 C15       123.7340  116.2030   38.6680 C.2       1 XXZ906      0.0000 
     19 O16       124.8240  116.4910   39.1680 O.2       1 XXZ906      0.0000 
     20 C18       122.1230  117.0280   40.3720 C.ar      1 XXZ906      0.0000 
     21 NH        118.2950  114.2250   41.4820 N.4       1 XXZ906      0.0000 
     22 CB        119.1470  115.2970   42.0110 C.3       1 XXZ906      0.0000 
     23 C8        120.3450  115.5460   41.1330 C.ar      1 XXZ906      0.0000 
     24 CD1       120.7850  114.5130   40.2760 C.ar      1 XXZ906      0.0000 
     25 CE1       121.9010  114.7400   39.4620 C.ar      1 XXZ906      0.0000 
     26 CD2       120.9990  116.7970   41.1920 C.ar      1 XXZ906      0.0000 
     27 CZ        122.5580  116.0020   39.5190 C.ar      1 XXZ906      0.0000 
     28 H         127.3939  112.8459   30.2441 H         1 XXZ906      0.0000 
     29 H         126.6088  110.8365   31.3558 H         1 XXZ906      0.0000 
     30 H         124.9675  111.0176   33.1350 H         1 XXZ906      0.0000 
     31 H         123.0367  116.4123   33.9828 H         1 XXZ906      0.0000 
     32 H         123.6087  117.2364   31.9707 H         1 XXZ906      0.0000 
     33 H         124.8735  116.4658   30.9548 H         1 XXZ906      0.0000 
     34 H         123.2309  112.5392   34.4255 H         1 XXZ906      0.0000 
     35 H         122.6892  113.6096   36.4004 H         1 XXZ906      0.0000 
     36 H         121.6485  114.2702   35.1274 H         1 XXZ906      0.0000 
     37 H         121.5247  115.5774   37.2283 H         1 XXZ906      0.0000 
     38 H         122.1054  116.5425   35.8603 H         1 XXZ906      0.0000 
     39 H         125.6609  116.4124   37.0219 H         1 XXZ906      0.0000 
     40 H         124.6235  116.9668   35.6966 H         1 XXZ906      0.0000 
     41 H         125.8579  114.9050   35.1084 H         1 XXZ906      0.0000 
     42 H         125.0578  114.0665   36.4488 H         1 XXZ906      0.0000 
     43 H         122.6053  117.9193   40.4006 H         1 XXZ906      0.0000 
     44 H         119.4983  115.0399   43.0237 H         1 XXZ906      0.0000 
     45 H         118.5717  116.2332   42.0978 H         1 XXZ906      0.0000 
     46 H         120.2965  113.6235   40.2550 H         1 XXZ906      0.0000 
     47 H         122.2465  114.0199   38.8344 H         1 XXZ906      0.0000 
     48 H         120.6620  117.5223   41.8193 H         1 XXZ906      0.0000 
     49 H         118.7899  113.3591   41.4090 H         1 XXZ906      0.0000 
     50 H         117.5002  114.0600   42.0660 H         1 XXZ906      0.0000 
     51 H         117.9483  114.4423   40.5696 H         1 XXZ906      0.0000 
@<TRIPOS>BOND
     1    2    1 1    
     2    3    2 ar   
     3    7    2 ar   
     4    4    3 ar   
     5   28    3 1    
     6    5    4 ar   
     7   29    4 1    
     8    6    5 ar   
     9   30    5 1    
    10    7    6 ar   
    11   11    6 1    
    12    8    7 1    
    13    9    8 1    
    14   10    8 2    
    15   12    9 1    
    16   31    9 1    
    17   32   10 1    
    18   33   10 1    
    19   12   11 1    
    20   34   11 1    
    21   13   12 1    
    22   17   12 1    
    23   14   13 1    
    24   35   13 1    
    25   36   13 1    
    26   15   14 1    
    27   37   14 1    
    28   38   14 1    
    29   16   15 1    
    30   18   15 am   
    31   17   16 1    
    32   39   16 1    
    33   40   16 1    
    34   41   17 1    
    35   42   17 1    
    36   19   18 2    
    37   27   18 1    
    38   26   20 ar   
    39   27   20 ar   
    40   43   20 1    
    41   22   21 1    
    42   49   21 1    
    43   50   21 1    
    44   51   21 1    
    45   23   22 1    
    46   44   22 1    
    47   45   22 1    
    48   24   23 ar   
    49   26   23 ar   
    50   25   24 ar   
    51   46   24 1    
    52   27   25 ar   
    53   47   25 1    
    54   48   26 1    
@<TRIPOS>SUBSTRUCTURE
     1 XXZ906      1 GROUP   
@<TRIPOS>SET

