#    Name: 1ydr_IQP_1_INTS_M
#    Modification time : Mon Apr  7 15:41:39 2014

@<TRIPOS>MOLECULE
1ydr_IQP_1_INTS_M
   51     0     6     0     0
SMALL
NO_CHARGES


@<TRIPOS>ATOM
      1 CA          8.1000   11.6985    1.9075 C.3       2 GLC5        0.0000 
      2 CA          7.2230    9.9710    1.8620 C.3       6 GLL5        0.0000 
      3 CA          8.9770   13.4260    1.9530 C.3       4 GLP5        0.0000 
      4 CA          7.0030    8.1410    0.7670 C.3       2 GLC5        0.0000 
      5 CA          6.7830    6.3110   -0.3280 C.3       4 GLP5        0.0000 
      6 CA          5.7170   11.1540   -0.6470 C.3       2 GLC5        0.0000 
      7 CA          6.2060   10.0250    0.8770 C.3       6 GLL5        0.0000 
      8 CA          5.2280   12.2830   -2.1710 C.3       4 GLP5        0.0000 
      9 CA          3.5690    8.4585    0.4430 C.3       2 GLC5        0.0000 
     10 CA          4.8490   10.0170    1.2990 C.3       6 GLL5        0.0000 
     11 CA          2.2890    6.9000   -0.4130 C.3       4 GLP5        0.0000 
     12 CA          4.5470   10.4925   -0.6375 C.3       2 GLC5        0.0000 
     13 CA          4.2450   10.9680   -2.5740 C.3       4 GLP5        0.0000 
     14 CA          1.3140   10.5300    3.6590 C.3       2 GLC5        0.0000 
     15 CA          3.1660    9.9490    3.1070 C.3       6 GLL5        0.0000 
     16 CA         -0.5380   11.1110    4.2110 C.3       4 GLP5        0.0000 
     17 CA          1.8335    8.3360    3.1170 C.3       2 GLC5        0.0000 
     18 CA          0.5010    6.7230    3.1270 C.3       4 GLP5        0.0000 
     19 N           1.5155    9.3990    4.7055 N.am      1 SEC2        0.0000 
     20 N           2.8850    9.8900    4.4240 N.am      5 SEL2        0.0000 
     21 N           0.1460    8.9080    4.9870 N.am      3 SEP2        0.0000 
     22 CA          1.8980    8.6900    5.4315 C.3       2 GLC5        0.0000 
     23 CA          3.8100    9.8370    5.4060 C.3       6 GLL5        0.0000 
     24 CA         -0.0140    7.5430    5.4570 C.3       4 GLP5        0.0000 
     25 CA          9.8805   11.6100    2.8600 C.3       2 GLC5        0.0000 
     26 CA         10.7840    9.7940    3.7670 C.3       6 GLL5        0.0000 
     27 CA         10.3970    4.9990    2.2915 C.3       2 GLC5        0.0000 
     28 CA         10.3790    6.9420    2.8730 C.3       6 GLL5        0.0000 
     29 CA         10.4150    3.0560    1.7100 C.3       4 GLP5        0.0000 
     30 CA          7.7180    6.6945    4.6160 C.3       2 GLC5        0.0000 
     31 CA          9.3930    7.6540    3.8060 C.3       6 GLL5        0.0000 
     32 CA          6.0430    5.7350    5.4260 C.3       4 GLP5        0.0000 
     33 CA          6.6640   11.8323    3.5225 C.3       2 GLC5        0.0000 
     34 CA          6.9220    9.9070    3.2590 C.3       6 GLL5        0.0000 
     35 CA          7.0950   13.7600    3.5750 C.3       4 GLP5        0.0000 
     36 CA          5.5140    8.2043    3.4425 C.3       2 GLC5        0.0000 
     37 CA          4.7950    6.5040    3.4150 C.3       4 GLP5        0.0000 
     38 CA          5.2324    8.1260    1.0892 C.3       2 GLC5        0.0000 
     39 CA          4.5100    9.9570    2.6830 C.3       6 GLL5        0.0000 
     40 CA          5.4460    6.2630    0.2930 C.3       4 GLP5        0.0000 
     41 CA          4.3589    8.2360    2.9820 C.3       2 GLC5        0.0000 
     42 CA          4.6230   11.7063    6.0025 C.3       2 GLC5        0.0000 
     43 CA          5.1500    9.8420    5.0600 C.3       6 GLL5        0.0000 
     44 CA          4.7660   13.5730    6.7720 C.3       4 GLP5        0.0000 
     45 CA          3.8100   11.4823    4.0360 C.3       2 GLC5        0.0000 
     46 CA          3.1400   13.1250    2.8390 C.3       4 GLP5        0.0000 
     47 CA          4.6375    8.1717    4.3240 C.3       2 GLC5        0.0000 
     48 CA          3.9367   11.5300    2.9770 C.3       2 GLC5        0.0000 
     49 CA          5.5440    9.9020    3.6810 C.3       6 GLL5        0.0000 
     50 CA         11.1958   11.1907    5.5385 C.3       2 GLC5        0.0000 
     51 CA         11.3630   12.6550    6.5790 C.3       4 GLP5        0.0000 
@<TRIPOS>BOND
@<TRIPOS>SUBSTRUCTURE
     1 SEC2       19 GROUP        1 X    SEC  0     ROOT SEC X 2
     2 GLC5        1 GROUP        1 X    GLC  0     **** GLC X 6
     3 SEP2       21 GROUP        1 Y    SEP  0     ROOT SEP Y 9
     4 GLP5        3 GROUP        1 Y    GLP  0     **** GLP Y 13
     5 SEL2       20 GROUP        1 Z    SEL  0     ROOT SEL Z 16
     6 GLL5        2 GROUP        1 Z    GLL  0     **** GLL Z 20
@<TRIPOS>SET

