#    Name: 1ydr_IQP_1_ligand
#    Modification time : Mon Apr  7 15:41:39 2014

@<TRIPOS>MOLECULE
1ydr_IQP_1_ligand
   36    38     1     0     0
SMALL
NO_CHARGES


@<TRIPOS>ATOM
      1 C1          6.9220    9.9070    3.2590 C.ar      1 IQP351      0.0000 
      2 C2          7.2230    9.9710    1.8620 C.ar      1 IQP351      0.0000 
      3 C3          6.2060   10.0250    0.8770 C.ar      1 IQP351      0.0000 
      4 C4          4.8490   10.0170    1.2990 C.ar      1 IQP351      0.0000 
      5 C5          4.5100    9.9570    2.6830 C.ar      1 IQP351      0.0000 
      6 C6          3.1660    9.9490    3.1070 C.ar      1 IQP351      0.0000 
      7 N7          2.8850    9.8900    4.4240 N.ar      1 IQP351      0.0000 
      8 C8          3.8100    9.8370    5.4060 C.ar      1 IQP351      0.0000 
      9 C9          5.1500    9.8420    5.0600 C.ar      1 IQP351      0.0000 
     10 C10         5.5440    9.9020    3.6810 C.ar      1 IQP351      0.0000 
     11 S           8.2560    9.8400    4.4310 S.o2      1 IQP351      0.0000 
     12 O1          7.8680    8.9110    5.4940 O.2       1 IQP351      0.0000 
     13 O2          8.4870   11.2270    4.7360 O.2       1 IQP351      0.0000 
     14 N1'         9.4280    9.1390    3.5960 N.pl3     1 IQP351      0.0000 
     15 C2'        10.7840    9.7940    3.7670 C.3       1 IQP351      0.0000 
     16 CM2        11.2730    9.6590    5.2290 C.3       1 IQP351      0.0000 
     17 C3'        11.8380    9.0210    2.9300 C.3       1 IQP351      0.0000 
     18 N4'        11.6980    7.5310    3.1900 N.4       1 IQP351      0.0000 
     19 C5'        10.3790    6.9420    2.8730 C.3       1 IQP351      0.0000 
     20 C6'         9.3930    7.6540    3.8060 C.3       1 IQP351      0.0000 
     21 H           8.2119    9.9777    1.5688 H         1 IQP351      0.0000 
     22 H           6.4382   10.0683   -0.1038 H         1 IQP351      0.0000 
     23 H           4.1010   10.0549    0.5998 H         1 IQP351      0.0000 
     24 H           2.4242    9.9888    2.3943 H         1 IQP351      0.0000 
     25 H           3.5400    9.7934    6.3968 H         1 IQP351      0.0000 
     26 H           5.8826    9.8033    5.7758 H         1 IQP351      0.0000 
     27 H          10.7824   10.7934    3.4842 H         1 IQP351      0.0000 
     28 H          12.8243    9.3560    3.2209 H         1 IQP351      0.0000 
     29 H          11.6697    9.2309    1.8825 H         1 IQP351      0.0000 
     30 H          10.3640    5.8941    3.0889 H         1 IQP351      0.0000 
     31 H          10.1020    7.1427    1.8591 H         1 IQP351      0.0000 
     32 H           8.3883    7.2729    3.6096 H         1 IQP351      0.0000 
     33 H           9.6559    7.4169    4.8394 H         1 IQP351      0.0000 
     34 H          12.1679   10.0849    5.3621 H         1 IQP351      0.0000 
     35 H          10.6431   10.0932    5.8729 H         1 IQP351      0.0000 
     36 H          11.3601    8.7017    5.5046 H         1 IQP351      0.0000 
@<TRIPOS>BOND
     1    2    1 ar   
     2   10    1 ar   
     3   11    1 1    
     4    3    2 ar   
     5   21    2 1    
     6    4    3 ar   
     7   22    3 1    
     8    5    4 ar   
     9   23    4 1    
    10    6    5 ar   
    11   10    5 ar   
    12    7    6 ar   
    13   24    6 1    
    14    8    7 ar   
    15    9    8 ar   
    16   25    8 1    
    17   10    9 ar   
    18   26    9 1    
    19   12   11 2    
    20   13   11 2    
    21   14   11 1    
    22   15   14 1    
    23   20   14 1    
    24   16   15 1    
    25   17   15 1    
    26   27   15 1    
    27   34   16 1    
    28   35   16 1    
    29   36   16 1    
    30   18   17 1    
    31   28   17 1    
    32   29   17 1    
    33   19   18 1    
    34   20   19 1    
    35   30   19 1    
    36   31   19 1    
    37   32   20 1    
    38   33   20 1    
@<TRIPOS>SUBSTRUCTURE
     1 IQP351      1 GROUP   
@<TRIPOS>SET

