#    Name: 3C45_2_CAVITY_N1_ALL.mol2
#    Modification time : Tue Mar 11 12:53:10 2014

@<TRIPOS>MOLECULE
3C45_2_CAVITY_N1_ALL.mol2
   70     0     7     0     0
SMALL
NO_CHARGES


@<TRIPOS>ATOM
      1 O          -9.7108   65.6553   31.2073 O.2       2 ALA2        0.0000 
      2 CA        -11.4012   65.4600   32.4739 C.3       6 GLY6        0.0000 
      3 OG        -10.2886   64.5512   32.0422 O.2       1 SER1        0.0000 
      4 OG         -9.1760   63.6425   31.6104 O.2       1 SER1        0.0000 
      5 OG         -8.0635   62.7338   31.1787 O.2       1 SER1        0.0000 
      6 CA         -6.9509   61.8250   30.7470 C.3       6 GLY6        0.0000 
      7 DU        -10.8665   63.4471   32.8770 H         7 CUB7        0.0000 
      8 OG         -9.7539   62.5384   32.4453 O.2       1 SER1        0.0000 
      9 OG         -8.6413   61.6297   32.0136 O.2       1 SER1        0.0000 
     10 CA         -7.5288   60.7209   31.5819 C.3       6 GLY6        0.0000 
     11 CA         -8.8872   66.1083   32.3763 C.3       6 GLY6        0.0000 
     12 N          -7.7746   65.1995   31.9446 N.2       2 ALA2        0.0000 
     13 CZ         -9.4650   65.0042   33.2112 C.ar      5 PHE5        0.0000 
     14 DU         -8.3525   64.0954   32.7794 H         7 CUB7        0.0000 
     15 N          -7.2399   63.1867   32.3477 N.2       2 ALA2        0.0000 
     16 N          -6.1273   62.2780   31.9160 N.2       2 ALA2        0.0000 
     17 CZ        -10.0429   63.9001   34.0460 C.ar      5 PHE5        0.0000 
     18 DU         -8.9303   62.9913   33.6143 H         7 CUB7        0.0000 
     19 DU         -7.8178   62.0826   33.1826 H         7 CUB7        0.0000 
     20 OD1        -6.7052   61.1739   32.7509 O.3       3 ASP3        0.0000 
     21 CZ         -8.6415   65.4571   34.3802 C.ar      5 PHE5        0.0000 
     22 CZ         -7.5289   64.5484   33.9485 C.ar      5 PHE5        0.0000 
     23 DU         -6.4163   63.6396   33.5167 H         7 CUB7        0.0000 
     24 NZ         -5.3038   62.7309   33.0850 N.2       4 LYS4        0.0000 
     25 DU         -8.1068   63.4443   34.7833 H         7 CUB7        0.0000 
     26 DU         -6.9942   62.5355   34.3516 H         7 CUB7        0.0000 
     27 CZ         -9.7972   63.2489   36.0499 C.ar      5 PHE5        0.0000 
     28 OG        -11.1122   64.0983   30.8731 O.2       1 SER1        0.0000 
     29 N          -8.3523   60.2680   30.4129 N.2       2 ALA2        0.0000 
     30 CZ         -4.1913   65.6496   35.0199 C.ar      5 PHE5        0.0000 
     31 OG         -3.0788   64.7409   34.5881 O.2       1 SER1        0.0000 
     32 CZ         -5.8818   65.4542   36.2865 C.ar      5 PHE5        0.0000 
     33 CZ         -4.7692   64.5455   35.8548 C.ar      5 PHE5        0.0000 
     34 NZ         -3.6566   63.6368   35.4230 N.2       4 LYS4        0.0000 
     35 NZ         -2.5440   62.7280   34.9913 N.2       4 LYS4        0.0000 
     36 CZ         -6.4596   64.3501   37.1214 C.ar      5 PHE5        0.0000 
     37 OG         -5.3470   63.4414   36.6896 O.2       1 SER1        0.0000 
     38 OG         -4.2345   62.5327   36.2579 O.2       1 SER1        0.0000 
     39 O          -3.1219   61.6239   35.8262 O.2       2 ALA2        0.0000 
     40 OG         -7.0375   63.2460   37.9562 O.2       1 SER1        0.0000 
     41 OG         -5.9249   62.3373   37.5245 O.2       1 SER1        0.0000 
     42 OG         -4.8123   61.4286   37.0928 O.2       1 SER1        0.0000 
     43 O          -3.6998   60.5198   36.6611 O.2       2 ALA2        0.0000 
     44 O          -2.5872   59.6111   36.2294 O.2       2 ALA2        0.0000 
     45 OG         -6.5028   61.2332   38.3594 O.2       1 SER1        0.0000 
     46 OG         -5.3902   60.3245   37.9277 O.2       1 SER1        0.0000 
     47 OG         -4.2776   59.4157   37.4960 O.2       1 SER1        0.0000 
     48 OG         -3.1650   58.5070   37.0643 O.2       1 SER1        0.0000 
     49 OG         -3.4540   59.8687   38.6650 O.2       1 SER1        0.0000 
     50 NZ         -6.1275   66.1054   34.2826 N.2       4 LYS4        0.0000 
     51 CZ         -6.7053   65.0013   35.1175 C.ar      5 PHE5        0.0000 
     52 NZ         -5.5928   64.0926   34.6857 N.2       4 LYS4        0.0000 
     53 NZ         -4.4802   63.1838   34.2540 N.2       4 LYS4        0.0000 
     54 CZ         -7.2832   63.8972   35.9523 C.ar      5 PHE5        0.0000 
     55 DU         -6.1706   62.9885   35.5206 H         7 CUB7        0.0000 
     56 O          -5.0580   62.0797   35.0889 O.2       2 ALA2        0.0000 
     57 DU         -7.8610   62.7931   36.7872 H         7 CUB7        0.0000 
     58 DU         -6.7485   61.8844   36.3555 H         7 CUB7        0.0000 
     59 O          -5.6359   60.9756   35.9238 O.2       2 ALA2        0.0000 
     60 O          -4.5233   60.0669   35.4921 O.2       2 ALA2        0.0000 
     61 CZ         -3.9456   64.9984   37.0238 C.ar      5 PHE5        0.0000 
     62 OG         -2.8330   64.0897   36.5920 O.2       1 SER1        0.0000 
     63 OG         -1.7205   63.1810   36.1603 O.2       1 SER1        0.0000 
     64 CZ         -5.6360   64.8031   38.2904 C.ar      5 PHE5        0.0000 
     65 OG         -4.5235   63.8943   37.8587 O.2       1 SER1        0.0000 
     66 OG         -3.4109   62.9856   37.4269 O.2       1 SER1        0.0000 
     67 OG         -2.2983   62.0769   36.9952 O.2       1 SER1        0.0000 
     68 OG         -2.8762   60.9728   37.8301 O.2       1 SER1        0.0000 
     69 NZ         -6.9510   65.6525   33.1136 N.2       4 LYS4        0.0000 
     70 NZ         -5.8385   64.7437   32.6818 N.2       4 LYS4        0.0000 
@<TRIPOS>BOND
@<TRIPOS>SUBSTRUCTURE
     1 SER1        3 GROUP   
     2 ALA2        1 GROUP   
     3 ASP3       20 GROUP   
     4 LYS4       24 GROUP   
     5 PHE5       13 GROUP   
     6 GLY6        2 GROUP   
     7 CUB7        7 GROUP   
@<TRIPOS>SET

