#    Name: 3c45_317_2_INTS_M
#    Modification time : Mon Mar 24 20:29:06 2014

@<TRIPOS>MOLECULE
3c45_317_2_INTS_M
   61     0     9     0     0
SMALL
NO_CHARGES


@<TRIPOS>ATOM
      1 CA         -3.9585   66.1700   35.6760 C.3       3 GLC5        0.0000 
      2 CA         -3.6110   64.2890   35.0960 C.3       9 GLL5        0.0000 
      3 CA         -4.3060   68.0510   36.2560 C.3       6 GLP5        0.0000 
      4 OD1        -2.9010   63.6690   33.0260 O.co2     2 ASC3        0.0000 
      5 OD1        -3.0440   64.7310   33.8300 O.co2     8 ASL3        0.0000 
      6 OD1        -2.7580   62.6070   32.2220 O.co2     5 ASP3        0.0000 
      7 OD1        -3.5485   65.7905   33.1900 O.co2     2 ASC3        0.0000 
      8 OD1        -4.0530   66.8500   32.5500 O.co2     5 ASP3        0.0000 
      9 OD1        -2.4765   65.8755   33.3810 O.co2     2 ASC3        0.0000 
     10 OD1        -1.9090   67.0200   32.9320 O.co2     5 ASP3        0.0000 
     11 O          -2.9010   63.6690   33.0260 O.2       1 ALC1        0.0000 
     12 O          -3.0440   64.7310   33.8300 O.2       7 ALL1        0.0000 
     13 O          -2.7580   62.6070   32.2220 O.2       4 ALP1        0.0000 
     14 O          -3.5485   65.7905   33.1900 O.2       1 ALC1        0.0000 
     15 O          -4.0530   66.8500   32.5500 O.2       4 ALP1        0.0000 
     16 O          -2.4765   65.8755   33.3810 O.2       1 ALC1        0.0000 
     17 O          -1.9090   67.0200   32.9320 O.2       4 ALP1        0.0000 
     18 O          -1.5935   64.9065   34.2330 O.2       1 ALC1        0.0000 
     19 O          -0.1430   65.0820   34.6360 O.2       4 ALP1        0.0000 
     20 CA         -0.7985   61.4100   39.0390 C.3       3 GLC5        0.0000 
     21 CA         -0.8750   63.1480   37.7710 C.3       9 GLL5        0.0000 
     22 CA         -0.7220   59.6720   40.3070 C.3       6 GLP5        0.0000 
     23 CA         -0.8265   63.4310   40.9310 C.3       3 GLC5        0.0000 
     24 CA         -0.3090   64.0200   38.8800 C.3       9 GLL5        0.0000 
     25 CA         -1.3440   62.8420   42.9820 C.3       6 GLP5        0.0000 
     26 CA         -1.9175   65.6660   40.6050 C.3       3 GLC5        0.0000 
     27 CA         -1.0310   65.3670   38.8070 C.3       9 GLL5        0.0000 
     28 CA         -2.8040   65.9650   42.4030 C.3       6 GLP5        0.0000 
     29 CA         -0.5270   66.8750   40.1540 C.3       3 GLC5        0.0000 
     30 CA         -0.0230   68.3830   41.5010 C.3       6 GLP5        0.0000 
     31 CA         -2.0210   66.9870   38.7275 C.3       3 GLC5        0.0000 
     32 CA         -3.0110   68.6070   38.6480 C.3       6 GLP5        0.0000 
     33 CA         -3.1580   66.5065   38.2225 C.3       3 GLC5        0.0000 
     34 CA         -2.1760   65.2210   37.8040 C.3       9 GLL5        0.0000 
     35 CA         -4.1400   67.7920   38.6410 C.3       6 GLP5        0.0000 
     36 CA         -7.9545   59.6310   43.8575 C.3       3 GLC5        0.0000 
     37 CA         -9.5200   59.5200   43.0510 C.3       9 GLL5        0.0000 
     38 CA         -6.3890   59.7420   44.6640 C.3       6 GLP5        0.0000 
     39 CA         -9.7125   61.2580   43.2465 C.3       3 GLC5        0.0000 
     40 CA         -9.9050   62.9960   43.4420 C.3       6 GLP5        0.0000 
     41 CA         -9.2725   58.3935   44.2590 C.3       3 GLC5        0.0000 
     42 CA         -9.0250   57.2670   45.4670 C.3       6 GLP5        0.0000 
     43 CA        -10.0970   64.5890   38.4665 C.3       3 GLC5        0.0000 
     44 CA         -9.5870   63.3670   39.5060 C.3       9 GLL5        0.0000 
     45 CA        -10.6070   65.8110   37.4270 C.3       6 GLP5        0.0000 
     46 CA         -7.8835   62.7805   40.6305 C.3       3 GLC5        0.0000 
     47 CA         -6.1800   62.1940   41.7550 C.3       6 GLP5        0.0000 
     48 CA        -10.4280   63.3655   41.1745 C.3       3 GLC5        0.0000 
     49 CA        -11.2690   63.3640   42.8430 C.3       6 GLP5        0.0000 
     50 CA         -0.8032   64.8612   35.8812 C.3       3 GLC5        0.0000 
     51 CA         -1.9480   63.9480   37.0220 C.3       9 GLL5        0.0000 
     52 CA          0.6440   65.9840   35.3200 C.3       6 GLP5        0.0000 
     53 CA          0.0260   64.7840   36.8227 C.3       3 GLC5        0.0000 
     54 CA          1.2185   63.0350   37.9462 C.3       3 GLC5        0.0000 
     55 CA          3.0290   62.4860   37.5670 C.3       6 GLP5        0.0000 
     56 CA          1.0530   65.0203   39.6322 C.3       3 GLC5        0.0000 
     57 CA          2.7760   65.3470   40.4210 C.3       6 GLP5        0.0000 
     58 CA         -0.7418   66.2555   36.9838 C.3       3 GLC5        0.0000 
     59 CA          0.1200   67.2170   35.6620 C.3       6 GLP5        0.0000 
     60 CA         -9.4217   62.1880   41.6773 C.3       3 GLC5        0.0000 
     61 CA         -8.7140   61.8570   39.4440 C.3       9 GLL5        0.0000 
@<TRIPOS>BOND
@<TRIPOS>SUBSTRUCTURE
     1 ALC1       11 GROUP        1 X    ALC  0     ROOT ALC X 1
     2 ASC3        4 GROUP        1 X    ASC  0     **** ASC X 3
     3 GLC5        1 GROUP        1 X    GLC  0     **** GLC X 6
     4 ALP1       13 GROUP        1 Y    ALP  0     ROOT ALP Y 8
     5 ASP3        6 GROUP        1 Y    ASP  0     **** ASP Y 10
     6 GLP5        3 GROUP        1 Y    GLP  0     **** GLP Y 13
     7 ALL1       12 GROUP        1 Z    ALL  0     ROOT ALL Z 15
     8 ASL3        5 GROUP        1 Z    ASL  0     **** ASL Z 17
     9 GLL5        2 GROUP        1 Z    GLL  0     **** GLL Z 20
@<TRIPOS>SET

