#    Name: 3c45_317_2_ligand
#    Modification time : Mon Mar 24 20:29:06 2014

@<TRIPOS>MOLECULE
3c45_317_2_ligand
   56    59     1     0     0
SMALL
NO_CHARGES


@<TRIPOS>ATOM
      1 C1         -4.9120   63.3970   34.7860 C.3       1 3172        0.0000 
      2 C2         -3.6110   64.2890   35.0960 C.3       1 3172        0.0000 
      3 C3         -2.5530   63.5290   35.8630 C.2       1 3172        0.0000 
      4 C4         -1.9480   63.9480   37.0220 C.2       1 3172        0.0000 
      5 F5         -2.1900   62.3450   35.3480 F         1 3172        0.0000 
      6 N6         -3.0440   64.7310   33.8300 N.4       1 3172        0.0000 
      7 C7         -5.7870   64.0860   33.7130 C.3       1 3172        0.0000 
      8 C8         -0.8750   63.1480   37.7710 C.3       1 3172        0.0000 
      9 C9         -0.3090   64.0200   38.8800 C.3       1 3172        0.0000 
     10 C10        -1.0310   65.3670   38.8070 C.3       1 3172        0.0000 
     11 C11        -2.1760   65.2210   37.8040 C.3       1 3172        0.0000 
     12 C18        -6.5920   63.0800   32.8730 C.3       1 3172        0.0000 
     13 C19        -7.5690   63.6100   31.9220 C.3       1 3172        0.0000 
     14 C20        -8.0160   63.0020   33.1730 C.3       1 3172        0.0000 
     15 C26        -5.8060   63.2780   36.0030 C.2       1 3172        0.0000 
     16 N27        -6.1860   62.1130   36.5080 N.2       1 3172        0.0000 
     17 C28        -6.9400   62.4450   37.5620 C.2       1 3172        0.0000 
     18 N29        -7.0240   63.7990   37.7090 N.2       1 3172        0.0000 
     19 O30        -6.2660   64.3520   36.6670 O.3       1 3172        0.0000 
     20 C31        -7.5980   61.5570   38.5640 C.ar      1 3172        0.0000 
     21 C32        -6.9890   60.2650   38.6600 C.ar      1 3172        0.0000 
     22 C33        -7.4420   59.3120   39.5990 C.ar      1 3172        0.0000 
     23 C34        -8.5290   59.6410   40.4600 C.ar      1 3172        0.0000 
     24 C35        -9.1630   60.9030   40.3810 C.ar      1 3172        0.0000 
     25 C36        -8.7140   61.8570   39.4440 C.ar      1 3172        0.0000 
     26 S40        -9.0820   58.4850   41.6680 S.o2      1 3172        0.0000 
     27 O41        -8.0100   57.5970   41.9710 O.2       1 3172        0.0000 
     28 O42       -10.2780   57.8550   41.0950 O.2       1 3172        0.0000 
     29 C43        -9.5200   59.5200   43.0510 C.3       1 3172        0.0000 
     30 CL47       -9.5870   63.3670   39.5060 Cl        1 3172        0.0000 
     31 H          -4.6152   62.4535   34.4440 H         1 3172        0.0000 
     32 H          -3.9442   65.1330   35.6723 H         1 3172        0.0000 
     33 H          -5.1403   64.6685   33.0518 H         1 3172        0.0000 
     34 H          -6.4779   64.7724   34.2093 H         1 3172        0.0000 
     35 H          -0.0890   62.8770   37.0828 H         1 3172        0.0000 
     36 H          -1.3237   62.2630   38.1957 H         1 3172        0.0000 
     37 H           0.7430   64.1700   38.7242 H         1 3172        0.0000 
     38 H          -0.4987   63.5646   39.8340 H         1 3172        0.0000 
     39 H          -0.3478   66.1227   38.4655 H         1 3172        0.0000 
     40 H          -1.4291   65.6140   39.7740 H         1 3172        0.0000 
     41 H          -3.1107   65.1624   38.3381 H         1 3172        0.0000 
     42 H          -2.1741   66.0680   37.1370 H         1 3172        0.0000 
     43 H          -6.2808   62.2315   32.5794 H         1 3172        0.0000 
     44 H          -7.6850   62.9842   31.2052 H         1 3172        0.0000 
     45 H          -7.6036   64.5646   32.0024 H         1 3172        0.0000 
     46 H          -8.2505   63.6929   33.7967 H         1 3172        0.0000 
     47 H          -8.3319   62.1124   32.9995 H         1 3172        0.0000 
     48 H          -6.2106   60.0352   38.0323 H         1 3172        0.0000 
     49 H          -7.0016   58.4005   39.6644 H         1 3172        0.0000 
     50 H          -9.9430   61.1210   41.0010 H         1 3172        0.0000 
     51 H          -2.7739   63.9592   33.2544 H         1 3172        0.0000 
     52 H          -3.6946   65.2768   33.3020 H         1 3172        0.0000 
     53 H          -2.2295   65.2953   33.9648 H         1 3172        0.0000 
     54 H          -8.7391   60.0515   43.3791 H         1 3172        0.0000 
     55 H         -10.2396   60.1725   42.8134 H         1 3172        0.0000 
     56 H          -9.8551   58.9831   43.8252 H         1 3172        0.0000 
@<TRIPOS>BOND
     1    2    1 1    
     2    7    1 1    
     3   15    1 1    
     4   31    1 1    
     5    3    2 1    
     6    6    2 1    
     7   32    2 1    
     8    4    3 2    
     9    5    3 1    
    10    8    4 1    
    11   11    4 1    
    12   51    6 1    
    13   52    6 1    
    14   53    6 1    
    15   12    7 1    
    16   33    7 1    
    17   34    7 1    
    18    9    8 1    
    19   35    8 1    
    20   36    8 1    
    21   10    9 1    
    22   37    9 1    
    23   38    9 1    
    24   11   10 1    
    25   39   10 1    
    26   40   10 1    
    27   41   11 1    
    28   42   11 1    
    29   13   12 1    
    30   14   12 1    
    31   43   12 1    
    32   14   13 1    
    33   44   13 1    
    34   45   13 1    
    35   46   14 1    
    36   47   14 1    
    37   16   15 2    
    38   19   15 1    
    39   17   16 1    
    40   18   17 2    
    41   20   17 1    
    42   19   18 1    
    43   21   20 ar   
    44   25   20 ar   
    45   22   21 ar   
    46   48   21 1    
    47   23   22 ar   
    48   49   22 1    
    49   24   23 ar   
    50   26   23 1    
    51   25   24 ar   
    52   50   24 1    
    53   30   25 1    
    54   27   26 2    
    55   28   26 2    
    56   29   26 1    
    57   54   29 1    
    58   55   29 1    
    59   56   29 1    
@<TRIPOS>SUBSTRUCTURE
     1 3172        1 GROUP   
@<TRIPOS>SET

